MODEL 1
REMARK VINA RESULT:      -7.5      0.000      0.000
REMARK  Name = 
REMARK  8 active torsions:
REMARK  status: ('A' for Active; 'I' for Inactive)
REMARK    1  A    between atoms: C_1  and  C_2
REMARK    2  A    between atoms: C_4  and  N_5
REMARK    3  A    between atoms: C_8  and  N_9
REMARK    4  A    between atoms: C_10  and  C_11
REMARK    5  A    between atoms: C_11  and  C_12
REMARK    6  A    between atoms: C_11  and  N_13
REMARK    7  A    between atoms: N_13  and  C_14
REMARK    8  A    between atoms: C_21  and  C_22
REMARK                            x       y       z     vdW  Elec       q    Type
REMARK                         _______ _______ _______ _____ _____    ______ ____
ROOT
ATOM      1  N   UNL     1       0.447  12.536  20.024  0.00  0.00    +0.000 N 
ATOM      2  C   UNL     1      -0.739  13.080  19.505  0.00  0.00    +0.000 A 
ATOM      3  N   UNL     1      -0.809  14.363  19.251  0.00  0.00    +0.000 NA
ATOM      4  C   UNL     1       0.323  15.211  19.469  0.00  0.00    +0.000 A 
ATOM      5  C   UNL     1       0.296  16.580  19.109  0.00  0.00    +0.000 A 
ATOM      6 CL   UNL     1      -1.130  17.314  18.466  0.00  0.00    +0.000 Cl
ATOM      7  C   UNL     1       1.418  17.417  19.262  0.00  0.00    +0.000 A 
ATOM      8  C   UNL     1       2.600  16.910  19.793  0.00  0.00    +0.000 A 
ATOM      9  C   UNL     1       2.654  15.577  20.186  0.00  0.00    +0.000 A 
ATOM     10 CL   UNL     1       4.195  15.068  20.796  0.00  0.00    +0.000 Cl
ATOM     11  C   UNL     1       1.517  14.739  20.031  0.00  0.00    +0.000 A 
ATOM     12  C   UNL     1       1.520  13.332  20.445  0.00  0.00    +0.000 A 
ATOM     13  O   UNL     1       2.441  12.904  21.139  0.00  0.00    +0.000 OA
ENDROOT
BRANCH   1  20
ATOM     14  C   UNL     1      -0.625  11.423  22.561  0.00  0.00    +0.000 C 
ATOM     15  C   UNL     1       0.172  10.630  21.565  0.00  0.00    +0.000 A 
ATOM     16  C   UNL     1       0.457   9.281  21.813  0.00  0.00    +0.000 A 
ATOM     17  C   UNL     1       1.095   8.523  20.839  0.00  0.00    +0.000 A 
ATOM     18  N   UNL     1       1.334   8.974  19.606  0.00  0.00    +0.000 NA
ATOM     19  C   UNL     1       1.064  10.275  19.370  0.00  0.00    +0.000 A 
ATOM     20  C   UNL     1       0.573  11.158  20.334  0.00  0.00    +0.000 A 
BRANCH  17  21
ATOM     21  N   UNL     1       1.642   7.282  21.131  0.00  0.00    +0.000 N 
ATOM     22  H   UNL     1       1.226   6.848  21.947  0.00  0.00    +0.000 HD
ATOM     23  H   UNL     1       1.534   6.720  20.289  0.00  0.00    +0.000 HD
ENDBRANCH  17  21
ENDBRANCH   1  20
BRANCH   2  24
ATOM     24  C   UNL     1      -2.034  12.112  19.299  0.00  0.00    +0.000 C 
ATOM     25  C   UNL     1      -2.109  11.317  17.987  0.00  0.00    +0.000 C 
BRANCH  24  26
ATOM     26  N   UNL     1      -3.298  12.882  19.332  0.00  0.00    +0.000 N 
ATOM     27  H   UNL     1      -3.844  12.753  18.481  0.00  0.00    +0.000 HD
BRANCH  26  28
ATOM     28  C   UNL     1      -4.151  12.628  20.403  0.00  0.00    +0.000 A 
ATOM     29  N   UNL     1      -3.686  12.749  21.659  0.00  0.00    +0.000 NA
ATOM     30  C   UNL     1      -4.550  12.572  22.644  0.00  0.00    +0.000 A 
ATOM     31  N   UNL     1      -4.055  12.369  23.911  0.00  0.00    +0.000 N 
ATOM     32  N   UNL     1      -5.869  12.493  22.477  0.00  0.00    +0.000 NA
ATOM     33  C   UNL     1      -6.306  12.348  21.213  0.00  0.00    +0.000 A 
ATOM     34  N   UNL     1      -7.690  12.352  21.070  0.00  0.00    +0.000 N 
ATOM     35  C   UNL     1      -5.441  12.193  20.167  0.00  0.00    +0.000 A 
ATOM     36  H   UNL     1      -3.100  12.051  23.894  0.00  0.00    +0.000 HD
ATOM     37  H   UNL     1      -4.712  11.886  24.507  0.00  0.00    +0.000 HD
ATOM     38  H   UNL     1      -8.077  12.635  21.971  0.00  0.00    +0.000 HD
ATOM     39  H   UNL     1      -7.991  12.986  20.334  0.00  0.00    +0.000 HD
BRANCH  35  40
ATOM     40  C   UNL     1      -5.806  11.592  18.920  0.00  0.00    +0.000 C 
ATOM     41  N   UNL     1      -5.974  11.137  17.869  0.00  0.00    +0.000 NA
ENDBRANCH  35  40
ENDBRANCH  26  28
ENDBRANCH  24  26
ENDBRANCH   2  24
TORSDOF 6
ENDMDL
MODEL 2
REMARK VINA RESULT:      -7.1      0.840      1.941
REMARK  Name = 
REMARK  8 active torsions:
REMARK  status: ('A' for Active; 'I' for Inactive)
REMARK    1  A    between atoms: C_1  and  C_2
REMARK    2  A    between atoms: C_4  and  N_5
REMARK    3  A    between atoms: C_8  and  N_9
REMARK    4  A    between atoms: C_10  and  C_11
REMARK    5  A    between atoms: C_11  and  C_12
REMARK    6  A    between atoms: C_11  and  N_13
REMARK    7  A    between atoms: N_13  and  C_14
REMARK    8  A    between atoms: C_21  and  C_22
REMARK                            x       y       z     vdW  Elec       q    Type
REMARK                         _______ _______ _______ _____ _____    ______ ____
ROOT
ATOM      1  N   UNL     1       0.429  12.431  20.055  0.00  0.00    +0.000 N 
ATOM      2  C   UNL     1      -0.748  12.973  19.513  0.00  0.00    +0.000 A 
ATOM      3  N   UNL     1      -0.808  14.251  19.237  0.00  0.00    +0.000 NA
ATOM      4  C   UNL     1       0.326  15.096  19.455  0.00  0.00    +0.000 A 
ATOM      5  C   UNL     1       0.311  16.460  19.073  0.00  0.00    +0.000 A 
ATOM      6 CL   UNL     1      -1.102  17.190  18.399  0.00  0.00    +0.000 Cl
ATOM      7  C   UNL     1       1.436  17.293  19.227  0.00  0.00    +0.000 A 
ATOM      8  C   UNL     1       2.608  16.789  19.781  0.00  0.00    +0.000 A 
ATOM      9  C   UNL     1       2.650  15.462  20.197  0.00  0.00    +0.000 A 
ATOM     10 CL   UNL     1       4.180  14.956  20.835  0.00  0.00    +0.000 Cl
ATOM     11  C   UNL     1       1.510  14.628  20.041  0.00  0.00    +0.000 A 
ATOM     12  C   UNL     1       1.500  13.228  20.478  0.00  0.00    +0.000 A 
ATOM     13  O   UNL     1       2.410  12.806  21.191  0.00  0.00    +0.000 OA
ENDROOT
BRANCH   1  20
ATOM     14  C   UNL     1      -0.730  11.354  22.570  0.00  0.00    +0.000 C 
ATOM     15  C   UNL     1       0.100  10.547  21.614  0.00  0.00    +0.000 A 
ATOM     16  C   UNL     1       0.376   9.202  21.891  0.00  0.00    +0.000 A 
ATOM     17  C   UNL     1       1.047   8.429  20.951  0.00  0.00    +0.000 A 
ATOM     18  N   UNL     1       1.327   8.863  19.720  0.00  0.00    +0.000 NA
ATOM     19  C   UNL     1       1.066  10.160  19.457  0.00  0.00    +0.000 A 
ATOM     20  C   UNL     1       0.543  11.057  20.390  0.00  0.00    +0.000 A 
BRANCH  17  21
ATOM     21  N   UNL     1       1.583   7.193  21.280  0.00  0.00    +0.000 N 
ATOM     22  H   UNL     1       2.095   6.768  20.516  0.00  0.00    +0.000 HD
ATOM     23  H   UNL     1       2.162   7.347  22.104  0.00  0.00    +0.000 HD
ENDBRANCH  17  21
ENDBRANCH   1  20
BRANCH   2  24
ATOM     24  C   UNL     1      -2.044  12.008  19.305  0.00  0.00    +0.000 C 
ATOM     25  C   UNL     1      -1.979  10.985  18.161  0.00  0.00    +0.000 C 
BRANCH  24  26
ATOM     26  N   UNL     1      -3.267  12.795  19.022  0.00  0.00    +0.000 N 
ATOM     27  H   UNL     1      -3.578  12.678  18.059  0.00  0.00    +0.000 HD
BRANCH  26  28
ATOM     28  C   UNL     1      -4.367  12.545  19.837  0.00  0.00    +0.000 A 
ATOM     29  N   UNL     1      -5.383  11.801  19.365  0.00  0.00    +0.000 NA
ATOM     30  C   UNL     1      -6.371  11.526  20.199  0.00  0.00    +0.000 A 
ATOM     31  N   UNL     1      -7.552  11.058  19.673  0.00  0.00    +0.000 N 
ATOM     32  N   UNL     1      -6.328  11.754  21.511  0.00  0.00    +0.000 NA
ATOM     33  C   UNL     1      -5.316  12.521  21.954  0.00  0.00    +0.000 A 
ATOM     34  N   UNL     1      -5.256  12.667  23.337  0.00  0.00    +0.000 N 
ATOM     35  C   UNL     1      -4.434  13.114  21.095  0.00  0.00    +0.000 A 
ATOM     36  H   UNL     1      -7.644  11.288  18.696  0.00  0.00    +0.000 HD
ATOM     37  H   UNL     1      -8.338  11.227  20.283  0.00  0.00    +0.000 HD
ATOM     38  H   UNL     1      -5.925  12.004  23.730  0.00  0.00    +0.000 HD
ATOM     39  H   UNL     1      -4.321  12.490  23.694  0.00  0.00    +0.000 HD
BRANCH  35  40
ATOM     40  C   UNL     1      -3.654  14.266  21.431  0.00  0.00    +0.000 C 
ATOM     41  N   UNL     1      -3.074  15.185  21.830  0.00  0.00    +0.000 NA
ENDBRANCH  35  40
ENDBRANCH  26  28
ENDBRANCH  24  26
ENDBRANCH   2  24
TORSDOF 6
ENDMDL
MODEL 3
REMARK VINA RESULT:      -6.8      1.408      2.030
REMARK  Name = 
REMARK  8 active torsions:
REMARK  status: ('A' for Active; 'I' for Inactive)
REMARK    1  A    between atoms: C_1  and  C_2
REMARK    2  A    between atoms: C_4  and  N_5
REMARK    3  A    between atoms: C_8  and  N_9
REMARK    4  A    between atoms: C_10  and  C_11
REMARK    5  A    between atoms: C_11  and  C_12
REMARK    6  A    between atoms: C_11  and  N_13
REMARK    7  A    between atoms: N_13  and  C_14
REMARK    8  A    between atoms: C_21  and  C_22
REMARK                            x       y       z     vdW  Elec       q    Type
REMARK                         _______ _______ _______ _____ _____    ______ ____
ROOT
ATOM      1  N   UNL     1       0.124  12.717  20.289  0.00  0.00    +0.000 N 
ATOM      2  C   UNL     1      -1.121  13.266  19.938  0.00  0.00    +0.000 A 
ATOM      3  N   UNL     1      -1.225  14.552  19.717  0.00  0.00    +0.000 NA
ATOM      4  C   UNL     1      -0.076  15.400  19.801  0.00  0.00    +0.000 A 
ATOM      5  C   UNL     1      -0.152  16.776  19.472  0.00  0.00    +0.000 A 
ATOM      6 CL   UNL     1      -1.651  17.514  19.031  0.00  0.00    +0.000 Cl
ATOM      7  C   UNL     1       0.979  17.614  19.493  0.00  0.00    +0.000 A 
ATOM      8  C   UNL     1       2.220  17.103  19.858  0.00  0.00    +0.000 A 
ATOM      9  C   UNL     1       2.328  15.764  20.218  0.00  0.00    +0.000 A 
ATOM     10 CL   UNL     1       3.935  15.252  20.614  0.00  0.00    +0.000 Cl
ATOM     11  C   UNL     1       1.182  14.924  20.196  0.00  0.00    +0.000 A 
ATOM     12  C   UNL     1       1.241  13.510  20.582  0.00  0.00    +0.000 A 
ATOM     13  O   UNL     1       2.245  13.074  21.143  0.00  0.00    +0.000 OA
ENDROOT
BRANCH   1  20
ATOM     14  C   UNL     1      -0.811  11.516  22.840  0.00  0.00    +0.000 C 
ATOM     15  C   UNL     1      -0.043  10.767  21.790  0.00  0.00    +0.000 A 
ATOM     16  C   UNL     1       0.280   9.418  21.988  0.00  0.00    +0.000 A 
ATOM     17  C   UNL     1       0.889   8.699  20.967  0.00  0.00    +0.000 A 
ATOM     18  N   UNL     1       1.063   9.187  19.737  0.00  0.00    +0.000 NA
ATOM     19  C   UNL     1       0.756  10.487  19.549  0.00  0.00    +0.000 A 
ATOM     20  C   UNL     1       0.291  11.335  20.556  0.00  0.00    +0.000 A 
BRANCH  17  21
ATOM     21  N   UNL     1       1.474   7.463  21.202  0.00  0.00    +0.000 N 
ATOM     22  H   UNL     1       2.472   7.458  21.029  0.00  0.00    +0.000 HD
ATOM     23  H   UNL     1       1.240   7.218  22.162  0.00  0.00    +0.000 HD
ENDBRANCH  17  21
ENDBRANCH   1  20
BRANCH   2  24
ATOM     24  C   UNL     1      -2.429  12.296  19.883  0.00  0.00    +0.000 C 
ATOM     25  C   UNL     1      -2.689  11.546  18.568  0.00  0.00    +0.000 C 
BRANCH  24  26
ATOM     26  N   UNL     1      -3.678  13.055  20.124  0.00  0.00    +0.000 N 
ATOM     27  H   UNL     1      -4.495  12.563  19.768  0.00  0.00    +0.000 HD
BRANCH  26  28
ATOM     28  C   UNL     1      -3.952  13.393  21.446  0.00  0.00    +0.000 A 
ATOM     29  N   UNL     1      -4.079  12.420  22.364  0.00  0.00    +0.000 NA
ATOM     30  C   UNL     1      -4.264  12.790  23.620  0.00  0.00    +0.000 A 
ATOM     31  N   UNL     1      -4.714  11.848  24.515  0.00  0.00    +0.000 N 
ATOM     32  N   UNL     1      -4.124  14.040  24.059  0.00  0.00    +0.000 NA
ATOM     33  C   UNL     1      -4.023  14.998  23.119  0.00  0.00    +0.000 A 
ATOM     34  N   UNL     1      -3.794  16.279  23.614  0.00  0.00    +0.000 N 
ATOM     35  C   UNL     1      -4.155  14.717  21.789  0.00  0.00    +0.000 A 
ATOM     36  H   UNL     1      -5.164  11.075  24.050  0.00  0.00    +0.000 HD
ATOM     37  H   UNL     1      -5.174  12.264  25.311  0.00  0.00    +0.000 HD
ATOM     38  H   UNL     1      -3.588  16.176  24.609  0.00  0.00    +0.000 HD
ATOM     39  H   UNL     1      -3.026  16.737  23.132  0.00  0.00    +0.000 HD
BRANCH  35  40
ATOM     40  C   UNL     1      -4.514  15.693  20.805  0.00  0.00    +0.000 C 
ATOM     41  N   UNL     1      -4.876  16.543  20.109  0.00  0.00    +0.000 NA
ENDBRANCH  35  40
ENDBRANCH  26  28
ENDBRANCH  24  26
ENDBRANCH   2  24
TORSDOF 6
ENDMDL
MODEL 4
REMARK VINA RESULT:      -6.8      0.684      1.253
REMARK  Name = 
REMARK  8 active torsions:
REMARK  status: ('A' for Active; 'I' for Inactive)
REMARK    1  A    between atoms: C_1  and  C_2
REMARK    2  A    between atoms: C_4  and  N_5
REMARK    3  A    between atoms: C_8  and  N_9
REMARK    4  A    between atoms: C_10  and  C_11
REMARK    5  A    between atoms: C_11  and  C_12
REMARK    6  A    between atoms: C_11  and  N_13
REMARK    7  A    between atoms: N_13  and  C_14
REMARK    8  A    between atoms: C_21  and  C_22
REMARK                            x       y       z     vdW  Elec       q    Type
REMARK                         _______ _______ _______ _____ _____    ______ ____
ROOT
ATOM      1  N   UNL     1       0.535  12.749  20.001  0.00  0.00    +0.000 N 
ATOM      2  C   UNL     1      -0.647  13.273  19.451  0.00  0.00    +0.000 A 
ATOM      3  N   UNL     1      -0.709  14.542  19.133  0.00  0.00    +0.000 NA
ATOM      4  C   UNL     1       0.427  15.393  19.313  0.00  0.00    +0.000 A 
ATOM      5  C   UNL     1       0.409  16.743  18.886  0.00  0.00    +0.000 A 
ATOM      6 CL   UNL     1      -1.010  17.451  18.200  0.00  0.00    +0.000 Cl
ATOM      7  C   UNL     1       1.536  17.580  19.001  0.00  0.00    +0.000 A 
ATOM      8  C   UNL     1       2.713  17.094  19.562  0.00  0.00    +0.000 A 
ATOM      9  C   UNL     1       2.758  15.782  20.021  0.00  0.00    +0.000 A 
ATOM     10 CL   UNL     1       4.293  15.296  20.662  0.00  0.00    +0.000 Cl
ATOM     11  C   UNL     1       1.617  14.943  19.903  0.00  0.00    +0.000 A 
ATOM     12  C   UNL     1       1.610  13.559  20.387  0.00  0.00    +0.000 A 
ATOM     13  O   UNL     1       2.527  13.161  21.105  0.00  0.00    +0.000 OA
ENDROOT
BRANCH   1  20
ATOM     14  C   UNL     1       1.811  10.752  18.209  0.00  0.00    +0.000 C 
ATOM     15  C   UNL     1       1.151  10.410  19.514  0.00  0.00    +0.000 A 
ATOM     16  C   UNL     1       1.104   9.078  19.946  0.00  0.00    +0.000 A 
ATOM     17  C   UNL     1       0.594   8.781  21.205  0.00  0.00    +0.000 A 
ATOM     18  N   UNL     1       0.269   9.718  22.098  0.00  0.00    +0.000 NA
ATOM     19  C   UNL     1       0.309  11.000  21.678  0.00  0.00    +0.000 A 
ATOM     20  C   UNL     1       0.651  11.387  20.380  0.00  0.00    +0.000 A 
BRANCH  17  21
ATOM     21  N   UNL     1       0.272   7.481  21.566  0.00  0.00    +0.000 N 
ATOM     22  H   UNL     1      -0.723   7.294  21.525  0.00  0.00    +0.000 HD
ATOM     23  H   UNL     1       0.811   6.875  20.950  0.00  0.00    +0.000 HD
ENDBRANCH  17  21
ENDBRANCH   1  20
BRANCH   2  24
ATOM     24  C   UNL     1      -1.945  12.303  19.288  0.00  0.00    +0.000 C 
ATOM     25  C   UNL     1      -2.093  11.551  17.957  0.00  0.00    +0.000 C 
BRANCH  24  26
ATOM     26  N   UNL     1      -3.210  13.062  19.421  0.00  0.00    +0.000 N 
ATOM     27  H   UNL     1      -3.791  12.980  18.588  0.00  0.00    +0.000 HD
BRANCH  26  28
ATOM     28  C   UNL     1      -4.016  12.738  20.510  0.00  0.00    +0.000 A 
ATOM     29  N   UNL     1      -3.490  12.752  21.747  0.00  0.00    +0.000 NA
ATOM     30  C   UNL     1      -4.309  12.513  22.756  0.00  0.00    +0.000 A 
ATOM     31  N   UNL     1      -3.758  12.203  23.978  0.00  0.00    +0.000 N 
ATOM     32  N   UNL     1      -5.636  12.469  22.649  0.00  0.00    +0.000 NA
ATOM     33  C   UNL     1      -6.135  12.431  21.400  0.00  0.00    +0.000 A 
ATOM     34  N   UNL     1      -7.524  12.470  21.326  0.00  0.00    +0.000 N 
ATOM     35  C   UNL     1      -5.324  12.344  20.304  0.00  0.00    +0.000 A 
ATOM     36  H   UNL     1      -2.811  11.871  23.889  0.00  0.00    +0.000 HD
ATOM     37  H   UNL     1      -4.396  11.685  24.566  0.00  0.00    +0.000 HD
ATOM     38  H   UNL     1      -7.862  12.687  22.265  0.00  0.00    +0.000 HD
ATOM     39  H   UNL     1      -7.847  13.165  20.658  0.00  0.00    +0.000 HD
BRANCH  35  40
ATOM     40  C   UNL     1      -5.760  11.850  19.033  0.00  0.00    +0.000 C 
ATOM     41  N   UNL     1      -5.980  11.435  17.975  0.00  0.00    +0.000 NA
ENDBRANCH  35  40
ENDBRANCH  26  28
ENDBRANCH  24  26
ENDBRANCH   2  24
TORSDOF 6
ENDMDL
MODEL 5
REMARK VINA RESULT:      -6.7      3.504      7.060
REMARK  Name = 
REMARK  8 active torsions:
REMARK  status: ('A' for Active; 'I' for Inactive)
REMARK    1  A    between atoms: C_1  and  C_2
REMARK    2  A    between atoms: C_4  and  N_5
REMARK    3  A    between atoms: C_8  and  N_9
REMARK    4  A    between atoms: C_10  and  C_11
REMARK    5  A    between atoms: C_11  and  C_12
REMARK    6  A    between atoms: C_11  and  N_13
REMARK    7  A    between atoms: N_13  and  C_14
REMARK    8  A    between atoms: C_21  and  C_22
REMARK                            x       y       z     vdW  Elec       q    Type
REMARK                         _______ _______ _______ _____ _____    ______ ____
ROOT
ATOM      1  N   UNL     1      -3.208  13.444  20.815  0.00  0.00    +0.000 N 
ATOM      2  C   UNL     1      -2.628  12.632  19.826  0.00  0.00    +0.000 A 
ATOM      3  N   UNL     1      -3.385  12.080  18.912  0.00  0.00    +0.000 NA
ATOM      4  C   UNL     1      -4.796  12.320  18.893  0.00  0.00    +0.000 A 
ATOM      5  C   UNL     1      -5.615  11.810  17.857  0.00  0.00    +0.000 A 
ATOM      6 CL   UNL     1      -4.967  10.807  16.609  0.00  0.00    +0.000 Cl
ATOM      7  C   UNL     1      -6.995  12.084  17.790  0.00  0.00    +0.000 A 
ATOM      8  C   UNL     1      -7.600  12.867  18.768  0.00  0.00    +0.000 A 
ATOM      9  C   UNL     1      -6.833  13.360  19.818  0.00  0.00    +0.000 A 
ATOM     10 CL   UNL     1      -7.704  14.348  20.944  0.00  0.00    +0.000 Cl
ATOM     11  C   UNL     1      -5.441  13.078  19.880  0.00  0.00    +0.000 A 
ATOM     12  C   UNL     1      -4.594  13.561  20.975  0.00  0.00    +0.000 A 
ATOM     13  O   UNL     1      -5.115  14.040  21.982  0.00  0.00    +0.000 OA
ENDROOT
BRANCH   1  20
ATOM     14  C   UNL     1      -2.552  11.989  23.321  0.00  0.00    +0.000 C 
ATOM     15  C   UNL     1      -2.206  13.428  23.069  0.00  0.00    +0.000 A 
ATOM     16  C   UNL     1      -1.540  14.170  24.054  0.00  0.00    +0.000 A 
ATOM     17  C   UNL     1      -1.121  15.465  23.773  0.00  0.00    +0.000 A 
ATOM     18  N   UNL     1      -1.194  16.006  22.555  0.00  0.00    +0.000 NA
ATOM     19  C   UNL     1      -1.840  15.293  21.610  0.00  0.00    +0.000 A 
ATOM     20  C   UNL     1      -2.438  14.052  21.839  0.00  0.00    +0.000 A 
BRANCH  17  21
ATOM     21  N   UNL     1      -0.714  16.328  24.781  0.00  0.00    +0.000 N 
ATOM     22  H   UNL     1      -1.251  17.187  24.808  0.00  0.00    +0.000 HD
ATOM     23  H   UNL     1      -0.777  15.798  25.649  0.00  0.00    +0.000 HD
ENDBRANCH  17  21
ENDBRANCH   1  20
BRANCH   2  24
ATOM     24  C   UNL     1      -1.027  12.334  19.880  0.00  0.00    +0.000 C 
ATOM     25  C   UNL     1      -0.115  13.259  19.059  0.00  0.00    +0.000 C 
BRANCH  24  26
ATOM     26  N   UNL     1      -0.710  10.975  19.385  0.00  0.00    +0.000 N 
ATOM     27  H   UNL     1      -0.157  11.003  18.529  0.00  0.00    +0.000 HD
BRANCH  26  28
ATOM     28  C   UNL     1      -0.044  10.132  20.271  0.00  0.00    +0.000 A 
ATOM     29  N   UNL     1      -0.409  10.114  21.565  0.00  0.00    +0.000 NA
ATOM     30  C   UNL     1       0.199   9.244  22.354  0.00  0.00    +0.000 A 
ATOM     31  N   UNL     1       0.089   9.416  23.714  0.00  0.00    +0.000 N 
ATOM     32  N   UNL     1       0.982   8.259  21.917  0.00  0.00    +0.000 NA
ATOM     33  C   UNL     1       1.352   8.314  20.625  0.00  0.00    +0.000 A 
ATOM     34  N   UNL     1       2.099   7.226  20.185  0.00  0.00    +0.000 N 
ATOM     35  C   UNL     1       1.023   9.374  19.828  0.00  0.00    +0.000 A 
ATOM     36  H   UNL     1      -0.161  10.362  23.952  0.00  0.00    +0.000 HD
ATOM     37  H   UNL     1       0.845   8.977  24.218  0.00  0.00    +0.000 HD
ATOM     38  H   UNL     1       2.063   6.527  20.928  0.00  0.00    +0.000 HD
ATOM     39  H   UNL     1       1.736   6.846  19.315  0.00  0.00    +0.000 HD
BRANCH  35  40
ATOM     40  C   UNL     1       1.737   9.721  18.637  0.00  0.00    +0.000 C 
ATOM     41  N   UNL     1       2.193  10.037  17.621  0.00  0.00    +0.000 NA
ENDBRANCH  35  40
ENDBRANCH  26  28
ENDBRANCH  24  26
ENDBRANCH   2  24
TORSDOF 6
ENDMDL
MODEL 6
REMARK VINA RESULT:      -6.7      1.478      2.651
REMARK  Name = 
REMARK  8 active torsions:
REMARK  status: ('A' for Active; 'I' for Inactive)
REMARK    1  A    between atoms: C_1  and  C_2
REMARK    2  A    between atoms: C_4  and  N_5
REMARK    3  A    between atoms: C_8  and  N_9
REMARK    4  A    between atoms: C_10  and  C_11
REMARK    5  A    between atoms: C_11  and  C_12
REMARK    6  A    between atoms: C_11  and  N_13
REMARK    7  A    between atoms: N_13  and  C_14
REMARK    8  A    between atoms: C_21  and  C_22
REMARK                            x       y       z     vdW  Elec       q    Type
REMARK                         _______ _______ _______ _____ _____    ______ ____
ROOT
ATOM      1  N   UNL     1       0.216  13.065  20.374  0.00  0.00    +0.000 N 
ATOM      2  C   UNL     1      -0.924  13.649  19.796  0.00  0.00    +0.000 A 
ATOM      3  N   UNL     1      -0.830  14.816  19.210  0.00  0.00    +0.000 NA
ATOM      4  C   UNL     1       0.430  15.489  19.126  0.00  0.00    +0.000 A 
ATOM      5  C   UNL     1       0.568  16.705  18.413  0.00  0.00    +0.000 A 
ATOM      6 CL   UNL     1      -0.792  17.476  17.677  0.00  0.00    +0.000 Cl
ATOM      7  C   UNL     1       1.810  17.353  18.271  0.00  0.00    +0.000 A 
ATOM      8  C   UNL     1       2.951  16.809  18.851  0.00  0.00    +0.000 A 
ATOM      9  C   UNL     1       2.849  15.632  19.585  0.00  0.00    +0.000 A 
ATOM     10 CL   UNL     1       4.351  15.047  20.221  0.00  0.00    +0.000 Cl
ATOM     11  C   UNL     1       1.592  14.985  19.726  0.00  0.00    +0.000 A 
ATOM     12  C   UNL     1       1.430  13.752  20.503  0.00  0.00    +0.000 A 
ATOM     13  O   UNL     1       2.343  13.369  21.234  0.00  0.00    +0.000 OA
ENDROOT
BRANCH   1  20
ATOM     14  C   UNL     1       1.155  10.580  19.045  0.00  0.00    +0.000 C 
ATOM     15  C   UNL     1       0.505  10.616  20.397  0.00  0.00    +0.000 A 
ATOM     16  C   UNL     1       0.301   9.425  21.107  0.00  0.00    +0.000 A 
ATOM     17  C   UNL     1      -0.196   9.473  22.404  0.00  0.00    +0.000 A 
ATOM     18  N   UNL     1      -0.365  10.614  23.076  0.00  0.00    +0.000 NA
ATOM     19  C   UNL     1      -0.174  11.760  22.390  0.00  0.00    +0.000 A 
ATOM     20  C   UNL     1       0.168  11.813  21.037  0.00  0.00    +0.000 A 
BRANCH  17  21
ATOM     21  N   UNL     1      -0.671   8.336  23.040  0.00  0.00    +0.000 N 
ATOM     22  H   UNL     1      -0.667   8.416  24.050  0.00  0.00    +0.000 HD
ATOM     23  H   UNL     1      -1.603   8.170  22.663  0.00  0.00    +0.000 HD
ENDBRANCH  17  21
ENDBRANCH   1  20
BRANCH   2  24
ATOM     24  C   UNL     1      -2.360  12.891  19.932  0.00  0.00    +0.000 C 
ATOM     25  C   UNL     1      -2.835  12.072  18.723  0.00  0.00    +0.000 C 
BRANCH  24  26
ATOM     26  N   UNL     1      -3.460  13.852  20.177  0.00  0.00    +0.000 N 
ATOM     27  H   UNL     1      -4.000  14.033  19.332  0.00  0.00    +0.000 HD
BRANCH  26  28
ATOM     28  C   UNL     1      -4.369  13.512  21.175  0.00  0.00    +0.000 A 
ATOM     29  N   UNL     1      -5.566  13.005  20.834  0.00  0.00    +0.000 NA
ATOM     30  C   UNL     1      -6.366  12.626  21.816  0.00  0.00    +0.000 A 
ATOM     31  N   UNL     1      -7.693  12.413  21.525  0.00  0.00    +0.000 N 
ATOM     32  N   UNL     1      -5.989  12.518  23.089  0.00  0.00    +0.000 NA
ATOM     33  C   UNL     1      -4.798  13.056  23.409  0.00  0.00    +0.000 A 
ATOM     34  N   UNL     1      -4.401  12.850  24.727  0.00  0.00    +0.000 N 
ATOM     35  C   UNL     1      -4.058  13.758  22.499  0.00  0.00    +0.000 A 
ATOM     36  H   UNL     1      -7.971  12.884  20.679  0.00  0.00    +0.000 HD
ATOM     37  H   UNL     1      -8.283  12.499  22.339  0.00  0.00    +0.000 HD
ATOM     38  H   UNL     1      -5.054  12.177  25.128  0.00  0.00    +0.000 HD
ATOM     39  H   UNL     1      -3.446  12.505  24.783  0.00  0.00    +0.000 HD
BRANCH  35  40
ATOM     40  C   UNL     1      -3.057  14.714  22.863  0.00  0.00    +0.000 C 
ATOM     41  N   UNL     1      -2.204  15.479  23.026  0.00  0.00    +0.000 NA
ENDBRANCH  35  40
ENDBRANCH  26  28
ENDBRANCH  24  26
ENDBRANCH   2  24
TORSDOF 6
ENDMDL
MODEL 7
REMARK VINA RESULT:      -6.6      3.153      6.766
REMARK  Name = 
REMARK  8 active torsions:
REMARK  status: ('A' for Active; 'I' for Inactive)
REMARK    1  A    between atoms: C_1  and  C_2
REMARK    2  A    between atoms: C_4  and  N_5
REMARK    3  A    between atoms: C_8  and  N_9
REMARK    4  A    between atoms: C_10  and  C_11
REMARK    5  A    between atoms: C_11  and  C_12
REMARK    6  A    between atoms: C_11  and  N_13
REMARK    7  A    between atoms: N_13  and  C_14
REMARK    8  A    between atoms: C_21  and  C_22
REMARK                            x       y       z     vdW  Elec       q    Type
REMARK                         _______ _______ _______ _____ _____    ______ ____
ROOT
ATOM      1  N   UNL     1      -2.350  13.964  20.948  0.00  0.00    +0.000 N 
ATOM      2  C   UNL     1      -2.363  12.888  20.044  0.00  0.00    +0.000 A 
ATOM      3  N   UNL     1      -3.494  12.294  19.759  0.00  0.00    +0.000 NA
ATOM      4  C   UNL     1      -4.722  12.748  20.337  0.00  0.00    +0.000 A 
ATOM      5  C   UNL     1      -5.964  12.179  19.966  0.00  0.00    +0.000 A 
ATOM      6 CL   UNL     1      -6.053  10.856  18.859  0.00  0.00    +0.000 Cl
ATOM      7  C   UNL     1      -7.187  12.651  20.480  0.00  0.00    +0.000 A 
ATOM      8  C   UNL     1      -7.203  13.701  21.393  0.00  0.00    +0.000 A 
ATOM      9  C   UNL     1      -6.000  14.264  21.805  0.00  0.00    +0.000 A 
ATOM     10 CL   UNL     1      -6.165  15.584  22.916  0.00  0.00    +0.000 Cl
ATOM     11  C   UNL     1      -4.769  13.781  21.284  0.00  0.00    +0.000 A 
ATOM     12  C   UNL     1      -3.474  14.331  21.698  0.00  0.00    +0.000 A 
ATOM     13  O   UNL     1      -3.415  15.078  22.674  0.00  0.00    +0.000 OA
ENDROOT
BRANCH   1  20
ATOM     14  C   UNL     1      -1.644  16.601  19.776  0.00  0.00    +0.000 C 
ATOM     15  C   UNL     1      -0.747  15.821  20.693  0.00  0.00    +0.000 A 
ATOM     16  C   UNL     1       0.514  16.328  21.035  0.00  0.00    +0.000 A 
ATOM     17  C   UNL     1       1.293  15.659  21.972  0.00  0.00    +0.000 A 
ATOM     18  N   UNL     1       0.847  14.619  22.680  0.00  0.00    +0.000 NA
ATOM     19  C   UNL     1      -0.364  14.129  22.345  0.00  0.00    +0.000 A 
ATOM     20  C   UNL     1      -1.152  14.632  21.308  0.00  0.00    +0.000 A 
BRANCH  17  21
ATOM     21  N   UNL     1       2.638  15.956  22.139  0.00  0.00    +0.000 N 
ATOM     22  H   UNL     1       3.194  15.745  21.319  0.00  0.00    +0.000 HD
ATOM     23  H   UNL     1       2.679  16.940  22.399  0.00  0.00    +0.000 HD
ENDBRANCH  17  21
ENDBRANCH   1  20
BRANCH   2  24
ATOM     24  C   UNL     1      -0.955  12.355  19.423  0.00  0.00    +0.000 C 
ATOM     25  C   UNL     1      -0.538  12.914  18.055  0.00  0.00    +0.000 C 
BRANCH  24  26
ATOM     26  N   UNL     1      -0.968  10.887  19.229  0.00  0.00    +0.000 N 
ATOM     27  H   UNL     1      -0.623  10.623  18.308  0.00  0.00    +0.000 HD
BRANCH  26  28
ATOM     28  C   UNL     1      -0.259  10.132  20.160  0.00  0.00    +0.000 A 
ATOM     29  N   UNL     1      -0.659  10.121  21.443  0.00  0.00    +0.000 NA
ATOM     30  C   UNL     1      -0.003   9.332  22.276  0.00  0.00    +0.000 A 
ATOM     31  N   UNL     1      -0.167   9.534  23.626  0.00  0.00    +0.000 N 
ATOM     32  N   UNL     1       0.876   8.406  21.893  0.00  0.00    +0.000 NA
ATOM     33  C   UNL     1       1.278   8.455  20.611  0.00  0.00    +0.000 A 
ATOM     34  N   UNL     1       2.130   7.424  20.227  0.00  0.00    +0.000 N 
ATOM     35  C   UNL     1       0.883   9.458  19.771  0.00  0.00    +0.000 A 
ATOM     36  H   UNL     1      -0.506  10.461  23.827  0.00  0.00    +0.000 HD
ATOM     37  H   UNL     1       0.609   9.177  24.165  0.00  0.00    +0.000 HD
ATOM     38  H   UNL     1       2.133   6.746  20.991  0.00  0.00    +0.000 HD
ATOM     39  H   UNL     1       1.828   6.988  19.360  0.00  0.00    +0.000 HD
BRANCH  35  40
ATOM     40  C   UNL     1       1.600   9.830  18.589  0.00  0.00    +0.000 C 
ATOM     41  N   UNL     1       2.086  10.058  17.564  0.00  0.00    +0.000 NA
ENDBRANCH  35  40
ENDBRANCH  26  28
ENDBRANCH  24  26
ENDBRANCH   2  24
TORSDOF 6
ENDMDL
MODEL 8
REMARK VINA RESULT:      -6.6      3.370      6.973
REMARK  Name = 
REMARK  8 active torsions:
REMARK  status: ('A' for Active; 'I' for Inactive)
REMARK    1  A    between atoms: C_1  and  C_2
REMARK    2  A    between atoms: C_4  and  N_5
REMARK    3  A    between atoms: C_8  and  N_9
REMARK    4  A    between atoms: C_10  and  C_11
REMARK    5  A    between atoms: C_11  and  C_12
REMARK    6  A    between atoms: C_11  and  N_13
REMARK    7  A    between atoms: N_13  and  C_14
REMARK    8  A    between atoms: C_21  and  C_22
REMARK                            x       y       z     vdW  Elec       q    Type
REMARK                         _______ _______ _______ _____ _____    ______ ____
ROOT
ATOM      1  N   UNL     1      -2.860  13.849  20.780  0.00  0.00    +0.000 N 
ATOM      2  C   UNL     1      -2.694  12.744  19.929  0.00  0.00    +0.000 A 
ATOM      3  N   UNL     1      -3.741  12.059  19.542  0.00  0.00    +0.000 NA
ATOM      4  C   UNL     1      -5.056  12.444  19.955  0.00  0.00    +0.000 A 
ATOM      5  C   UNL     1      -6.205  11.774  19.468  0.00  0.00    +0.000 A 
ATOM      6 CL   UNL     1      -6.073  10.408  18.418  0.00  0.00    +0.000 Cl
ATOM      7  C   UNL     1      -7.509  12.175  19.817  0.00  0.00    +0.000 A 
ATOM      8  C   UNL     1      -7.703  13.253  20.675  0.00  0.00    +0.000 A 
ATOM      9  C   UNL     1      -6.597  13.916  21.197  0.00  0.00    +0.000 A 
ATOM     10 CL   UNL     1      -6.982  15.260  22.221  0.00  0.00    +0.000 Cl
ATOM     11  C   UNL     1      -5.284  13.505  20.843  0.00  0.00    +0.000 A 
ATOM     12  C   UNL     1      -4.087  14.162  21.379  0.00  0.00    +0.000 A 
ATOM     13  O   UNL     1      -4.194  14.946  22.321  0.00  0.00    +0.000 OA
ENDROOT
BRANCH   1  20
ATOM     14  C   UNL     1      -1.311  13.028  23.179  0.00  0.00    +0.000 C 
ATOM     15  C   UNL     1      -1.084  14.309  22.429  0.00  0.00    +0.000 A 
ATOM     16  C   UNL     1      -0.096  15.205  22.859  0.00  0.00    +0.000 A 
ATOM     17  C   UNL     1       0.188  16.333  22.098  0.00  0.00    +0.000 A 
ATOM     18  N   UNL     1      -0.337  16.546  20.890  0.00  0.00    +0.000 NA
ATOM     19  C   UNL     1      -1.293  15.686  20.480  0.00  0.00    +0.000 A 
ATOM     20  C   UNL     1      -1.761  14.616  21.245  0.00  0.00    +0.000 A 
BRANCH  17  21
ATOM     21  N   UNL     1       0.945  17.378  22.608  0.00  0.00    +0.000 N 
ATOM     22  H   UNL     1       0.548  18.288  22.408  0.00  0.00    +0.000 HD
ATOM     23  H   UNL     1       1.036  17.199  23.607  0.00  0.00    +0.000 HD
ENDBRANCH  17  21
ENDBRANCH   1  20
BRANCH   2  24
ATOM     24  C   UNL     1      -1.189  12.292  19.499  0.00  0.00    +0.000 C 
ATOM     25  C   UNL     1      -0.614  12.909  18.215  0.00  0.00    +0.000 C 
BRANCH  24  26
ATOM     26  N   UNL     1      -1.106  10.831  19.270  0.00  0.00    +0.000 N 
ATOM     27  H   UNL     1      -0.747  10.612  18.343  0.00  0.00    +0.000 HD
BRANCH  26  28
ATOM     28  C   UNL     1      -0.345  10.104  20.182  0.00  0.00    +0.000 A 
ATOM     29  N   UNL     1      -0.707  10.084  21.477  0.00  0.00    +0.000 NA
ATOM     30  C   UNL     1      -0.001   9.320  22.292  0.00  0.00    +0.000 A 
ATOM     31  N   UNL     1      -0.132   9.522  23.646  0.00  0.00    +0.000 N 
ATOM     32  N   UNL     1       0.896   8.422  21.887  0.00  0.00    +0.000 NA
ATOM     33  C   UNL     1       1.259   8.479  20.593  0.00  0.00    +0.000 A 
ATOM     34  N   UNL     1       2.133   7.475  20.187  0.00  0.00    +0.000 N 
ATOM     35  C   UNL     1       0.806   9.465  19.762  0.00  0.00    +0.000 A 
ATOM     36  H   UNL     1      -0.494  10.439  23.854  0.00  0.00    +0.000 HD
ATOM     37  H   UNL     1       0.671   9.194  24.163  0.00  0.00    +0.000 HD
ATOM     38  H   UNL     1       2.180   6.801  20.952  0.00  0.00    +0.000 HD
ATOM     39  H   UNL     1       1.819   7.026  19.330  0.00  0.00    +0.000 HD
BRANCH  35  40
ATOM     40  C   UNL     1       1.475   9.856  18.558  0.00  0.00    +0.000 C 
ATOM     41  N   UNL     1       2.132  10.129  17.645  0.00  0.00    +0.000 NA
ENDBRANCH  35  40
ENDBRANCH  26  28
ENDBRANCH  24  26
ENDBRANCH   2  24
TORSDOF 6
ENDMDL
MODEL 9
REMARK VINA RESULT:      -6.5      1.799      2.417
REMARK  Name = 
REMARK  8 active torsions:
REMARK  status: ('A' for Active; 'I' for Inactive)
REMARK    1  A    between atoms: C_1  and  C_2
REMARK    2  A    between atoms: C_4  and  N_5
REMARK    3  A    between atoms: C_8  and  N_9
REMARK    4  A    between atoms: C_10  and  C_11
REMARK    5  A    between atoms: C_11  and  C_12
REMARK    6  A    between atoms: C_11  and  N_13
REMARK    7  A    between atoms: N_13  and  C_14
REMARK    8  A    between atoms: C_21  and  C_22
REMARK                            x       y       z     vdW  Elec       q    Type
REMARK                         _______ _______ _______ _____ _____    ______ ____
ROOT
ATOM      1  N   UNL     1       0.189  13.113  20.356  0.00  0.00    +0.000 N 
ATOM      2  C   UNL     1      -0.971  13.767  19.907  0.00  0.00    +0.000 A 
ATOM      3  N   UNL     1      -0.872  14.932  19.317  0.00  0.00    +0.000 NA
ATOM      4  C   UNL     1       0.409  15.531  19.099  0.00  0.00    +0.000 A 
ATOM      5  C   UNL     1       0.540  16.743  18.377  0.00  0.00    +0.000 A 
ATOM      6 CL   UNL     1      -0.844  17.599  17.796  0.00  0.00    +0.000 Cl
ATOM      7  C   UNL     1       1.795  17.318  18.103  0.00  0.00    +0.000 A 
ATOM      8  C   UNL     1       2.959  16.703  18.554  0.00  0.00    +0.000 A 
ATOM      9  C   UNL     1       2.868  15.528  19.292  0.00  0.00    +0.000 A 
ATOM     10 CL   UNL     1       4.393  14.851  19.759  0.00  0.00    +0.000 Cl
ATOM     11  C   UNL     1       1.597  14.955  19.568  0.00  0.00    +0.000 A 
ATOM     12  C   UNL     1       1.448  13.726  20.354  0.00  0.00    +0.000 A 
ATOM     13  O   UNL     1       2.410  13.284  20.980  0.00  0.00    +0.000 OA
ENDROOT
BRANCH   1  20
ATOM     14  C   UNL     1       1.045  10.616  18.993  0.00  0.00    +0.000 C 
ATOM     15  C   UNL     1       0.436  10.658  20.365  0.00  0.00    +0.000 A 
ATOM     16  C   UNL     1       0.233   9.469  21.077  0.00  0.00    +0.000 A 
ATOM     17  C   UNL     1      -0.224   9.523  22.389  0.00  0.00    +0.000 A 
ATOM     18  N   UNL     1      -0.353  10.664  23.068  0.00  0.00    +0.000 NA
ATOM     19  C   UNL     1      -0.163  11.808  22.379  0.00  0.00    +0.000 A 
ATOM     20  C   UNL     1       0.139  11.859  21.017  0.00  0.00    +0.000 A 
BRANCH  17  21
ATOM     21  N   UNL     1      -0.700   8.391  23.036  0.00  0.00    +0.000 N 
ATOM     22  H   UNL     1       0.034   7.848  23.474  0.00  0.00    +0.000 HD
ATOM     23  H   UNL     1      -1.397   8.720  23.702  0.00  0.00    +0.000 HD
ENDBRANCH  17  21
ENDBRANCH   1  20
BRANCH   2  24
ATOM     24  C   UNL     1      -2.426  13.093  20.196  0.00  0.00    +0.000 C 
ATOM     25  C   UNL     1      -3.033  12.233  19.077  0.00  0.00    +0.000 C 
BRANCH  24  26
ATOM     26  N   UNL     1      -3.456  14.122  20.466  0.00  0.00    +0.000 N 
ATOM     27  H   UNL     1      -4.358  13.870  20.064  0.00  0.00    +0.000 HD
BRANCH  26  28
ATOM     28  C   UNL     1      -3.682  14.437  21.803  0.00  0.00    +0.000 A 
ATOM     29  N   UNL     1      -2.744  15.114  22.489  0.00  0.00    +0.000 NA
ATOM     30  C   UNL     1      -3.032  15.457  23.732  0.00  0.00    +0.000 A 
ATOM     31  N   UNL     1      -2.001  15.853  24.552  0.00  0.00    +0.000 N 
ATOM     32  N   UNL     1      -4.247  15.365  24.271  0.00  0.00    +0.000 NA
ATOM     33  C   UNL     1      -5.160  14.662  23.577  0.00  0.00    +0.000 A 
ATOM     34  N   UNL     1      -6.437  14.658  24.129  0.00  0.00    +0.000 N 
ATOM     35  C   UNL     1      -4.833  13.997  22.428  0.00  0.00    +0.000 A 
ATOM     36  H   UNL     1      -1.110  15.523  24.217  0.00  0.00    +0.000 HD
ATOM     37  H   UNL     1      -2.221  15.735  25.530  0.00  0.00    +0.000 HD
ATOM     38  H   UNL     1      -6.433  15.347  24.882  0.00  0.00    +0.000 HD
ATOM     39  H   UNL     1      -7.147  14.884  23.438  0.00  0.00    +0.000 HD
BRANCH  35  40
ATOM     40  C   UNL     1      -5.587  12.897  21.909  0.00  0.00    +0.000 C 
ATOM     41  N   UNL     1      -6.082  11.971  21.422  0.00  0.00    +0.000 NA
ENDBRANCH  35  40
ENDBRANCH  26  28
ENDBRANCH  24  26
ENDBRANCH   2  24
TORSDOF 6
ENDMDL
