MODEL 1
REMARK VINA RESULT:      -6.8      0.000      0.000
REMARK  Name = 
REMARK  6 active torsions:
REMARK  status: ('A' for Active; 'I' for Inactive)
REMARK    1  A    between atoms: C_1  and  O_2
REMARK    2  A    between atoms: O_2  and  C_3
REMARK    3  A    between atoms: C_6  and  N_7
REMARK    4  A    between atoms: C_8  and  C_10
REMARK    5  A    between atoms: C_18  and  C_19
REMARK    6  A    between atoms: C_19  and  O_20
REMARK                            x       y       z     vdW  Elec       q    Type
REMARK                         _______ _______ _______ _____ _____    ______ ____
ROOT
ATOM      1  C   UNL     1       4.610   4.577  16.766  0.00  0.00    +0.000 A 
ATOM      2  C   UNL     1       4.953   5.926  16.703  0.00  0.00    +0.000 A 
ATOM      3  C   UNL     1       4.225   6.875  17.414  0.00  0.00    +0.000 A 
ATOM      4  C   UNL     1       3.127   6.512  18.191  0.00  0.00    +0.000 A 
ATOM      5  C   UNL     1       2.728   5.168  18.187  0.00  0.00    +0.000 A 
ATOM      6  C   UNL     1       3.456   4.190  17.465  0.00  0.00    +0.000 A 
ENDROOT
BRANCH   4   7
ATOM      7  N   UNL     1       2.397   7.445  18.963  0.00  0.00    +0.000 N 
ATOM      8  C   UNL     1       1.886   8.655  18.507  0.00  0.00    +0.000 C 
ATOM      9  O   UNL     1       2.037   9.132  17.385  0.00  0.00    +0.000 OA
ATOM     10  H   UNL     1       2.242   7.246  19.947  0.00  0.00    +0.000 HD
BRANCH   8  11
ATOM     11  C   UNL     1       1.077   9.428  19.492  0.00  0.00    +0.000 A 
ATOM     12  C   UNL     1       0.886   8.882  20.762  0.00  0.00    +0.000 A 
ATOM     13  C   UNL     1       0.201   9.628  21.718  0.00  0.00    +0.000 A 
ATOM     14  C   UNL     1      -0.272  10.883  21.369  0.00  0.00    +0.000 A 
ATOM     15 BR   UNL     1      -1.164  11.945  22.646  0.00  0.00    +0.000 Br
ATOM     16  C   UNL     1      -0.059  11.344  20.073  0.00  0.00    +0.000 A 
ATOM     17  N   UNL     1       0.609  10.650  19.114  0.00  0.00    +0.000 NA
ENDBRANCH   8  11
ENDBRANCH   4   7
BRANCH   1  19
ATOM     18  C   UNL     1       6.211   4.072  15.116  0.00  0.00    +0.000 C 
ATOM     19  O   UNL     1       5.357   3.600  16.160  0.00  0.00    +0.000 OA
ENDBRANCH   1  19
BRANCH   6  20
ATOM     20  C   UNL     1       2.970   2.764  17.466  0.00  0.00    +0.000 C 
BRANCH  20  21
ATOM     21  O   UNL     1       3.966   1.906  18.005  0.00  0.00    +0.000 OA
ATOM     22  H   UNL     1       3.992   2.096  18.959  0.00  0.00    +0.000 HD
ENDBRANCH  20  21
ENDBRANCH   6  20
TORSDOF 5
ENDMDL
MODEL 2
REMARK VINA RESULT:      -6.5      1.820      2.753
REMARK  Name = 
REMARK  6 active torsions:
REMARK  status: ('A' for Active; 'I' for Inactive)
REMARK    1  A    between atoms: C_1  and  O_2
REMARK    2  A    between atoms: O_2  and  C_3
REMARK    3  A    between atoms: C_6  and  N_7
REMARK    4  A    between atoms: C_8  and  C_10
REMARK    5  A    between atoms: C_18  and  C_19
REMARK    6  A    between atoms: C_19  and  O_20
REMARK                            x       y       z     vdW  Elec       q    Type
REMARK                         _______ _______ _______ _____ _____    ______ ____
ROOT
ATOM      1  C   UNL     1       3.091   3.512  19.464  0.00  0.00    +0.000 A 
ATOM      2  C   UNL     1       1.931   3.489  20.235  0.00  0.00    +0.000 A 
ATOM      3  C   UNL     1       1.386   4.671  20.728  0.00  0.00    +0.000 A 
ATOM      4  C   UNL     1       1.989   5.903  20.483  0.00  0.00    +0.000 A 
ATOM      5  C   UNL     1       3.202   5.920  19.781  0.00  0.00    +0.000 A 
ATOM      6  C   UNL     1       3.772   4.725  19.276  0.00  0.00    +0.000 A 
ENDROOT
BRANCH   4   7
ATOM      7  N   UNL     1       1.434   7.125  20.928  0.00  0.00    +0.000 N 
ATOM      8  C   UNL     1       1.353   8.300  20.189  0.00  0.00    +0.000 C 
ATOM      9  O   UNL     1       1.802   8.480  19.060  0.00  0.00    +0.000 OA
ATOM     10  H   UNL     1       1.078   7.180  21.878  0.00  0.00    +0.000 HD
BRANCH   8  11
ATOM     11  C   UNL     1       0.645   9.433  20.848  0.00  0.00    +0.000 A 
ATOM     12  C   UNL     1       0.044   9.204  22.087  0.00  0.00    +0.000 A 
ATOM     13  C   UNL     1      -0.551  10.272  22.753  0.00  0.00    +0.000 A 
ATOM     14  C   UNL     1      -0.530  11.523  22.156  0.00  0.00    +0.000 A 
ATOM     15 BR   UNL     1      -1.284  13.006  23.044  0.00  0.00    +0.000 Br
ATOM     16  C   UNL     1       0.070  11.661  20.908  0.00  0.00    +0.000 A 
ATOM     17  N   UNL     1       0.666  10.646  20.229  0.00  0.00    +0.000 NA
ENDBRANCH   8  11
ENDBRANCH   4   7
BRANCH   1  19
ATOM     18  C   UNL     1       2.883   1.926  17.735  0.00  0.00    +0.000 C 
ATOM     19  O   UNL     1       3.607   2.384  18.879  0.00  0.00    +0.000 OA
ENDBRANCH   1  19
BRANCH   6  20
ATOM     20  C   UNL     1       5.093   4.789  18.556  0.00  0.00    +0.000 C 
BRANCH  20  21
ATOM     21  O   UNL     1       5.977   3.796  19.060  0.00  0.00    +0.000 OA
ATOM     22  H   UNL     1       6.867   4.188  19.021  0.00  0.00    +0.000 HD
ENDBRANCH  20  21
ENDBRANCH   6  20
TORSDOF 5
ENDMDL
MODEL 3
REMARK VINA RESULT:      -6.3      0.853      1.215
REMARK  Name = 
REMARK  6 active torsions:
REMARK  status: ('A' for Active; 'I' for Inactive)
REMARK    1  A    between atoms: C_1  and  O_2
REMARK    2  A    between atoms: O_2  and  C_3
REMARK    3  A    between atoms: C_6  and  N_7
REMARK    4  A    between atoms: C_8  and  C_10
REMARK    5  A    between atoms: C_18  and  C_19
REMARK    6  A    between atoms: C_19  and  O_20
REMARK                            x       y       z     vdW  Elec       q    Type
REMARK                         _______ _______ _______ _____ _____    ______ ____
ROOT
ATOM      1  C   UNL     1       4.768   4.698  16.644  0.00  0.00    +0.000 A 
ATOM      2  C   UNL     1       5.001   6.063  16.490  0.00  0.00    +0.000 A 
ATOM      3  C   UNL     1       4.296   6.991  17.250  0.00  0.00    +0.000 A 
ATOM      4  C   UNL     1       3.329   6.589  18.170  0.00  0.00    +0.000 A 
ATOM      5  C   UNL     1       3.032   5.222  18.264  0.00  0.00    +0.000 A 
ATOM      6  C   UNL     1       3.738   4.265  17.494  0.00  0.00    +0.000 A 
ENDROOT
BRANCH   4   7
ATOM      7  N   UNL     1       2.632   7.504  18.991  0.00  0.00    +0.000 N 
ATOM      8  C   UNL     1       1.864   8.575  18.547  0.00  0.00    +0.000 C 
ATOM      9  O   UNL     1       1.720   8.932  17.380  0.00  0.00    +0.000 OA
ATOM     10  H   UNL     1       2.703   7.404  20.000  0.00  0.00    +0.000 HD
BRANCH   8  11
ATOM     11  C   UNL     1       1.155   9.348  19.607  0.00  0.00    +0.000 A 
ATOM     12  C   UNL     1       0.615  10.589  19.268  0.00  0.00    +0.000 A 
ATOM     13  C   UNL     1      -0.119  11.286  20.224  0.00  0.00    +0.000 A 
ATOM     14  C   UNL     1      -0.280  10.722  21.480  0.00  0.00    +0.000 A 
ATOM     15 BR   UNL     1      -1.305  11.610  22.790  0.00  0.00    +0.000 Br
ATOM     16  C   UNL     1       0.311   9.490  21.744  0.00  0.00    +0.000 A 
ATOM     17  N   UNL     1       1.030   8.776  20.837  0.00  0.00    +0.000 NA
ENDBRANCH   8  11
ENDBRANCH   4   7
BRANCH   1  19
ATOM     18  C   UNL     1       5.897   4.116  14.662  0.00  0.00    +0.000 C 
ATOM     19  O   UNL     1       5.506   3.748  15.986  0.00  0.00    +0.000 OA
ENDBRANCH   1  19
BRANCH   6  20
ATOM     20  C   UNL     1       3.362   2.811  17.607  0.00  0.00    +0.000 C 
BRANCH  20  21
ATOM     21  O   UNL     1       1.948   2.667  17.591  0.00  0.00    +0.000 OA
ATOM     22  H   UNL     1       1.611   3.408  17.057  0.00  0.00    +0.000 HD
ENDBRANCH  20  21
ENDBRANCH   6  20
TORSDOF 5
ENDMDL
MODEL 4
REMARK VINA RESULT:      -6.3      1.341      2.238
REMARK  Name = 
REMARK  6 active torsions:
REMARK  status: ('A' for Active; 'I' for Inactive)
REMARK    1  A    between atoms: C_1  and  O_2
REMARK    2  A    between atoms: O_2  and  C_3
REMARK    3  A    between atoms: C_6  and  N_7
REMARK    4  A    between atoms: C_8  and  C_10
REMARK    5  A    between atoms: C_18  and  C_19
REMARK    6  A    between atoms: C_19  and  O_20
REMARK                            x       y       z     vdW  Elec       q    Type
REMARK                         _______ _______ _______ _____ _____    ______ ____
ROOT
ATOM      1  C   UNL     1       5.345   4.543  16.518  0.00  0.00    +0.000 A 
ATOM      2  C   UNL     1       4.048   4.146  16.832  0.00  0.00    +0.000 A 
ATOM      3  C   UNL     1       3.240   4.942  17.639  0.00  0.00    +0.000 A 
ATOM      4  C   UNL     1       3.707   6.143  18.170  0.00  0.00    +0.000 A 
ATOM      5  C   UNL     1       5.040   6.501  17.926  0.00  0.00    +0.000 A 
ATOM      6  C   UNL     1       5.875   5.700  17.109  0.00  0.00    +0.000 A 
ENDROOT
BRANCH   4   7
ATOM      7  N   UNL     1       2.896   6.996  18.953  0.00  0.00    +0.000 N 
ATOM      8  C   UNL     1       2.254   8.145  18.504  0.00  0.00    +0.000 C 
ATOM      9  O   UNL     1       2.336   8.632  17.379  0.00  0.00    +0.000 OA
ATOM     10  H   UNL     1       2.778   6.785  19.939  0.00  0.00    +0.000 HD
BRANCH   8  11
ATOM     11  C   UNL     1       1.384   8.832  19.501  0.00  0.00    +0.000 A 
ATOM     12  C   UNL     1       1.323   8.309  20.793  0.00  0.00    +0.000 A 
ATOM     13  C   UNL     1       0.578   8.986  21.757  0.00  0.00    +0.000 A 
ATOM     14  C   UNL     1      -0.080  10.150  21.393  0.00  0.00    +0.000 A 
ATOM     15 BR   UNL     1      -1.061  11.121  22.676  0.00  0.00    +0.000 Br
ATOM     16  C   UNL     1       0.014  10.590  20.076  0.00  0.00    +0.000 A 
ATOM     17  N   UNL     1       0.734   9.963  19.108  0.00  0.00    +0.000 NA
ENDBRANCH   8  11
ENDBRANCH   4   7
BRANCH   1  19
ATOM     18  C   UNL     1       5.865   4.080  14.268  0.00  0.00    +0.000 C 
ATOM     19  O   UNL     1       6.139   3.838  15.650  0.00  0.00    +0.000 OA
ENDBRANCH   1  19
BRANCH   6  20
ATOM     20  C   UNL     1       7.310   6.110  16.902  0.00  0.00    +0.000 C 
BRANCH  20  21
ATOM     21  O   UNL     1       7.838   6.672  18.096  0.00  0.00    +0.000 OA
ATOM     22  H   UNL     1       7.299   7.461  18.279  0.00  0.00    +0.000 HD
ENDBRANCH  20  21
ENDBRANCH   6  20
TORSDOF 5
ENDMDL
MODEL 5
REMARK VINA RESULT:      -6.3      1.397      2.508
REMARK  Name = 
REMARK  6 active torsions:
REMARK  status: ('A' for Active; 'I' for Inactive)
REMARK    1  A    between atoms: C_1  and  O_2
REMARK    2  A    between atoms: O_2  and  C_3
REMARK    3  A    between atoms: C_6  and  N_7
REMARK    4  A    between atoms: C_8  and  C_10
REMARK    5  A    between atoms: C_18  and  C_19
REMARK    6  A    between atoms: C_19  and  O_20
REMARK                            x       y       z     vdW  Elec       q    Type
REMARK                         _______ _______ _______ _____ _____    ______ ____
ROOT
ATOM      1  C   UNL     1       5.107   4.386  16.413  0.00  0.00    +0.000 A 
ATOM      2  C   UNL     1       3.824   4.035  16.825  0.00  0.00    +0.000 A 
ATOM      3  C   UNL     1       3.105   4.863  17.683  0.00  0.00    +0.000 A 
ATOM      4  C   UNL     1       3.650   6.050  18.168  0.00  0.00    +0.000 A 
ATOM      5  C   UNL     1       4.972   6.362  17.824  0.00  0.00    +0.000 A 
ATOM      6  C   UNL     1       5.719   5.528  16.955  0.00  0.00    +0.000 A 
ENDROOT
BRANCH   4   7
ATOM      7  N   UNL     1       2.928   6.935  19.001  0.00  0.00    +0.000 N 
ATOM      8  C   UNL     1       2.247   8.073  18.582  0.00  0.00    +0.000 C 
ATOM      9  O   UNL     1       2.213   8.521  17.439  0.00  0.00    +0.000 OA
ATOM     10  H   UNL     1       2.912   6.758  20.001  0.00  0.00    +0.000 HD
BRANCH   8  11
ATOM     11  C   UNL     1       1.487   8.799  19.640  0.00  0.00    +0.000 A 
ATOM     12  C   UNL     1       0.742   9.919  19.265  0.00  0.00    +0.000 A 
ATOM     13  C   UNL     1      -0.036  10.560  20.226  0.00  0.00    +0.000 A 
ATOM     14  C   UNL     1      -0.035  10.065  21.521  0.00  0.00    +0.000 A 
ATOM     15 BR   UNL     1      -1.109  10.874  22.842  0.00  0.00    +0.000 Br
ATOM     16  C   UNL     1       0.754   8.958  21.816  0.00  0.00    +0.000 A 
ATOM     17  N   UNL     1       1.523   8.301  20.907  0.00  0.00    +0.000 NA
ENDBRANCH   8  11
ENDBRANCH   4   7
BRANCH   1  19
ATOM     18  C   UNL     1       5.671   4.097  14.146  0.00  0.00    +0.000 C 
ATOM     19  O   UNL     1       5.812   3.650  15.496  0.00  0.00    +0.000 OA
ENDBRANCH   1  19
BRANCH   6  20
ATOM     20  C   UNL     1       7.147   5.888  16.640  0.00  0.00    +0.000 C 
BRANCH  20  21
ATOM     21  O   UNL     1       7.359   7.279  16.839  0.00  0.00    +0.000 OA
ATOM     22  H   UNL     1       7.092   7.710  16.008  0.00  0.00    +0.000 HD
ENDBRANCH  20  21
ENDBRANCH   6  20
TORSDOF 5
ENDMDL
MODEL 6
REMARK VINA RESULT:      -6.3      1.261      1.298
REMARK  Name = 
REMARK  6 active torsions:
REMARK  status: ('A' for Active; 'I' for Inactive)
REMARK    1  A    between atoms: C_1  and  O_2
REMARK    2  A    between atoms: O_2  and  C_3
REMARK    3  A    between atoms: C_6  and  N_7
REMARK    4  A    between atoms: C_8  and  C_10
REMARK    5  A    between atoms: C_18  and  C_19
REMARK    6  A    between atoms: C_19  and  O_20
REMARK                            x       y       z     vdW  Elec       q    Type
REMARK                         _______ _______ _______ _____ _____    ______ ____
ROOT
ATOM      1  C   UNL     1       4.666   4.989  16.814  0.00  0.00    +0.000 A 
ATOM      2  C   UNL     1       4.947   6.352  16.748  0.00  0.00    +0.000 A 
ATOM      3  C   UNL     1       4.145   7.272  17.417  0.00  0.00    +0.000 A 
ATOM      4  C   UNL     1       3.034   6.864  18.153  0.00  0.00    +0.000 A 
ATOM      5  C   UNL     1       2.700   5.503  18.149  0.00  0.00    +0.000 A 
ATOM      6  C   UNL     1       3.504   4.554  17.470  0.00  0.00    +0.000 A 
ENDROOT
BRANCH   4   7
ATOM      7  N   UNL     1       2.229   7.769  18.882  0.00  0.00    +0.000 N 
ATOM      8  C   UNL     1       1.725   7.560  20.161  0.00  0.00    +0.000 C 
ATOM      9  O   UNL     1       1.847   6.539  20.833  0.00  0.00    +0.000 OA
ATOM     10  H   UNL     1       1.963   8.645  18.444  0.00  0.00    +0.000 HD
BRANCH   8  11
ATOM     11  C   UNL     1       0.971   8.701  20.755  0.00  0.00    +0.000 A 
ATOM     12  C   UNL     1       0.512   8.577  22.067  0.00  0.00    +0.000 A 
ATOM     13  C   UNL     1      -0.123   9.664  22.662  0.00  0.00    +0.000 A 
ATOM     14  C   UNL     1      -0.281  10.827  21.926  0.00  0.00    +0.000 A 
ATOM     15 BR   UNL     1      -1.094  12.337  22.707  0.00  0.00    +0.000 Br
ATOM     16  C   UNL     1       0.185  10.860  20.615  0.00  0.00    +0.000 A 
ATOM     17  N   UNL     1       0.814   9.823  19.999  0.00  0.00    +0.000 NA
ENDBRANCH   8  11
ENDBRANCH   4   7
BRANCH   1  19
ATOM     18  C   UNL     1       6.873   4.376  16.269  0.00  0.00    +0.000 C 
ATOM     19  O   UNL     1       5.483   4.043  16.251  0.00  0.00    +0.000 OA
ENDBRANCH   1  19
BRANCH   6  20
ATOM     20  C   UNL     1       3.087   3.106  17.467  0.00  0.00    +0.000 C 
BRANCH  20  21
ATOM     21  O   UNL     1       4.113   2.299  18.029  0.00  0.00    +0.000 OA
ATOM     22  H   UNL     1       4.917   2.496  17.516  0.00  0.00    +0.000 HD
ENDBRANCH  20  21
ENDBRANCH   6  20
TORSDOF 5
ENDMDL
MODEL 7
REMARK VINA RESULT:      -6.3      1.377      1.618
REMARK  Name = 
REMARK  6 active torsions:
REMARK  status: ('A' for Active; 'I' for Inactive)
REMARK    1  A    between atoms: C_1  and  O_2
REMARK    2  A    between atoms: O_2  and  C_3
REMARK    3  A    between atoms: C_6  and  N_7
REMARK    4  A    between atoms: C_8  and  C_10
REMARK    5  A    between atoms: C_18  and  C_19
REMARK    6  A    between atoms: C_19  and  O_20
REMARK                            x       y       z     vdW  Elec       q    Type
REMARK                         _______ _______ _______ _____ _____    ______ ____
ROOT
ATOM      1  C   UNL     1       4.596   4.700  16.736  0.00  0.00    +0.000 A 
ATOM      2  C   UNL     1       4.953   6.045  16.672  0.00  0.00    +0.000 A 
ATOM      3  C   UNL     1       4.211   7.007  17.352  0.00  0.00    +0.000 A 
ATOM      4  C   UNL     1       3.085   6.659  18.096  0.00  0.00    +0.000 A 
ATOM      5  C   UNL     1       2.675   5.319  18.091  0.00  0.00    +0.000 A 
ATOM      6  C   UNL     1       3.417   4.329  17.401  0.00  0.00    +0.000 A 
ENDROOT
BRANCH   4   7
ATOM      7  N   UNL     1       2.340   7.605  18.836  0.00  0.00    +0.000 N 
ATOM      8  C   UNL     1       1.869   7.436  20.134  0.00  0.00    +0.000 C 
ATOM      9  O   UNL     1       1.974   6.421  20.818  0.00  0.00    +0.000 OA
ATOM     10  H   UNL     1       2.092   8.485  18.392  0.00  0.00    +0.000 HD
BRANCH   8  11
ATOM     11  C   UNL     1       1.179   8.614  20.732  0.00  0.00    +0.000 A 
ATOM     12  C   UNL     1       0.722   9.615  19.875  0.00  0.00    +0.000 A 
ATOM     13  C   UNL     1       0.005  10.683  20.410  0.00  0.00    +0.000 A 
ATOM     14  C   UNL     1      -0.221  10.713  21.777  0.00  0.00    +0.000 A 
ATOM     15 BR   UNL     1      -1.225  12.115  22.538  0.00  0.00    +0.000 Br
ATOM     16  C   UNL     1       0.290   9.686  22.565  0.00  0.00    +0.000 A 
ATOM     17  N   UNL     1       0.989   8.625  22.081  0.00  0.00    +0.000 NA
ENDBRANCH   8  11
ENDBRANCH   4   7
BRANCH   1  19
ATOM     18  C   UNL     1       6.250   4.167  15.147  0.00  0.00    +0.000 C 
ATOM     19  O   UNL     1       5.354   3.711  16.162  0.00  0.00    +0.000 OA
ENDBRANCH   1  19
BRANCH   6  20
ATOM     20  C   UNL     1       2.919   2.907  17.398  0.00  0.00    +0.000 C 
BRANCH  20  21
ATOM     21  O   UNL     1       3.905   2.040  17.940  0.00  0.00    +0.000 OA
ATOM     22  H   UNL     1       3.566   1.762  18.809  0.00  0.00    +0.000 HD
ENDBRANCH  20  21
ENDBRANCH   6  20
TORSDOF 5
ENDMDL
MODEL 8
REMARK VINA RESULT:      -6.3      1.858      2.815
REMARK  Name = 
REMARK  6 active torsions:
REMARK  status: ('A' for Active; 'I' for Inactive)
REMARK    1  A    between atoms: C_1  and  O_2
REMARK    2  A    between atoms: O_2  and  C_3
REMARK    3  A    between atoms: C_6  and  N_7
REMARK    4  A    between atoms: C_8  and  C_10
REMARK    5  A    between atoms: C_18  and  C_19
REMARK    6  A    between atoms: C_19  and  O_20
REMARK                            x       y       z     vdW  Elec       q    Type
REMARK                         _______ _______ _______ _____ _____    ______ ____
ROOT
ATOM      1  C   UNL     1       3.225   3.542  18.835  0.00  0.00    +0.000 A 
ATOM      2  C   UNL     1       2.010   3.468  19.511  0.00  0.00    +0.000 A 
ATOM      3  C   UNL     1       1.480   4.591  20.139  0.00  0.00    +0.000 A 
ATOM      4  C   UNL     1       2.154   5.811  20.129  0.00  0.00    +0.000 A 
ATOM      5  C   UNL     1       3.418   5.865  19.525  0.00  0.00    +0.000 A 
ATOM      6  C   UNL     1       3.971   4.730  18.884  0.00  0.00    +0.000 A 
ENDROOT
BRANCH   4   7
ATOM      7  N   UNL     1       1.621   6.981  20.716  0.00  0.00    +0.000 N 
ATOM      8  C   UNL     1       1.485   8.216  20.092  0.00  0.00    +0.000 C 
ATOM      9  O   UNL     1       1.860   8.502  18.957  0.00  0.00    +0.000 OA
ATOM     10  H   UNL     1       1.326   6.947  21.688  0.00  0.00    +0.000 HD
BRANCH   8  11
ATOM     11  C   UNL     1       0.814   9.278  20.894  0.00  0.00    +0.000 A 
ATOM     12  C   UNL     1       0.603  10.522  20.297  0.00  0.00    +0.000 A 
ATOM     13  C   UNL     1      -0.094  11.497  21.005  0.00  0.00    +0.000 A 
ATOM     14  C   UNL     1      -0.547  11.198  22.280  0.00  0.00    +0.000 A 
ATOM     15 BR   UNL     1      -1.535  12.473  23.255  0.00  0.00    +0.000 Br
ATOM     16  C   UNL     1      -0.275   9.941  22.811  0.00  0.00    +0.000 A 
ATOM     17  N   UNL     1       0.397   8.960  22.151  0.00  0.00    +0.000 NA
ENDBRANCH   8  11
ENDBRANCH   4   7
BRANCH   1  19
ATOM     18  C   UNL     1       3.648   1.226  18.790  0.00  0.00    +0.000 C 
ATOM     19  O   UNL     1       3.735   2.487  18.122  0.00  0.00    +0.000 OA
ENDBRANCH   1  19
BRANCH   6  20
ATOM     20  C   UNL     1       5.347   4.828  18.276  0.00  0.00    +0.000 C 
BRANCH  20  21
ATOM     21  O   UNL     1       6.195   3.823  18.815  0.00  0.00    +0.000 OA
ATOM     22  H   UNL     1       7.047   4.260  18.990  0.00  0.00    +0.000 HD
ENDBRANCH  20  21
ENDBRANCH   6  20
TORSDOF 5
ENDMDL
MODEL 9
REMARK VINA RESULT:      -6.2      1.120      1.408
REMARK  Name = 
REMARK  6 active torsions:
REMARK  status: ('A' for Active; 'I' for Inactive)
REMARK    1  A    between atoms: C_1  and  O_2
REMARK    2  A    between atoms: O_2  and  C_3
REMARK    3  A    between atoms: C_6  and  N_7
REMARK    4  A    between atoms: C_8  and  C_10
REMARK    5  A    between atoms: C_18  and  C_19
REMARK    6  A    between atoms: C_19  and  O_20
REMARK                            x       y       z     vdW  Elec       q    Type
REMARK                         _______ _______ _______ _____ _____    ______ ____
ROOT
ATOM      1  C   UNL     1       4.713   4.927  17.380  0.00  0.00    +0.000 A 
ATOM      2  C   UNL     1       4.628   6.211  16.848  0.00  0.00    +0.000 A 
ATOM      3  C   UNL     1       3.823   7.174  17.450  0.00  0.00    +0.000 A 
ATOM      4  C   UNL     1       3.067   6.880  18.584  0.00  0.00    +0.000 A 
ATOM      5  C   UNL     1       3.085   5.565  19.069  0.00  0.00    +0.000 A 
ATOM      6  C   UNL     1       3.896   4.573  18.466  0.00  0.00    +0.000 A 
ENDROOT
BRANCH   4   7
ATOM      7  N   UNL     1       2.278   7.848  19.246  0.00  0.00    +0.000 N 
ATOM      8  C   UNL     1       1.657   8.939  18.647  0.00  0.00    +0.000 C 
ATOM      9  O   UNL     1       1.743   9.268  17.467  0.00  0.00    +0.000 OA
ATOM     10  H   UNL     1       2.161   7.775  20.252  0.00  0.00    +0.000 HD
BRANCH   8  11
ATOM     11  C   UNL     1       0.807   9.773  19.544  0.00  0.00    +0.000 A 
ATOM     12  C   UNL     1      -0.201  10.545  18.966  0.00  0.00    +0.000 A 
ATOM     13  C   UNL     1      -1.055  11.267  19.797  0.00  0.00    +0.000 A 
ATOM     14  C   UNL     1      -0.866  11.195  21.168  0.00  0.00    +0.000 A 
ATOM     15 BR   UNL     1      -2.027  12.118  22.331  0.00  0.00    +0.000 Br
ATOM     16  C   UNL     1       0.178  10.419  21.662  0.00  0.00    +0.000 A 
ATOM     17  N   UNL     1       1.029   9.697  20.886  0.00  0.00    +0.000 NA
ENDBRANCH   8  11
ENDBRANCH   4   7
BRANCH   1  19
ATOM     18  C   UNL     1       6.892   4.449  16.626  0.00  0.00    +0.000 C 
ATOM     19  O   UNL     1       5.566   3.978  16.877  0.00  0.00    +0.000 OA
ENDBRANCH   1  19
BRANCH   6  20
ATOM     20  C   UNL     1       3.857   3.166  19.003  0.00  0.00    +0.000 C 
BRANCH  20  21
ATOM     21  O   UNL     1       5.149   2.774  19.448  0.00  0.00    +0.000 OA
ATOM     22  H   UNL     1       5.149   2.905  20.412  0.00  0.00    +0.000 HD
ENDBRANCH  20  21
ENDBRANCH   6  20
TORSDOF 5
ENDMDL
