MODEL 1
REMARK VINA RESULT:      -7.1      0.000      0.000
REMARK  Name = 
REMARK  3 active torsions:
REMARK  status: ('A' for Active; 'I' for Inactive)
REMARK    1  A    between atoms: N_1  and  C_2
REMARK    2  A    between atoms: C_2  and  C_3
REMARK    3  A    between atoms: C_8  and  C_9
REMARK                            x       y       z     vdW  Elec       q    Type
REMARK                         _______ _______ _______ _____ _____    ______ ____
ROOT
ATOM      1  C   UNL     1       6.082   5.171  17.751  0.00  0.00    +0.000 A 
ATOM      2  C   UNL     1       7.226   5.722  17.131  0.00  0.00    +0.000 A 
ATOM      3  N   UNL     1       7.423   5.609  15.797  0.00  0.00    +0.000 NA
ATOM      4  C   UNL     1       6.534   4.973  15.003  0.00  0.00    +0.000 A 
ATOM      5  C   UNL     1       5.373   4.426  15.545  0.00  0.00    +0.000 A 
ATOM      6  C   UNL     1       5.105   4.513  16.930  0.00  0.00    +0.000 A 
ENDROOT
BRANCH   6   7
ATOM      7  C   UNL     1       3.803   3.936  17.451  0.00  0.00    +0.000 A 
ATOM      8  C   UNL     1       3.653   2.544  17.660  0.00  0.00    +0.000 A 
ATOM      9  C   UNL     1       2.463   2.005  18.161  0.00  0.00    +0.000 A 
ATOM     10  C   UNL     1       1.395   2.834  18.472  0.00  0.00    +0.000 A 
ATOM     11  C   UNL     1       1.512   4.213  18.290  0.00  0.00    +0.000 A 
ATOM     12  C   UNL     1       2.698   4.765  17.790  0.00  0.00    +0.000 A 
ATOM     13  F   UNL     1       2.729   6.108  17.607  0.00  0.00    +0.000 F 
ENDBRANCH   6   7
BRANCH   1  14
ATOM     14  C   UNL     1       5.997   5.238  19.265  0.00  0.00    +0.000 C 
BRANCH  14  15
ATOM     15  N   UNL     1       7.325   5.433  19.850  0.00  0.00    +0.000 NA
ATOM     16  H   UNL     1       7.427   6.411  20.200  0.00  0.00    +0.000 HD
ATOM     17  H   UNL     1       8.046   5.274  19.106  0.00  0.00    +0.000 HD
ENDBRANCH  14  15
ENDBRANCH   1  14
TORSDOF 3
ENDMDL
MODEL 2
REMARK VINA RESULT:      -6.9      1.321      1.810
REMARK  Name = 
REMARK  3 active torsions:
REMARK  status: ('A' for Active; 'I' for Inactive)
REMARK    1  A    between atoms: N_1  and  C_2
REMARK    2  A    between atoms: C_2  and  C_3
REMARK    3  A    between atoms: C_8  and  C_9
REMARK                            x       y       z     vdW  Elec       q    Type
REMARK                         _______ _______ _______ _____ _____    ______ ____
ROOT
ATOM      1  C   UNL     1       6.107   4.841  17.797  0.00  0.00    +0.000 A 
ATOM      2  C   UNL     1       7.329   5.172  17.169  0.00  0.00    +0.000 A 
ATOM      3  N   UNL     1       7.551   4.877  15.868  0.00  0.00    +0.000 NA
ATOM      4  C   UNL     1       6.614   4.260  15.113  0.00  0.00    +0.000 A 
ATOM      5  C   UNL     1       5.379   3.926  15.662  0.00  0.00    +0.000 A 
ATOM      6  C   UNL     1       5.081   4.211  17.014  0.00  0.00    +0.000 A 
ENDROOT
BRANCH   6   7
ATOM      7  C   UNL     1       3.702   3.862  17.539  0.00  0.00    +0.000 A 
ATOM      8  C   UNL     1       2.727   4.865  17.755  0.00  0.00    +0.000 A 
ATOM      9  C   UNL     1       1.445   4.550  18.217  0.00  0.00    +0.000 A 
ATOM     10  C   UNL     1       1.095   3.232  18.471  0.00  0.00    +0.000 A 
ATOM     11  C   UNL     1       2.028   2.214  18.257  0.00  0.00    +0.000 A 
ATOM     12  C   UNL     1       3.315   2.517  17.793  0.00  0.00    +0.000 A 
ATOM     13  F   UNL     1       4.178   1.483  17.640  0.00  0.00    +0.000 F 
ENDBRANCH   6   7
BRANCH   1  14
ATOM     14  C   UNL     1       5.985   5.100  19.288  0.00  0.00    +0.000 C 
BRANCH  14  15
ATOM     15  N   UNL     1       7.297   5.379  19.874  0.00  0.00    +0.000 NA
ATOM     16  H   UNL     1       7.410   6.404  20.039  0.00  0.00    +0.000 HD
ATOM     17  H   UNL     1       8.038   5.072  19.199  0.00  0.00    +0.000 HD
ENDBRANCH  14  15
ENDBRANCH   1  14
TORSDOF 3
ENDMDL
MODEL 3
REMARK VINA RESULT:      -6.5      2.611      4.764
REMARK  Name = 
REMARK  3 active torsions:
REMARK  status: ('A' for Active; 'I' for Inactive)
REMARK    1  A    between atoms: N_1  and  C_2
REMARK    2  A    between atoms: C_2  and  C_3
REMARK    3  A    between atoms: C_8  and  C_9
REMARK                            x       y       z     vdW  Elec       q    Type
REMARK                         _______ _______ _______ _____ _____    ______ ____
ROOT
ATOM      1  C   UNL     1       2.738   5.351  18.439  0.00  0.00    +0.000 A 
ATOM      2  C   UNL     1       1.574   4.557  18.325  0.00  0.00    +0.000 A 
ATOM      3  N   UNL     1       1.620   3.323  17.773  0.00  0.00    +0.000 NA
ATOM      4  C   UNL     1       2.777   2.796  17.314  0.00  0.00    +0.000 A 
ATOM      5  C   UNL     1       3.965   3.515  17.416  0.00  0.00    +0.000 A 
ATOM      6  C   UNL     1       3.987   4.808  17.986  0.00  0.00    +0.000 A 
ENDROOT
BRANCH   6   7
ATOM      7  C   UNL     1       5.321   5.520  18.107  0.00  0.00    +0.000 A 
ATOM      8  C   UNL     1       6.253   5.160  19.110  0.00  0.00    +0.000 A 
ATOM      9  C   UNL     1       7.494   5.796  19.216  0.00  0.00    +0.000 A 
ATOM     10  C   UNL     1       7.845   6.800  18.327  0.00  0.00    +0.000 A 
ATOM     11  C   UNL     1       6.956   7.174  17.317  0.00  0.00    +0.000 A 
ATOM     12  C   UNL     1       5.710   6.544  17.200  0.00  0.00    +0.000 A 
ATOM     13  F   UNL     1       4.884   6.980  16.217  0.00  0.00    +0.000 F 
ENDBRANCH   6   7
BRANCH   1  14
ATOM     14  C   UNL     1       2.579   6.768  18.961  0.00  0.00    +0.000 C 
BRANCH  14  15
ATOM     15  N   UNL     1       2.467   6.772  20.420  0.00  0.00    +0.000 NA
ATOM     16  H   UNL     1       3.364   7.087  20.851  0.00  0.00    +0.000 HD
ATOM     17  H   UNL     1       2.272   5.795  20.745  0.00  0.00    +0.000 HD
ENDBRANCH  14  15
ENDBRANCH   1  14
TORSDOF 3
ENDMDL
MODEL 4
REMARK VINA RESULT:      -6.5      2.604      4.847
REMARK  Name = 
REMARK  3 active torsions:
REMARK  status: ('A' for Active; 'I' for Inactive)
REMARK    1  A    between atoms: N_1  and  C_2
REMARK    2  A    between atoms: C_2  and  C_3
REMARK    3  A    between atoms: C_8  and  C_9
REMARK                            x       y       z     vdW  Elec       q    Type
REMARK                         _______ _______ _______ _____ _____    ______ ____
ROOT
ATOM      1  C   UNL     1       3.272   3.475  19.550  0.00  0.00    +0.000 A 
ATOM      2  C   UNL     1       2.188   3.664  20.437  0.00  0.00    +0.000 A 
ATOM      3  N   UNL     1       1.692   4.898  20.683  0.00  0.00    +0.000 NA
ATOM      4  C   UNL     1       2.206   5.999  20.090  0.00  0.00    +0.000 A 
ATOM      5  C   UNL     1       3.260   5.883  19.188  0.00  0.00    +0.000 A 
ATOM      6  C   UNL     1       3.822   4.622  18.882  0.00  0.00    +0.000 A 
ENDROOT
BRANCH   6   7
ATOM      7  C   UNL     1       4.939   4.558  17.858  0.00  0.00    +0.000 A 
ATOM      8  C   UNL     1       4.673   4.229  16.508  0.00  0.00    +0.000 A 
ATOM      9  C   UNL     1       5.693   4.189  15.551  0.00  0.00    +0.000 A 
ATOM     10  C   UNL     1       7.001   4.482  15.909  0.00  0.00    +0.000 A 
ATOM     11  C   UNL     1       7.298   4.824  17.230  0.00  0.00    +0.000 A 
ATOM     12  C   UNL     1       6.285   4.868  18.197  0.00  0.00    +0.000 A 
ATOM     13  F   UNL     1       6.651   5.174  19.466  0.00  0.00    +0.000 F 
ENDBRANCH   6   7
BRANCH   1  14
ATOM     14  C   UNL     1       3.843   2.075  19.420  0.00  0.00    +0.000 C 
BRANCH  14  15
ATOM     15  N   UNL     1       5.059   1.935  20.224  0.00  0.00    +0.000 NA
ATOM     16  H   UNL     1       5.889   2.271  19.687  0.00  0.00    +0.000 HD
ATOM     17  H   UNL     1       5.199   0.921  20.446  0.00  0.00    +0.000 HD
ENDBRANCH  14  15
ENDBRANCH   1  14
TORSDOF 3
ENDMDL
MODEL 5
REMARK VINA RESULT:      -6.4      1.968      2.381
REMARK  Name = 
REMARK  3 active torsions:
REMARK  status: ('A' for Active; 'I' for Inactive)
REMARK    1  A    between atoms: N_1  and  C_2
REMARK    2  A    between atoms: C_2  and  C_3
REMARK    3  A    between atoms: C_8  and  C_9
REMARK                            x       y       z     vdW  Elec       q    Type
REMARK                         _______ _______ _______ _____ _____    ______ ____
ROOT
ATOM      1  C   UNL     1       6.460   5.020  18.213  0.00  0.00    +0.000 A 
ATOM      2  C   UNL     1       7.410   5.052  17.167  0.00  0.00    +0.000 A 
ATOM      3  N   UNL     1       7.145   4.496  15.963  0.00  0.00    +0.000 NA
ATOM      4  C   UNL     1       5.962   3.894  15.707  0.00  0.00    +0.000 A 
ATOM      5  C   UNL     1       4.972   3.846  16.685  0.00  0.00    +0.000 A 
ATOM      6  C   UNL     1       5.184   4.411  17.964  0.00  0.00    +0.000 A 
ENDROOT
BRANCH   6   7
ATOM      7  C   UNL     1       4.050   4.365  18.970  0.00  0.00    +0.000 A 
ATOM      8  C   UNL     1       3.187   5.472  19.149  0.00  0.00    +0.000 A 
ATOM      9  C   UNL     1       2.125   5.431  20.059  0.00  0.00    +0.000 A 
ATOM     10  C   UNL     1       1.888   4.288  20.808  0.00  0.00    +0.000 A 
ATOM     11  C   UNL     1       2.712   3.172  20.648  0.00  0.00    +0.000 A 
ATOM     12  C   UNL     1       3.778   3.201  19.740  0.00  0.00    +0.000 A 
ATOM     13  F   UNL     1       4.556   2.093  19.661  0.00  0.00    +0.000 F 
ENDBRANCH   6   7
BRANCH   1  14
ATOM     14  C   UNL     1       6.882   5.560  19.568  0.00  0.00    +0.000 C 
BRANCH  14  15
ATOM     15  N   UNL     1       8.310   5.334  19.793  0.00  0.00    +0.000 NA
ATOM     16  H   UNL     1       8.706   6.090  20.395  0.00  0.00    +0.000 HD
ATOM     17  H   UNL     1       8.804   5.359  18.869  0.00  0.00    +0.000 HD
ENDBRANCH  14  15
ENDBRANCH   1  14
TORSDOF 3
ENDMDL
MODEL 6
REMARK VINA RESULT:      -6.4      1.690      3.002
REMARK  Name = 
REMARK  3 active torsions:
REMARK  status: ('A' for Active; 'I' for Inactive)
REMARK    1  A    between atoms: N_1  and  C_2
REMARK    2  A    between atoms: C_2  and  C_3
REMARK    3  A    between atoms: C_8  and  C_9
REMARK                            x       y       z     vdW  Elec       q    Type
REMARK                         _______ _______ _______ _____ _____    ______ ____
ROOT
ATOM      1  C   UNL     1       5.895   4.393  16.879  0.00  0.00    +0.000 A 
ATOM      2  C   UNL     1       7.211   4.908  16.847  0.00  0.00    +0.000 A 
ATOM      3  N   UNL     1       7.761   5.492  17.936  0.00  0.00    +0.000 NA
ATOM      4  C   UNL     1       7.081   5.602  19.099  0.00  0.00    +0.000 A 
ATOM      5  C   UNL     1       5.789   5.095  19.208  0.00  0.00    +0.000 A 
ATOM      6  C   UNL     1       5.157   4.469  18.108  0.00  0.00    +0.000 A 
ENDROOT
BRANCH   6   7
ATOM      7  C   UNL     1       3.765   3.899  18.304  0.00  0.00    +0.000 A 
ATOM      8  C   UNL     1       2.626   4.560  17.788  0.00  0.00    +0.000 A 
ATOM      9  C   UNL     1       1.340   4.031  17.945  0.00  0.00    +0.000 A 
ATOM     10  C   UNL     1       1.154   2.829  18.611  0.00  0.00    +0.000 A 
ATOM     11  C   UNL     1       2.257   2.142  19.123  0.00  0.00    +0.000 A 
ATOM     12  C   UNL     1       3.549   2.662  18.972  0.00  0.00    +0.000 A 
ATOM     13  F   UNL     1       4.569   1.958  19.523  0.00  0.00    +0.000 F 
ENDBRANCH   6   7
BRANCH   1  14
ATOM     14  C   UNL     1       5.312   3.862  15.582  0.00  0.00    +0.000 C 
BRANCH  14  15
ATOM     15  N   UNL     1       6.369   3.632  14.595  0.00  0.00    +0.000 NA
ATOM     16  H   UNL     1       7.259   4.079  14.908  0.00  0.00    +0.000 HD
ATOM     17  H   UNL     1       6.082   4.072  13.688  0.00  0.00    +0.000 HD
ENDBRANCH  14  15
ENDBRANCH   1  14
TORSDOF 3
ENDMDL
MODEL 7
REMARK VINA RESULT:      -6.4      1.057      2.438
REMARK  Name = 
REMARK  3 active torsions:
REMARK  status: ('A' for Active; 'I' for Inactive)
REMARK    1  A    between atoms: N_1  and  C_2
REMARK    2  A    between atoms: C_2  and  C_3
REMARK    3  A    between atoms: C_8  and  C_9
REMARK                            x       y       z     vdW  Elec       q    Type
REMARK                         _______ _______ _______ _____ _____    ______ ____
ROOT
ATOM      1  C   UNL     1       5.898   4.468  16.725  0.00  0.00    +0.000 A 
ATOM      2  C   UNL     1       7.195   5.030  16.706  0.00  0.00    +0.000 A 
ATOM      3  N   UNL     1       7.741   5.567  17.821  0.00  0.00    +0.000 NA
ATOM      4  C   UNL     1       7.076   5.584  18.998  0.00  0.00    +0.000 A 
ATOM      5  C   UNL     1       5.803   5.026  19.092  0.00  0.00    +0.000 A 
ATOM      6  C   UNL     1       5.177   4.445  17.966  0.00  0.00    +0.000 A 
ENDROOT
BRANCH   6   7
ATOM      7  C   UNL     1       3.808   3.816  18.146  0.00  0.00    +0.000 A 
ATOM      8  C   UNL     1       3.673   2.454  18.507  0.00  0.00    +0.000 A 
ATOM      9  C   UNL     1       2.416   1.870  18.696  0.00  0.00    +0.000 A 
ATOM     10  C   UNL     1       1.262   2.624  18.539  0.00  0.00    +0.000 A 
ATOM     11  C   UNL     1       1.358   3.974  18.196  0.00  0.00    +0.000 A 
ATOM     12  C   UNL     1       2.611   4.571  18.004  0.00  0.00    +0.000 A 
ATOM     13  F   UNL     1       2.628   5.876  17.640  0.00  0.00    +0.000 F 
ENDBRANCH   6   7
BRANCH   1  14
ATOM     14  C   UNL     1       5.314   3.995  15.406  0.00  0.00    +0.000 C 
BRANCH  14  15
ATOM     15  N   UNL     1       6.379   3.674  14.454  0.00  0.00    +0.000 NA
ATOM     16  H   UNL     1       6.156   2.789  13.947  0.00  0.00    +0.000 HD
ATOM     17  H   UNL     1       7.271   3.533  14.984  0.00  0.00    +0.000 HD
ENDBRANCH  14  15
ENDBRANCH   1  14
TORSDOF 3
ENDMDL
MODEL 8
REMARK VINA RESULT:      -6.3      2.400      3.245
REMARK  Name = 
REMARK  3 active torsions:
REMARK  status: ('A' for Active; 'I' for Inactive)
REMARK    1  A    between atoms: N_1  and  C_2
REMARK    2  A    between atoms: C_2  and  C_3
REMARK    3  A    between atoms: C_8  and  C_9
REMARK                            x       y       z     vdW  Elec       q    Type
REMARK                         _______ _______ _______ _____ _____    ______ ____
ROOT
ATOM      1  C   UNL     1       4.232   5.439  17.757  0.00  0.00    +0.000 A 
ATOM      2  C   UNL     1       4.773   6.515  17.018  0.00  0.00    +0.000 A 
ATOM      3  N   UNL     1       4.182   7.732  17.017  0.00  0.00    +0.000 NA
ATOM      4  C   UNL     1       3.056   7.972  17.725  0.00  0.00    +0.000 A 
ATOM      5  C   UNL     1       2.481   6.962  18.493  0.00  0.00    +0.000 A 
ATOM      6  C   UNL     1       3.051   5.670  18.541  0.00  0.00    +0.000 A 
ENDROOT
BRANCH   6   7
ATOM      7  C   UNL     1       2.402   4.627  19.432  0.00  0.00    +0.000 A 
ATOM      8  C   UNL     1       2.752   4.515  20.798  0.00  0.00    +0.000 A 
ATOM      9  C   UNL     1       2.144   3.571  21.633  0.00  0.00    +0.000 A 
ATOM     10  C   UNL     1       1.167   2.721  21.135  0.00  0.00    +0.000 A 
ATOM     11  C   UNL     1       0.787   2.813  19.794  0.00  0.00    +0.000 A 
ATOM     12  C   UNL     1       1.389   3.754  18.948  0.00  0.00    +0.000 A 
ATOM     13  F   UNL     1       0.995   3.764  17.651  0.00  0.00    +0.000 F 
ENDBRANCH   6   7
BRANCH   1  14
ATOM     14  C   UNL     1       4.888   4.079  17.609  0.00  0.00    +0.000 C 
BRANCH  14  15
ATOM     15  N   UNL     1       5.939   3.899  18.612  0.00  0.00    +0.000 NA
ATOM     16  H   UNL     1       6.648   4.662  18.534  0.00  0.00    +0.000 HD
ATOM     17  H   UNL     1       6.420   2.985  18.435  0.00  0.00    +0.000 HD
ENDBRANCH  14  15
ENDBRANCH   1  14
TORSDOF 3
ENDMDL
MODEL 9
REMARK VINA RESULT:      -6.3      2.762      5.009
REMARK  Name = 
REMARK  3 active torsions:
REMARK  status: ('A' for Active; 'I' for Inactive)
REMARK    1  A    between atoms: N_1  and  C_2
REMARK    2  A    between atoms: C_2  and  C_3
REMARK    3  A    between atoms: C_8  and  C_9
REMARK                            x       y       z     vdW  Elec       q    Type
REMARK                         _______ _______ _______ _____ _____    ______ ____
ROOT
ATOM      1  C   UNL     1       3.667   2.923  20.005  0.00  0.00    +0.000 A 
ATOM      2  C   UNL     1       2.605   2.867  20.936  0.00  0.00    +0.000 A 
ATOM      3  N   UNL     1       1.874   3.967  21.232  0.00  0.00    +0.000 NA
ATOM      4  C   UNL     1       2.123   5.160  20.648  0.00  0.00    +0.000 A 
ATOM      5  C   UNL     1       3.140   5.281  19.704  0.00  0.00    +0.000 A 
ATOM      6  C   UNL     1       3.938   4.170  19.347  0.00  0.00    +0.000 A 
ENDROOT
BRANCH   6   7
ATOM      7  C   UNL     1       5.000   4.358  18.280  0.00  0.00    +0.000 A 
ATOM      8  C   UNL     1       6.300   4.806  18.615  0.00  0.00    +0.000 A 
ATOM      9  C   UNL     1       7.293   4.961  17.642  0.00  0.00    +0.000 A 
ATOM     10  C   UNL     1       7.023   4.670  16.313  0.00  0.00    +0.000 A 
ATOM     11  C   UNL     1       5.754   4.214  15.948  0.00  0.00    +0.000 A 
ATOM     12  C   UNL     1       4.752   4.054  16.913  0.00  0.00    +0.000 A 
ATOM     13  F   UNL     1       3.535   3.639  16.482  0.00  0.00    +0.000 F 
ENDBRANCH   6   7
BRANCH   1  14
ATOM     14  C   UNL     1       4.511   1.675  19.819  0.00  0.00    +0.000 C 
BRANCH  14  15
ATOM     15  N   UNL     1       4.098   0.946  18.619  0.00  0.00    +0.000 NA
ATOM     16  H   UNL     1       4.426  -0.044  18.667  0.00  0.00    +0.000 HD
ATOM     17  H   UNL     1       4.540   1.398  17.784  0.00  0.00    +0.000 HD
ENDBRANCH  14  15
ENDBRANCH   1  14
TORSDOF 3
ENDMDL
