MODEL 1
REMARK VINA RESULT:      -7.3      0.000      0.000
REMARK  Name = 
REMARK  3 active torsions:
REMARK  status: ('A' for Active; 'I' for Inactive)
REMARK    1  A    between atoms: C_1  and  C_2
REMARK    2  A    between atoms: N_5  and  C_6
REMARK    3  A    between atoms: C_19  and  C_20
REMARK                            x       y       z     vdW  Elec       q    Type
REMARK                         _______ _______ _______ _____ _____    ______ ____
ROOT
ATOM      1  C   UNL     1       2.189   6.326  19.006  0.00  0.00    +0.000 A 
ATOM      2  N   UNL     1       2.128   7.531  18.381  0.00  0.00    +0.000 NA
ATOM      3  C   UNL     1       1.696   8.576  19.121  0.00  0.00    +0.000 A 
ATOM      4  S   UNL     1       1.557  10.148  18.466  0.00  0.00    +0.000 S 
ATOM      5  C   UNL     1       1.001  10.804  19.952  0.00  0.00    +0.000 A 
ATOM      6  C   UNL     1       0.626  12.069  20.345  0.00  0.00    +0.000 A 
ATOM      7 CL   UNL     1       0.617  13.438  19.328  0.00  0.00    +0.000 Cl
ATOM      8  N   UNL     1       0.228  12.279  21.616  0.00  0.00    +0.000 NA
ATOM      9  N   UNL     1       0.196  11.293  22.476  0.00  0.00    +0.000 NA
ATOM     10  N   UNL     1       0.519  10.111  22.186  0.00  0.00    +0.000 NA
ATOM     11  C   UNL     1       0.927   9.825  20.927  0.00  0.00    +0.000 A 
ATOM     12  C   UNL     1       1.322   8.540  20.454  0.00  0.00    +0.000 A 
ATOM     13  C   UNL     1       1.406   7.300  21.097  0.00  0.00    +0.000 A 
ATOM     14  C   UNL     1       1.854   6.197  20.369  0.00  0.00    +0.000 A 
ENDROOT
BRANCH   1  19
ATOM     15  C   UNL     1       3.930   1.226  18.173  0.00  0.00    +0.000 C 
ATOM     16  C   UNL     1       3.576   2.614  17.638  0.00  0.00    +0.000 C 
ATOM     17  C   UNL     1       4.488   3.693  18.261  0.00  0.00    +0.000 C 
ATOM     18  C   UNL     1       4.046   5.119  17.894  0.00  0.00    +0.000 C 
ATOM     19  N   UNL     1       2.638   5.246  18.265  0.00  0.00    +0.000 N 
ATOM     20  C   UNL     1       1.742   4.357  17.526  0.00  0.00    +0.000 C 
ATOM     21  C   UNL     1       2.092   2.917  17.904  0.00  0.00    +0.000 C 
ENDBRANCH   1  19
BRANCH  14  22
ATOM     22  C   UNL     1       2.023   4.989  21.113  0.00  0.00    +0.000 C 
ATOM     23  N   UNL     1       2.211   3.991  21.679  0.00  0.00    +0.000 NA
ENDBRANCH  14  22
TORSDOF 2
ENDMDL
MODEL 2
REMARK VINA RESULT:      -7.2      2.502      3.366
REMARK  Name = 
REMARK  3 active torsions:
REMARK  status: ('A' for Active; 'I' for Inactive)
REMARK    1  A    between atoms: C_1  and  C_2
REMARK    2  A    between atoms: N_5  and  C_6
REMARK    3  A    between atoms: C_19  and  C_20
REMARK                            x       y       z     vdW  Elec       q    Type
REMARK                         _______ _______ _______ _____ _____    ______ ____
ROOT
ATOM      1  C   UNL     1       4.293   5.606  17.765  0.00  0.00    +0.000 A 
ATOM      2  N   UNL     1       3.843   6.828  17.377  0.00  0.00    +0.000 NA
ATOM      3  C   UNL     1       2.972   7.445  18.207  0.00  0.00    +0.000 A 
ATOM      4  S   UNL     1       2.313   8.979  17.843  0.00  0.00    +0.000 S 
ATOM      5  C   UNL     1       1.401   9.018  19.298  0.00  0.00    +0.000 A 
ATOM      6  C   UNL     1       0.534   9.938  19.845  0.00  0.00    +0.000 A 
ATOM      7 CL   UNL     1       0.108  11.422  19.118  0.00  0.00    +0.000 Cl
ATOM      8  N   UNL     1      -0.041   9.682  21.036  0.00  0.00    +0.000 NA
ATOM      9  N   UNL     1       0.217   8.569  21.675  0.00  0.00    +0.000 NA
ATOM     10  N   UNL     1       0.993   7.681  21.234  0.00  0.00    +0.000 NA
ATOM     11  C   UNL     1       1.606   7.870  20.041  0.00  0.00    +0.000 A 
ATOM     12  C   UNL     1       2.506   6.958  19.417  0.00  0.00    +0.000 A 
ATOM     13  C   UNL     1       2.989   5.709  19.820  0.00  0.00    +0.000 A 
ATOM     14  C   UNL     1       3.895   5.042  18.994  0.00  0.00    +0.000 A 
ENDROOT
BRANCH   1  19
ATOM     15  C   UNL     1       7.468   5.005  13.373  0.00  0.00    +0.000 C 
ATOM     16  C   UNL     1       6.904   4.469  14.689  0.00  0.00    +0.000 C 
ATOM     17  C   UNL     1       5.370   4.317  14.610  0.00  0.00    +0.000 C 
ATOM     18  C   UNL     1       4.744   3.960  15.969  0.00  0.00    +0.000 C 
ATOM     19  N   UNL     1       5.192   4.965  16.931  0.00  0.00    +0.000 N 
ATOM     20  C   UNL     1       6.638   4.974  17.157  0.00  0.00    +0.000 C 
ATOM     21  C   UNL     1       7.315   5.391  15.850  0.00  0.00    +0.000 C 
ENDBRANCH   1  19
BRANCH  14  22
ATOM     22  C   UNL     1       4.434   3.827  19.517  0.00  0.00    +0.000 C 
ATOM     23  N   UNL     1       4.814   2.824  19.967  0.00  0.00    +0.000 NA
ENDBRANCH  14  22
TORSDOF 2
ENDMDL
MODEL 3
REMARK VINA RESULT:      -6.8      1.266      1.804
REMARK  Name = 
REMARK  3 active torsions:
REMARK  status: ('A' for Active; 'I' for Inactive)
REMARK    1  A    between atoms: C_1  and  C_2
REMARK    2  A    between atoms: N_5  and  C_6
REMARK    3  A    between atoms: C_19  and  C_20
REMARK                            x       y       z     vdW  Elec       q    Type
REMARK                         _______ _______ _______ _____ _____    ______ ____
ROOT
ATOM      1  C   UNL     1       2.867   6.251  18.991  0.00  0.00    +0.000 A 
ATOM      2  N   UNL     1       2.833   7.434  18.325  0.00  0.00    +0.000 NA
ATOM      3  C   UNL     1       2.058   8.406  18.855  0.00  0.00    +0.000 A 
ATOM      4  S   UNL     1       1.909   9.941  18.120  0.00  0.00    +0.000 S 
ATOM      5  C   UNL     1       0.845  10.510  19.342  0.00  0.00    +0.000 A 
ATOM      6  C   UNL     1       0.199  11.708  19.549  0.00  0.00    +0.000 A 
ATOM      7 CL   UNL     1       0.309  13.061  18.517  0.00  0.00    +0.000 Cl
ATOM      8  N   UNL     1      -0.589  11.859  20.633  0.00  0.00    +0.000 NA
ATOM      9  N   UNL     1      -0.743  10.878  21.486  0.00  0.00    +0.000 NA
ATOM     10  N   UNL     1      -0.188   9.756  21.358  0.00  0.00    +0.000 NA
ATOM     11  C   UNL     1       0.616   9.532  20.293  0.00  0.00    +0.000 A 
ATOM     12  C   UNL     1       1.308   8.317  20.016  0.00  0.00    +0.000 A 
ATOM     13  C   UNL     1       1.364   7.102  20.708  0.00  0.00    +0.000 A 
ATOM     14  C   UNL     1       2.158   6.075  20.197  0.00  0.00    +0.000 A 
ENDROOT
BRANCH   1  19
ATOM     15  C   UNL     1       6.140   3.881  15.329  0.00  0.00    +0.000 C 
ATOM     16  C   UNL     1       5.382   3.842  16.657  0.00  0.00    +0.000 C 
ATOM     17  C   UNL     1       3.861   3.969  16.425  0.00  0.00    +0.000 C 
ATOM     18  C   UNL     1       3.077   4.122  17.740  0.00  0.00    +0.000 C 
ATOM     19  N   UNL     1       3.663   5.247  18.466  0.00  0.00    +0.000 N 
ATOM     20  C   UNL     1       5.056   5.042  18.863  0.00  0.00    +0.000 C 
ATOM     21  C   UNL     1       5.899   4.950  17.590  0.00  0.00    +0.000 C 
ENDBRANCH   1  19
BRANCH  14  22
ATOM     22  C   UNL     1       2.259   4.904  21.009  0.00  0.00    +0.000 C 
ATOM     23  N   UNL     1       2.292   3.926  21.636  0.00  0.00    +0.000 NA
ENDBRANCH  14  22
TORSDOF 2
ENDMDL
MODEL 4
REMARK VINA RESULT:      -6.7      2.881      7.410
REMARK  Name = 
REMARK  3 active torsions:
REMARK  status: ('A' for Active; 'I' for Inactive)
REMARK    1  A    between atoms: C_1  and  C_2
REMARK    2  A    between atoms: N_5  and  C_6
REMARK    3  A    between atoms: C_19  and  C_20
REMARK                            x       y       z     vdW  Elec       q    Type
REMARK                         _______ _______ _______ _____ _____    ______ ____
ROOT
ATOM      1  C   UNL     1       1.132   9.473  19.663  0.00  0.00    +0.000 A 
ATOM      2  N   UNL     1       1.859   9.074  18.587  0.00  0.00    +0.000 NA
ATOM      3  C   UNL     1       2.406   7.840  18.650  0.00  0.00    +0.000 A 
ATOM      4  S   UNL     1       3.356   7.208  17.377  0.00  0.00    +0.000 S 
ATOM      5  C   UNL     1       3.617   5.726  18.203  0.00  0.00    +0.000 A 
ATOM      6  C   UNL     1       4.313   4.580  17.889  0.00  0.00    +0.000 A 
ATOM      7 CL   UNL     1       5.187   4.340  16.444  0.00  0.00    +0.000 Cl
ATOM      8  N   UNL     1       4.331   3.554  18.763  0.00  0.00    +0.000 NA
ATOM      9  N   UNL     1       3.694   3.639  19.904  0.00  0.00    +0.000 NA
ATOM     10  N   UNL     1       3.043   4.655  20.259  0.00  0.00    +0.000 NA
ATOM     11  C   UNL     1       2.982   5.725  19.432  0.00  0.00    +0.000 A 
ATOM     12  C   UNL     1       2.287   6.941  19.697  0.00  0.00    +0.000 A 
ATOM     13  C   UNL     1       1.520   7.351  20.793  0.00  0.00    +0.000 A 
ATOM     14  C   UNL     1       0.932   8.617  20.764  0.00  0.00    +0.000 A 
ENDROOT
BRANCH   1  19
ATOM     15  C   UNL     1      -2.214  13.496  21.199  0.00  0.00    +0.000 C 
ATOM     16  C   UNL     1      -1.133  12.949  20.265  0.00  0.00    +0.000 C 
ATOM     17  C   UNL     1      -1.647  11.716  19.492  0.00  0.00    +0.000 C 
ATOM     18  C   UNL     1      -0.535  11.024  18.684  0.00  0.00    +0.000 C 
ATOM     19  N   UNL     1       0.557  10.732  19.611  0.00  0.00    +0.000 N 
ATOM     20  C   UNL     1       1.179  11.919  20.195  0.00  0.00    +0.000 C 
ATOM     21  C   UNL     1       0.135  12.616  21.069  0.00  0.00    +0.000 C 
ENDBRANCH   1  19
BRANCH  14  22
ATOM     22  C   UNL     1       0.072   8.927  21.861  0.00  0.00    +0.000 C 
ATOM     23  N   UNL     1      -0.610   9.243  22.749  0.00  0.00    +0.000 NA
ENDBRANCH  14  22
TORSDOF 2
ENDMDL
MODEL 5
REMARK VINA RESULT:      -6.7      2.678      7.637
REMARK  Name = 
REMARK  3 active torsions:
REMARK  status: ('A' for Active; 'I' for Inactive)
REMARK    1  A    between atoms: C_1  and  C_2
REMARK    2  A    between atoms: N_5  and  C_6
REMARK    3  A    between atoms: C_19  and  C_20
REMARK                            x       y       z     vdW  Elec       q    Type
REMARK                         _______ _______ _______ _____ _____    ______ ____
ROOT
ATOM      1  C   UNL     1       0.813  10.252  20.193  0.00  0.00    +0.000 A 
ATOM      2  N   UNL     1       1.435   9.746  19.097  0.00  0.00    +0.000 NA
ATOM      3  C   UNL     1       1.850   8.462  19.175  0.00  0.00    +0.000 A 
ATOM      4  S   UNL     1       2.658   7.695  17.878  0.00  0.00    +0.000 S 
ATOM      5  C   UNL     1       2.802   6.217  18.740  0.00  0.00    +0.000 A 
ATOM      6  C   UNL     1       3.353   4.994  18.431  0.00  0.00    +0.000 A 
ATOM      7 CL   UNL     1       4.120   4.620  16.954  0.00  0.00    +0.000 Cl
ATOM      8  N   UNL     1       3.308   3.997  19.337  0.00  0.00    +0.000 NA
ATOM      9  N   UNL     1       2.744   4.183  20.504  0.00  0.00    +0.000 NA
ATOM     10  N   UNL     1       2.225   5.274  20.857  0.00  0.00    +0.000 NA
ATOM     11  C   UNL     1       2.236   6.320  19.998  0.00  0.00    +0.000 A 
ATOM     12  C   UNL     1       1.690   7.611  20.256  0.00  0.00    +0.000 A 
ATOM     13  C   UNL     1       1.030   8.133  21.373  0.00  0.00    +0.000 A 
ATOM     14  C   UNL     1       0.580   9.454  21.331  0.00  0.00    +0.000 A 
ENDROOT
BRANCH   1  19
ATOM     15  C   UNL     1      -1.880  14.701  21.837  0.00  0.00    +0.000 C 
ATOM     16  C   UNL     1      -0.981  13.989  20.825  0.00  0.00    +0.000 C 
ATOM     17  C   UNL     1      -1.710  12.785  20.192  0.00  0.00    +0.000 C 
ATOM     18  C   UNL     1      -0.781  11.932  19.310  0.00  0.00    +0.000 C 
ATOM     19  N   UNL     1       0.374  11.564  20.127  0.00  0.00    +0.000 N 
ATOM     20  C   UNL     1       1.184  12.700  20.563  0.00  0.00    +0.000 C 
ATOM     21  C   UNL     1       0.330  13.554  21.502  0.00  0.00    +0.000 C 
ENDBRANCH   1  19
BRANCH  14  22
ATOM     22  C   UNL     1      -0.183   9.887  22.458  0.00  0.00    +0.000 C 
ATOM     23  N   UNL     1      -0.757  10.284  23.387  0.00  0.00    +0.000 NA
ENDBRANCH  14  22
TORSDOF 2
ENDMDL
MODEL 6
REMARK VINA RESULT:      -6.6      3.037      7.319
REMARK  Name = 
REMARK  3 active torsions:
REMARK  status: ('A' for Active; 'I' for Inactive)
REMARK    1  A    between atoms: C_1  and  C_2
REMARK    2  A    between atoms: N_5  and  C_6
REMARK    3  A    between atoms: C_19  and  C_20
REMARK                            x       y       z     vdW  Elec       q    Type
REMARK                         _______ _______ _______ _____ _____    ______ ____
ROOT
ATOM      1  C   UNL     1       1.459   8.962  19.213  0.00  0.00    +0.000 A 
ATOM      2  N   UNL     1       1.892   7.998  18.361  0.00  0.00    +0.000 NA
ATOM      3  C   UNL     1       2.133   6.779  18.895  0.00  0.00    +0.000 A 
ATOM      4  S   UNL     1       2.693   5.474  17.946  0.00  0.00    +0.000 S 
ATOM      5  C   UNL     1       2.719   4.406  19.291  0.00  0.00    +0.000 A 
ATOM      6  C   UNL     1       3.063   3.081  19.438  0.00  0.00    +0.000 A 
ATOM      7 CL   UNL     1       3.618   2.076  18.177  0.00  0.00    +0.000 Cl
ATOM      8  N   UNL     1       2.972   2.502  20.653  0.00  0.00    +0.000 NA
ATOM      9  N   UNL     1       2.560   3.189  21.688  0.00  0.00    +0.000 NA
ATOM     10  N   UNL     1       2.234   4.403  21.629  0.00  0.00    +0.000 NA
ATOM     11  C   UNL     1       2.302   5.050  20.442  0.00  0.00    +0.000 A 
ATOM     12  C   UNL     1       1.967   6.418  20.221  0.00  0.00    +0.000 A 
ATOM     13  C   UNL     1       1.501   7.410  21.090  0.00  0.00    +0.000 A 
ATOM     14  C   UNL     1       1.235   8.680  20.576  0.00  0.00    +0.000 A 
ENDROOT
BRANCH   1  19
ATOM     15  C   UNL     1       0.367  14.304  19.327  0.00  0.00    +0.000 C 
ATOM     16  C   UNL     1       0.615  13.014  18.544  0.00  0.00    +0.000 C 
ATOM     17  C   UNL     1      -0.462  11.957  18.870  0.00  0.00    +0.000 C 
ATOM     18  C   UNL     1      -0.146  10.585  18.249  0.00  0.00    +0.000 C 
ATOM     19  N   UNL     1       1.200  10.213  18.680  0.00  0.00    +0.000 N 
ATOM     20  C   UNL     1       2.251  11.111  18.201  0.00  0.00    +0.000 C 
ATOM     21  C   UNL     1       2.027  12.481  18.842  0.00  0.00    +0.000 C 
ENDBRANCH   1  19
BRANCH  14  22
ATOM     22  C   UNL     1       0.656   9.612  21.491  0.00  0.00    +0.000 C 
ATOM     23  N   UNL     1       0.243  10.399  22.240  0.00  0.00    +0.000 NA
ENDBRANCH  14  22
TORSDOF 2
ENDMDL
MODEL 7
REMARK VINA RESULT:      -6.6      3.206      7.303
REMARK  Name = 
REMARK  3 active torsions:
REMARK  status: ('A' for Active; 'I' for Inactive)
REMARK    1  A    between atoms: C_1  and  C_2
REMARK    2  A    between atoms: N_5  and  C_6
REMARK    3  A    between atoms: C_19  and  C_20
REMARK                            x       y       z     vdW  Elec       q    Type
REMARK                         _______ _______ _______ _____ _____    ______ ____
ROOT
ATOM      1  C   UNL     1       1.478   9.019  18.977  0.00  0.00    +0.000 A 
ATOM      2  N   UNL     1       2.301   8.676  17.952  0.00  0.00    +0.000 NA
ATOM      3  C   UNL     1       3.028   7.547  18.110  0.00  0.00    +0.000 A 
ATOM      4  S   UNL     1       4.113   6.999  16.909  0.00  0.00    +0.000 S 
ATOM      5  C   UNL     1       4.566   5.626  17.835  0.00  0.00    +0.000 A 
ATOM      6  C   UNL     1       5.442   4.586  17.616  0.00  0.00    +0.000 A 
ATOM      7 CL   UNL     1       6.399   4.402  16.217  0.00  0.00    +0.000 Cl
ATOM      8  N   UNL     1       5.582   3.628  18.554  0.00  0.00    +0.000 NA
ATOM      9  N   UNL     1       4.895   3.678  19.667  0.00  0.00    +0.000 NA
ATOM     10  N   UNL     1       4.082   4.600  19.937  0.00  0.00    +0.000 NA
ATOM     11  C   UNL     1       3.890   5.598  19.042  0.00  0.00    +0.000 A 
ATOM     12  C   UNL     1       3.007   6.704  19.208  0.00  0.00    +0.000 A 
ATOM     13  C   UNL     1       2.142   7.052  20.251  0.00  0.00    +0.000 A 
ATOM     14  C   UNL     1       1.369   8.207  20.124  0.00  0.00    +0.000 A 
ENDROOT
BRANCH   1  19
ATOM     15  C   UNL     1      -2.313  12.702  20.317  0.00  0.00    +0.000 C 
ATOM     16  C   UNL     1      -1.232  12.194  19.362  0.00  0.00    +0.000 C 
ATOM     17  C   UNL     1      -1.610  10.810  18.791  0.00  0.00    +0.000 C 
ATOM     18  C   UNL     1      -0.468  10.181  17.975  0.00  0.00    +0.000 C 
ATOM     19  N   UNL     1       0.719  10.167  18.827  0.00  0.00    +0.000 N 
ATOM     20  C   UNL     1       1.198  11.496  19.207  0.00  0.00    +0.000 C 
ATOM     21  C   UNL     1       0.126  12.149  20.082  0.00  0.00    +0.000 C 
ENDBRANCH   1  19
BRANCH  14  22
ATOM     22  C   UNL     1       0.428   8.443  21.172  0.00  0.00    +0.000 C 
ATOM     23  N   UNL     1      -0.373   8.673  21.984  0.00  0.00    +0.000 NA
ENDBRANCH  14  22
TORSDOF 2
ENDMDL
MODEL 8
REMARK VINA RESULT:      -6.5      2.780      7.391
REMARK  Name = 
REMARK  3 active torsions:
REMARK  status: ('A' for Active; 'I' for Inactive)
REMARK    1  A    between atoms: C_1  and  C_2
REMARK    2  A    between atoms: N_5  and  C_6
REMARK    3  A    between atoms: C_19  and  C_20
REMARK                            x       y       z     vdW  Elec       q    Type
REMARK                         _______ _______ _______ _____ _____    ______ ____
ROOT
ATOM      1  C   UNL     1       0.788   9.897  20.065  0.00  0.00    +0.000 A 
ATOM      2  N   UNL     1       1.461   9.566  18.932  0.00  0.00    +0.000 NA
ATOM      3  C   UNL     1       2.039   8.344  18.906  0.00  0.00    +0.000 A 
ATOM      4  S   UNL     1       2.928   7.797  17.552  0.00  0.00    +0.000 S 
ATOM      5  C   UNL     1       3.270   6.285  18.291  0.00  0.00    +0.000 A 
ATOM      6  C   UNL     1       3.973   5.173  17.885  0.00  0.00    +0.000 A 
ATOM      7 CL   UNL     1       4.767   5.022  16.383  0.00  0.00    +0.000 Cl
ATOM      8  N   UNL     1       4.065   4.109  18.707  0.00  0.00    +0.000 NA
ATOM      9  N   UNL     1       3.494   4.125  19.884  0.00  0.00    +0.000 NA
ATOM     10  N   UNL     1       2.841   5.107  20.324  0.00  0.00    +0.000 NA
ATOM     11  C   UNL     1       2.708   6.212  19.553  0.00  0.00    +0.000 A 
ATOM     12  C   UNL     1       2.001   7.396  19.914  0.00  0.00    +0.000 A 
ATOM     13  C   UNL     1       1.290   7.736  21.070  0.00  0.00    +0.000 A 
ATOM     14  C   UNL     1       0.672   8.986  21.134  0.00  0.00    +0.000 A 
ENDROOT
BRANCH   1  19
ATOM     15  C   UNL     1      -0.112  15.058  18.551  0.00  0.00    +0.000 C 
ATOM     16  C   UNL     1      -0.421  13.865  19.456  0.00  0.00    +0.000 C 
ATOM     17  C   UNL     1       0.820  13.465  20.282  0.00  0.00    +0.000 C 
ATOM     18  C   UNL     1       0.608  12.157  21.065  0.00  0.00    +0.000 C 
ATOM     19  N   UNL     1       0.182  11.141  20.105  0.00  0.00    +0.000 N 
ATOM     20  C   UNL     1      -1.102  11.425  19.464  0.00  0.00    +0.000 C 
ATOM     21  C   UNL     1      -0.934  12.685  18.613  0.00  0.00    +0.000 C 
ENDBRANCH   1  19
BRANCH  14  22
ATOM     22  C   UNL     1      -0.130   9.224  22.291  0.00  0.00    +0.000 C 
ATOM     23  N   UNL     1      -0.761   9.480  23.234  0.00  0.00    +0.000 NA
ENDBRANCH  14  22
TORSDOF 2
ENDMDL
MODEL 9
REMARK VINA RESULT:      -6.4      1.395      1.800
REMARK  Name = 
REMARK  3 active torsions:
REMARK  status: ('A' for Active; 'I' for Inactive)
REMARK    1  A    between atoms: C_1  and  C_2
REMARK    2  A    between atoms: N_5  and  C_6
REMARK    3  A    between atoms: C_19  and  C_20
REMARK                            x       y       z     vdW  Elec       q    Type
REMARK                         _______ _______ _______ _____ _____    ______ ____
ROOT
ATOM      1  C   UNL     1       2.431   7.104  18.878  0.00  0.00    +0.000 A 
ATOM      2  N   UNL     1       2.137   8.409  18.643  0.00  0.00    +0.000 NA
ATOM      3  C   UNL     1       1.482   9.068  19.625  0.00  0.00    +0.000 A 
ATOM      4  S   UNL     1       1.036  10.710  19.465  0.00  0.00    +0.000 S 
ATOM      5  C   UNL     1       0.323  10.749  21.027  0.00  0.00    +0.000 A 
ATOM      6  C   UNL     1      -0.314  11.733  21.750  0.00  0.00    +0.000 A 
ATOM      7 CL   UNL     1      -0.584  13.324  21.197  0.00  0.00    +0.000 Cl
ATOM      8  N   UNL     1      -0.774  11.455  22.986  0.00  0.00    +0.000 NA
ATOM      9  N   UNL     1      -0.621  10.262  23.502  0.00  0.00    +0.000 NA
ATOM     10  N   UNL     1      -0.054   9.314  22.898  0.00  0.00    +0.000 NA
ATOM     11  C   UNL     1       0.432   9.520  21.651  0.00  0.00    +0.000 A 
ATOM     12  C   UNL     1       1.094   8.547  20.847  0.00  0.00    +0.000 A 
ATOM     13  C   UNL     1       1.418   7.208  21.091  0.00  0.00    +0.000 A 
ATOM     14  C   UNL     1       2.101   6.494  20.105  0.00  0.00    +0.000 A 
ENDROOT
BRANCH   1  19
ATOM     15  C   UNL     1       6.500   4.178  16.728  0.00  0.00    +0.000 C 
ATOM     16  C   UNL     1       5.154   4.889  16.585  0.00  0.00    +0.000 C 
ATOM     17  C   UNL     1       5.298   6.401  16.862  0.00  0.00    +0.000 C 
ATOM     18  C   UNL     1       3.940   7.121  16.912  0.00  0.00    +0.000 C 
ATOM     19  N   UNL     1       3.110   6.416  17.887  0.00  0.00    +0.000 N 
ATOM     20  C   UNL     1       2.805   5.032  17.522  0.00  0.00    +0.000 C 
ATOM     21  C   UNL     1       4.118   4.246  17.522  0.00  0.00    +0.000 C 
ENDBRANCH   1  19
BRANCH  14  22
ATOM     22  C   UNL     1       2.499   5.169  20.461  0.00  0.00    +0.000 C 
ATOM     23  N   UNL     1       2.813   4.106  20.814  0.00  0.00    +0.000 NA
ENDBRANCH  14  22
TORSDOF 2
ENDMDL
