MODEL 1
REMARK VINA RESULT:      -8.3      0.000      0.000
REMARK  Name = 
REMARK  9 active torsions:
REMARK  status: ('A' for Active; 'I' for Inactive)
REMARK    1  A    between atoms: C_2  and  C_3
REMARK    2  A    between atoms: C_2  and  O_15
REMARK    3  A    between atoms: C_3  and  N_4
REMARK    4  A    between atoms: O_15  and  C_16
REMARK    5  A    between atoms: C_16  and  C_17
REMARK    6  A    between atoms: C_17  and  O_18
REMARK    7  A    between atoms: O_18  and  C_19
REMARK    8  A    between atoms: C_19  and  C_20
REMARK    9  A    between atoms: C_19  and  C_26
REMARK                            x       y       z     vdW  Elec       q    Type
REMARK                         _______ _______ _______ _____ _____    ______ ____
ROOT
ATOM      1  C   UNL     1       2.127   9.123  18.100  0.00  0.00    +0.000 C 
ENDROOT
BRANCH   1   2
ATOM      2  O   UNL     1       1.555   8.720  19.359  0.00  0.00    +0.000 OA
BRANCH   2   4
ATOM      3  O   UNL     1       0.229   9.463  21.075  0.00  0.00    +0.000 OA
ATOM      4  C   UNL     1       0.676   9.578  19.942  0.00  0.00    +0.000 C 
BRANCH   4   5
ATOM      5  C   UNL     1       0.379  10.734  19.000  0.00  0.00    +0.000 C 
BRANCH   5   6
ATOM      6  N   UNL     1      -1.045  10.937  18.841  0.00  0.00    +0.000 N 
ATOM      7  C   UNL     1      -1.795  10.420  17.822  0.00  0.00    +0.000 C 
ATOM      8  O   UNL     1      -1.450   9.695  16.906  0.00  0.00    +0.000 OA
ATOM      9  C   UNL     1      -3.146  10.959  17.981  0.00  0.00    +0.000 A 
ATOM     10  C   UNL     1      -4.294  10.755  17.238  0.00  0.00    +0.000 A 
ATOM     11  C   UNL     1      -5.455  11.412  17.660  0.00  0.00    +0.000 A 
ATOM     12  C   UNL     1      -5.442  12.251  18.793  0.00  0.00    +0.000 A 
ATOM     13  C   UNL     1      -4.261  12.464  19.512  0.00  0.00    +0.000 A 
ATOM     14  C   UNL     1      -3.131  11.803  19.076  0.00  0.00    +0.000 A 
ATOM     15  C   UNL     1      -1.761  11.836  19.583  0.00  0.00    +0.000 C 
ATOM     16  O   UNL     1      -1.377  12.581  20.463  0.00  0.00    +0.000 OA
ENDBRANCH   5   6
ENDBRANCH   4   5
ENDBRANCH   2   4
ENDBRANCH   1   2
BRANCH   1  17
ATOM     17  C   UNL     1       2.913   7.966  17.488  0.00  0.00    +0.000 C 
BRANCH  17  18
ATOM     18  O   UNL     1       3.075   6.950  18.485  0.00  0.00    +0.000 OA
BRANCH  18  19
ATOM     19  C   UNL     1       3.093   5.611  17.963  0.00  0.00    +0.000 C 
BRANCH  19  20
ATOM     20  C   UNL     1       4.517   5.184  17.635  0.00  0.00    +0.000 A 
ATOM     21  C   UNL     1       5.588   5.518  18.482  0.00  0.00    +0.000 A 
ATOM     22  C   UNL     1       6.901   5.209  18.126  0.00  0.00    +0.000 A 
ATOM     23  C   UNL     1       7.160   4.560  16.921  0.00  0.00    +0.000 A 
ATOM     24  C   UNL     1       6.109   4.209  16.076  0.00  0.00    +0.000 A 
ATOM     25  C   UNL     1       4.794   4.517  16.431  0.00  0.00    +0.000 A 
ENDBRANCH  19  20
BRANCH  19  26
ATOM     26  C   UNL     1       2.410   4.677  18.957  0.00  0.00    +0.000 A 
ATOM     27  C   UNL     1       2.624   4.835  20.337  0.00  0.00    +0.000 A 
ATOM     28  C   UNL     1       1.992   3.997  21.260  0.00  0.00    +0.000 A 
ATOM     29  C   UNL     1       1.132   2.994  20.821  0.00  0.00    +0.000 A 
ATOM     30  C   UNL     1       0.903   2.825  19.459  0.00  0.00    +0.000 A 
ATOM     31  C   UNL     1       1.537   3.658  18.534  0.00  0.00    +0.000 A 
ENDBRANCH  19  26
ENDBRANCH  18  19
ENDBRANCH  17  18
ENDBRANCH   1  17
TORSDOF 9
ENDMDL
MODEL 2
REMARK VINA RESULT:      -8.2      1.411      1.855
REMARK  Name = 
REMARK  9 active torsions:
REMARK  status: ('A' for Active; 'I' for Inactive)
REMARK    1  A    between atoms: C_2  and  C_3
REMARK    2  A    between atoms: C_2  and  O_15
REMARK    3  A    between atoms: C_3  and  N_4
REMARK    4  A    between atoms: O_15  and  C_16
REMARK    5  A    between atoms: C_16  and  C_17
REMARK    6  A    between atoms: C_17  and  O_18
REMARK    7  A    between atoms: O_18  and  C_19
REMARK    8  A    between atoms: C_19  and  C_20
REMARK    9  A    between atoms: C_19  and  C_26
REMARK                            x       y       z     vdW  Elec       q    Type
REMARK                         _______ _______ _______ _____ _____    ______ ____
ROOT
ATOM      1  C   UNL     1       1.401   8.520  21.866  0.00  0.00    +0.000 C 
ENDROOT
BRANCH   1   2
ATOM      2  O   UNL     1       1.370   9.961  21.890  0.00  0.00    +0.000 OA
BRANCH   2   4
ATOM      3  O   UNL     1      -0.824  10.361  22.420  0.00  0.00    +0.000 OA
ATOM      4  C   UNL     1       0.159  10.555  21.717  0.00  0.00    +0.000 C 
BRANCH   4   5
ATOM      5  C   UNL     1       0.225  11.539  20.560  0.00  0.00    +0.000 C 
BRANCH   5   6
ATOM      6  N   UNL     1      -0.809  11.278  19.581  0.00  0.00    +0.000 N 
ATOM      7  C   UNL     1      -0.644  10.516  18.459  0.00  0.00    +0.000 C 
ATOM      8  O   UNL     1       0.341   9.906  18.084  0.00  0.00    +0.000 OA
ATOM      9  C   UNL     1      -1.893  10.609  17.702  0.00  0.00    +0.000 A 
ATOM     10  C   UNL     1      -2.269  10.029  16.505  0.00  0.00    +0.000 A 
ATOM     11  C   UNL     1      -3.559  10.301  16.039  0.00  0.00    +0.000 A 
ATOM     12  C   UNL     1      -4.430  11.140  16.765  0.00  0.00    +0.000 A 
ATOM     13  C   UNL     1      -4.016  11.738  17.960  0.00  0.00    +0.000 A 
ATOM     14  C   UNL     1      -2.739  11.451  18.398  0.00  0.00    +0.000 A 
ATOM     15  C   UNL     1      -2.011  11.931  19.570  0.00  0.00    +0.000 C 
ATOM     16  O   UNL     1      -2.425  12.788  20.326  0.00  0.00    +0.000 OA
ENDBRANCH   5   6
ENDBRANCH   4   5
ENDBRANCH   2   4
ENDBRANCH   1   2
BRANCH   1  17
ATOM     17  C   UNL     1       1.459   8.023  20.423  0.00  0.00    +0.000 C 
BRANCH  17  18
ATOM     18  O   UNL     1       2.654   7.250  20.258  0.00  0.00    +0.000 OA
BRANCH  18  19
ATOM     19  C   UNL     1       2.588   6.285  19.194  0.00  0.00    +0.000 C 
BRANCH  19  20
ATOM     20  C   UNL     1       3.933   6.176  18.487  0.00  0.00    +0.000 A 
ATOM     21  C   UNL     1       5.008   5.491  19.078  0.00  0.00    +0.000 A 
ATOM     22  C   UNL     1       6.264   5.480  18.471  0.00  0.00    +0.000 A 
ATOM     23  C   UNL     1       6.460   6.149  17.265  0.00  0.00    +0.000 A 
ATOM     24  C   UNL     1       5.400   6.821  16.659  0.00  0.00    +0.000 A 
ATOM     25  C   UNL     1       4.142   6.834  17.265  0.00  0.00    +0.000 A 
ENDBRANCH  19  20
BRANCH  19  26
ATOM     26  C   UNL     1       2.106   4.951  19.756  0.00  0.00    +0.000 A 
ATOM     27  C   UNL     1       2.344   4.625  21.102  0.00  0.00    +0.000 A 
ATOM     28  C   UNL     1       1.895   3.414  21.635  0.00  0.00    +0.000 A 
ATOM     29  C   UNL     1       1.193   2.514  20.836  0.00  0.00    +0.000 A 
ATOM     30  C   UNL     1       0.942   2.822  19.502  0.00  0.00    +0.000 A 
ATOM     31  C   UNL     1       1.396   4.030  18.966  0.00  0.00    +0.000 A 
ENDBRANCH  19  26
ENDBRANCH  18  19
ENDBRANCH  17  18
ENDBRANCH   1  17
TORSDOF 9
ENDMDL
MODEL 3
REMARK VINA RESULT:      -8.1      1.115      1.157
REMARK  Name = 
REMARK  9 active torsions:
REMARK  status: ('A' for Active; 'I' for Inactive)
REMARK    1  A    between atoms: C_2  and  C_3
REMARK    2  A    between atoms: C_2  and  O_15
REMARK    3  A    between atoms: C_3  and  N_4
REMARK    4  A    between atoms: O_15  and  C_16
REMARK    5  A    between atoms: C_16  and  C_17
REMARK    6  A    between atoms: C_17  and  O_18
REMARK    7  A    between atoms: O_18  and  C_19
REMARK    8  A    between atoms: C_19  and  C_20
REMARK    9  A    between atoms: C_19  and  C_26
REMARK                            x       y       z     vdW  Elec       q    Type
REMARK                         _______ _______ _______ _____ _____    ______ ____
ROOT
ATOM      1  C   UNL     1       1.703   9.769  18.241  0.00  0.00    +0.000 C 
ENDROOT
BRANCH   1   2
ATOM      2  O   UNL     1       1.390   9.704  19.646  0.00  0.00    +0.000 OA
BRANCH   2   4
ATOM      3  O   UNL     1      -0.556   9.546  20.846  0.00  0.00    +0.000 OA
ATOM      4  C   UNL     1       0.148  10.111  20.020  0.00  0.00    +0.000 C 
BRANCH   4   5
ATOM      5  C   UNL     1      -0.211  11.405  19.306  0.00  0.00    +0.000 C 
BRANCH   5   6
ATOM      6  N   UNL     1      -1.638  11.517  19.096  0.00  0.00    +0.000 N 
ATOM      7  C   UNL     1      -2.297  11.077  17.983  0.00  0.00    +0.000 C 
ATOM      8  O   UNL     1      -1.854  10.502  17.005  0.00  0.00    +0.000 OA
ATOM      9  C   UNL     1      -3.694  11.488  18.133  0.00  0.00    +0.000 A 
ATOM     10  C   UNL     1      -4.787  11.293  17.310  0.00  0.00    +0.000 A 
ATOM     11  C   UNL     1      -6.015  11.801  17.745  0.00  0.00    +0.000 A 
ATOM     12  C   UNL     1      -6.122  12.488  18.972  0.00  0.00    +0.000 A 
ATOM     13  C   UNL     1      -4.996  12.698  19.774  0.00  0.00    +0.000 A 
ATOM     14  C   UNL     1      -3.796  12.185  19.322  0.00  0.00    +0.000 A 
ATOM     15  C   UNL     1      -2.458  12.258  19.903  0.00  0.00    +0.000 C 
ATOM     16  O   UNL     1      -2.176  12.913  20.887  0.00  0.00    +0.000 OA
ENDBRANCH   5   6
ENDBRANCH   4   5
ENDBRANCH   2   4
ENDBRANCH   1   2
BRANCH   1  17
ATOM     17  C   UNL     1       1.830   8.359  17.667  0.00  0.00    +0.000 C 
BRANCH  17  18
ATOM     18  O   UNL     1       2.725   7.610  18.497  0.00  0.00    +0.000 OA
BRANCH  18  19
ATOM     19  C   UNL     1       3.130   6.349  17.937  0.00  0.00    +0.000 C 
BRANCH  19  20
ATOM     20  C   UNL     1       4.639   6.176  18.044  0.00  0.00    +0.000 A 
ATOM     21  C   UNL     1       5.208   5.378  19.051  0.00  0.00    +0.000 A 
ATOM     22  C   UNL     1       6.592   5.303  19.203  0.00  0.00    +0.000 A 
ATOM     23  C   UNL     1       7.426   6.023  18.350  0.00  0.00    +0.000 A 
ATOM     24  C   UNL     1       6.879   6.809  17.338  0.00  0.00    +0.000 A 
ATOM     25  C   UNL     1       5.492   6.885  17.183  0.00  0.00    +0.000 A 
ENDBRANCH  19  20
BRANCH  19  26
ATOM     26  C   UNL     1       2.356   5.226  18.622  0.00  0.00    +0.000 A 
ATOM     27  C   UNL     1       1.976   5.350  19.969  0.00  0.00    +0.000 A 
ATOM     28  C   UNL     1       1.254   4.336  20.605  0.00  0.00    +0.000 A 
ATOM     29  C   UNL     1       0.892   3.188  19.903  0.00  0.00    +0.000 A 
ATOM     30  C   UNL     1       1.256   3.050  18.567  0.00  0.00    +0.000 A 
ATOM     31  C   UNL     1       1.982   4.059  17.931  0.00  0.00    +0.000 A 
ENDBRANCH  19  26
ENDBRANCH  18  19
ENDBRANCH  17  18
ENDBRANCH   1  17
TORSDOF 9
ENDMDL
MODEL 4
REMARK VINA RESULT:      -8.1      1.465      2.388
REMARK  Name = 
REMARK  9 active torsions:
REMARK  status: ('A' for Active; 'I' for Inactive)
REMARK    1  A    between atoms: C_2  and  C_3
REMARK    2  A    between atoms: C_2  and  O_15
REMARK    3  A    between atoms: C_3  and  N_4
REMARK    4  A    between atoms: O_15  and  C_16
REMARK    5  A    between atoms: C_16  and  C_17
REMARK    6  A    between atoms: C_17  and  O_18
REMARK    7  A    between atoms: O_18  and  C_19
REMARK    8  A    between atoms: C_19  and  C_20
REMARK    9  A    between atoms: C_19  and  C_26
REMARK                            x       y       z     vdW  Elec       q    Type
REMARK                         _______ _______ _______ _____ _____    ______ ____
ROOT
ATOM      1  C   UNL     1       1.495   8.409  21.491  0.00  0.00    +0.000 C 
ENDROOT
BRANCH   1   2
ATOM      2  O   UNL     1       1.389   9.844  21.561  0.00  0.00    +0.000 OA
BRANCH   2   4
ATOM      3  O   UNL     1      -0.839   9.988  22.080  0.00  0.00    +0.000 OA
ATOM      4  C   UNL     1       0.141  10.376  21.459  0.00  0.00    +0.000 C 
BRANCH   4   5
ATOM      5  C   UNL     1       0.159  11.561  20.507  0.00  0.00    +0.000 C 
BRANCH   5   6
ATOM      6  N   UNL     1      -0.839  11.423  19.468  0.00  0.00    +0.000 N 
ATOM      7  C   UNL     1      -2.106  11.931  19.534  0.00  0.00    +0.000 C 
ATOM      8  O   UNL     1      -2.621  12.596  20.415  0.00  0.00    +0.000 OA
ATOM      9  C   UNL     1      -2.807  11.467  18.336  0.00  0.00    +0.000 A 
ATOM     10  C   UNL     1      -4.098  11.695  17.900  0.00  0.00    +0.000 A 
ATOM     11  C   UNL     1      -4.474  11.117  16.682  0.00  0.00    +0.000 A 
ATOM     12  C   UNL     1      -3.567  10.329  15.943  0.00  0.00    +0.000 A 
ATOM     13  C   UNL     1      -2.274  10.090  16.420  0.00  0.00    +0.000 A 
ATOM     14  C   UNL     1      -1.928  10.674  17.622  0.00  0.00    +0.000 A 
ATOM     15  C   UNL     1      -0.688  10.595  18.390  0.00  0.00    +0.000 C 
ATOM     16  O   UNL     1       0.246   9.872  18.104  0.00  0.00    +0.000 OA
ENDBRANCH   5   6
ENDBRANCH   4   5
ENDBRANCH   2   4
ENDBRANCH   1   2
BRANCH   1  17
ATOM     17  C   UNL     1       1.813   7.977  20.061  0.00  0.00    +0.000 C 
BRANCH  17  18
ATOM     18  O   UNL     1       2.538   6.742  20.110  0.00  0.00    +0.000 OA
BRANCH  18  19
ATOM     19  C   UNL     1       2.725   6.117  18.829  0.00  0.00    +0.000 C 
BRANCH  19  20
ATOM     20  C   UNL     1       4.191   6.162  18.421  0.00  0.00    +0.000 A 
ATOM     21  C   UNL     1       4.595   6.803  17.237  0.00  0.00    +0.000 A 
ATOM     22  C   UNL     1       5.925   6.754  16.820  0.00  0.00    +0.000 A 
ATOM     23  C   UNL     1       6.868   6.068  17.581  0.00  0.00    +0.000 A 
ATOM     24  C   UNL     1       6.488   5.439  18.765  0.00  0.00    +0.000 A 
ATOM     25  C   UNL     1       5.156   5.486  19.185  0.00  0.00    +0.000 A 
ENDBRANCH  19  20
BRANCH  19  26
ATOM     26  C   UNL     1       2.167   4.698  18.878  0.00  0.00    +0.000 A 
ATOM     27  C   UNL     1       1.296   4.317  19.913  0.00  0.00    +0.000 A 
ATOM     28  C   UNL     1       0.765   3.025  19.962  0.00  0.00    +0.000 A 
ATOM     29  C   UNL     1       1.089   2.097  18.975  0.00  0.00    +0.000 A 
ATOM     30  C   UNL     1       1.946   2.457  17.939  0.00  0.00    +0.000 A 
ATOM     31  C   UNL     1       2.482   3.746  17.891  0.00  0.00    +0.000 A 
ENDBRANCH  19  26
ENDBRANCH  18  19
ENDBRANCH  17  18
ENDBRANCH   1  17
TORSDOF 9
ENDMDL
MODEL 5
REMARK VINA RESULT:      -8.1      0.950      1.855
REMARK  Name = 
REMARK  9 active torsions:
REMARK  status: ('A' for Active; 'I' for Inactive)
REMARK    1  A    between atoms: C_2  and  C_3
REMARK    2  A    between atoms: C_2  and  O_15
REMARK    3  A    between atoms: C_3  and  N_4
REMARK    4  A    between atoms: O_15  and  C_16
REMARK    5  A    between atoms: C_16  and  C_17
REMARK    6  A    between atoms: C_17  and  O_18
REMARK    7  A    between atoms: O_18  and  C_19
REMARK    8  A    between atoms: C_19  and  C_20
REMARK    9  A    between atoms: C_19  and  C_26
REMARK                            x       y       z     vdW  Elec       q    Type
REMARK                         _______ _______ _______ _____ _____    ______ ____
ROOT
ATOM      1  C   UNL     1       1.498   9.192  17.813  0.00  0.00    +0.000 C 
ENDROOT
BRANCH   1   2
ATOM      2  O   UNL     1       1.442  10.133  18.903  0.00  0.00    +0.000 OA
BRANCH   2   4
ATOM      3  O   UNL     1      -0.412   9.761  20.198  0.00  0.00    +0.000 OA
ATOM      4  C   UNL     1       0.210  10.439  19.391  0.00  0.00    +0.000 C 
BRANCH   4   5
ATOM      5  C   UNL     1      -0.251  11.776  18.834  0.00  0.00    +0.000 C 
BRANCH   5   6
ATOM      6  N   UNL     1      -1.695  11.853  18.766  0.00  0.00    +0.000 N 
ATOM      7  C   UNL     1      -2.493  12.366  19.749  0.00  0.00    +0.000 C 
ATOM      8  O   UNL     1      -2.176  12.868  20.812  0.00  0.00    +0.000 OA
ATOM      9  C   UNL     1      -3.876  12.147  19.323  0.00  0.00    +0.000 A 
ATOM     10  C   UNL     1      -5.072  12.478  19.931  0.00  0.00    +0.000 A 
ATOM     11  C   UNL     1      -6.249  12.143  19.253  0.00  0.00    +0.000 A 
ATOM     12  C   UNL     1      -6.206  11.487  18.006  0.00  0.00    +0.000 A 
ATOM     13  C   UNL     1      -4.983  11.136  17.424  0.00  0.00    +0.000 A 
ATOM     14  C   UNL     1      -3.837  11.481  18.113  0.00  0.00    +0.000 A 
ATOM     15  C   UNL     1      -2.433  11.235  17.794  0.00  0.00    +0.000 C 
ATOM     16  O   UNL     1      -2.054  10.558  16.859  0.00  0.00    +0.000 OA
ENDBRANCH   5   6
ENDBRANCH   4   5
ENDBRANCH   2   4
ENDBRANCH   1   2
BRANCH   1  17
ATOM     17  C   UNL     1       2.794   8.386  17.885  0.00  0.00    +0.000 C 
BRANCH  17  18
ATOM     18  O   UNL     1       2.547   7.198  18.647  0.00  0.00    +0.000 OA
BRANCH  18  19
ATOM     19  C   UNL     1       2.865   5.978  17.955  0.00  0.00    +0.000 C 
BRANCH  19  20
ATOM     20  C   UNL     1       4.373   5.788  17.872  0.00  0.00    +0.000 A 
ATOM     21  C   UNL     1       5.128   5.477  19.016  0.00  0.00    +0.000 A 
ATOM     22  C   UNL     1       6.520   5.401  18.950  0.00  0.00    +0.000 A 
ATOM     23  C   UNL     1       7.173   5.631  17.742  0.00  0.00    +0.000 A 
ATOM     24  C   UNL     1       6.439   5.927  16.596  0.00  0.00    +0.000 A 
ATOM     25  C   UNL     1       5.045   6.004  16.659  0.00  0.00    +0.000 A 
ENDBRANCH  19  20
BRANCH  19  26
ATOM     26  C   UNL     1       2.158   4.814  18.643  0.00  0.00    +0.000 A 
ATOM     27  C   UNL     1       1.707   4.945  19.967  0.00  0.00    +0.000 A 
ATOM     28  C   UNL     1       1.045   3.892  20.605  0.00  0.00    +0.000 A 
ATOM     29  C   UNL     1       0.815   2.697  19.928  0.00  0.00    +0.000 A 
ATOM     30  C   UNL     1       1.250   2.550  18.614  0.00  0.00    +0.000 A 
ATOM     31  C   UNL     1       1.916   3.599  17.977  0.00  0.00    +0.000 A 
ENDBRANCH  19  26
ENDBRANCH  18  19
ENDBRANCH  17  18
ENDBRANCH   1  17
TORSDOF 9
ENDMDL
MODEL 6
REMARK VINA RESULT:      -8.1      0.595      3.835
REMARK  Name = 
REMARK  9 active torsions:
REMARK  status: ('A' for Active; 'I' for Inactive)
REMARK    1  A    between atoms: C_2  and  C_3
REMARK    2  A    between atoms: C_2  and  O_15
REMARK    3  A    between atoms: C_3  and  N_4
REMARK    4  A    between atoms: O_15  and  C_16
REMARK    5  A    between atoms: C_16  and  C_17
REMARK    6  A    between atoms: C_17  and  O_18
REMARK    7  A    between atoms: O_18  and  C_19
REMARK    8  A    between atoms: C_19  and  C_20
REMARK    9  A    between atoms: C_19  and  C_26
REMARK                            x       y       z     vdW  Elec       q    Type
REMARK                         _______ _______ _______ _____ _____    ______ ____
ROOT
ATOM      1  C   UNL     1       1.659   9.007  17.984  0.00  0.00    +0.000 C 
ENDROOT
BRANCH   1   2
ATOM      2  O   UNL     1       1.492   9.337  19.376  0.00  0.00    +0.000 OA
BRANCH   2   4
ATOM      3  O   UNL     1      -0.424   9.488  20.625  0.00  0.00    +0.000 OA
ATOM      4  C   UNL     1       0.311   9.904  19.739  0.00  0.00    +0.000 C 
BRANCH   4   5
ATOM      5  C   UNL     1       0.069  11.165  18.924  0.00  0.00    +0.000 C 
BRANCH   5   6
ATOM      6  N   UNL     1      -1.345  11.427  18.759  0.00  0.00    +0.000 N 
ATOM      7  C   UNL     1      -2.125  12.084  19.668  0.00  0.00    +0.000 C 
ATOM      8  O   UNL     1      -1.808  12.586  20.732  0.00  0.00    +0.000 OA
ATOM      9  C   UNL     1      -3.497  12.029  19.161  0.00  0.00    +0.000 A 
ATOM     10  C   UNL     1      -4.672  12.540  19.677  0.00  0.00    +0.000 A 
ATOM     11  C   UNL     1      -5.840  12.332  18.936  0.00  0.00    +0.000 A 
ATOM     12  C   UNL     1      -5.810  11.622  17.719  0.00  0.00    +0.000 A 
ATOM     13  C   UNL     1      -4.612  11.089  17.231  0.00  0.00    +0.000 A 
ATOM     14  C   UNL     1      -3.474  11.310  17.981  0.00  0.00    +0.000 A 
ATOM     15  C   UNL     1      -2.098  10.869  17.763  0.00  0.00    +0.000 C 
ATOM     16  O   UNL     1      -1.758  10.107  16.880  0.00  0.00    +0.000 OA
ENDBRANCH   5   6
ENDBRANCH   4   5
ENDBRANCH   2   4
ENDBRANCH   1   2
BRANCH   1  17
ATOM     17  C   UNL     1       2.991   8.290  17.772  0.00  0.00    +0.000 C 
BRANCH  17  18
ATOM     18  O   UNL     1       2.733   6.889  17.619  0.00  0.00    +0.000 OA
BRANCH  18  19
ATOM     19  C   UNL     1       3.440   6.055  18.551  0.00  0.00    +0.000 C 
BRANCH  19  20
ATOM     20  C   UNL     1       2.557   4.906  19.019  0.00  0.00    +0.000 A 
ATOM     21  C   UNL     1       2.053   3.962  18.107  0.00  0.00    +0.000 A 
ATOM     22  C   UNL     1       1.165   2.971  18.527  0.00  0.00    +0.000 A 
ATOM     23  C   UNL     1       0.772   2.910  19.862  0.00  0.00    +0.000 A 
ATOM     24  C   UNL     1       1.273   3.829  20.781  0.00  0.00    +0.000 A 
ATOM     25  C   UNL     1       2.162   4.822  20.363  0.00  0.00    +0.000 A 
ENDBRANCH  19  20
BRANCH  19  26
ATOM     26  C   UNL     1       4.741   5.578  17.911  0.00  0.00    +0.000 A 
ATOM     27  C   UNL     1       4.839   5.464  16.513  0.00  0.00    +0.000 A 
ATOM     28  C   UNL     1       6.028   5.044  15.912  0.00  0.00    +0.000 A 
ATOM     29  C   UNL     1       7.139   4.739  16.694  0.00  0.00    +0.000 A 
ATOM     30  C   UNL     1       7.063   4.851  18.080  0.00  0.00    +0.000 A 
ATOM     31  C   UNL     1       5.874   5.266  18.683  0.00  0.00    +0.000 A 
ENDBRANCH  19  26
ENDBRANCH  18  19
ENDBRANCH  17  18
ENDBRANCH   1  17
TORSDOF 9
ENDMDL
MODEL 7
REMARK VINA RESULT:      -8.0      2.155      4.421
REMARK  Name = 
REMARK  9 active torsions:
REMARK  status: ('A' for Active; 'I' for Inactive)
REMARK    1  A    between atoms: C_2  and  C_3
REMARK    2  A    between atoms: C_2  and  O_15
REMARK    3  A    between atoms: C_3  and  N_4
REMARK    4  A    between atoms: O_15  and  C_16
REMARK    5  A    between atoms: C_16  and  C_17
REMARK    6  A    between atoms: C_17  and  O_18
REMARK    7  A    between atoms: O_18  and  C_19
REMARK    8  A    between atoms: C_19  and  C_20
REMARK    9  A    between atoms: C_19  and  C_26
REMARK                            x       y       z     vdW  Elec       q    Type
REMARK                         _______ _______ _______ _____ _____    ______ ____
ROOT
ATOM      1  C   UNL     1       1.563   9.157  17.976  0.00  0.00    +0.000 C 
ENDROOT
BRANCH   1   2
ATOM      2  O   UNL     1       1.422  10.369  18.743  0.00  0.00    +0.000 OA
BRANCH   2   4
ATOM      3  O   UNL     1      -0.784   9.969  19.221  0.00  0.00    +0.000 OA
ATOM      4  C   UNL     1       0.287  10.504  19.479  0.00  0.00    +0.000 C 
BRANCH   4   5
ATOM      5  C   UNL     1       0.560  11.368  20.700  0.00  0.00    +0.000 C 
BRANCH   5   6
ATOM      6  N   UNL     1      -0.668  11.865  21.284  0.00  0.00    +0.000 N 
ATOM      7  C   UNL     1      -1.387  12.920  20.800  0.00  0.00    +0.000 C 
ATOM      8  O   UNL     1      -1.178  13.605  19.815  0.00  0.00    +0.000 OA
ATOM      9  C   UNL     1      -2.480  13.152  21.746  0.00  0.00    +0.000 A 
ATOM     10  C   UNL     1      -3.502  14.082  21.736  0.00  0.00    +0.000 A 
ATOM     11  C   UNL     1      -4.417  14.039  22.793  0.00  0.00    +0.000 A 
ATOM     12  C   UNL     1      -4.288  13.086  23.825  0.00  0.00    +0.000 A 
ATOM     13  C   UNL     1      -3.229  12.174  23.828  0.00  0.00    +0.000 A 
ATOM     14  C   UNL     1      -2.341  12.237  22.772  0.00  0.00    +0.000 A 
ATOM     15  C   UNL     1      -1.135  11.457  22.503  0.00  0.00    +0.000 C 
ATOM     16  O   UNL     1      -0.657  10.652  23.277  0.00  0.00    +0.000 OA
ENDBRANCH   5   6
ENDBRANCH   4   5
ENDBRANCH   2   4
ENDBRANCH   1   2
BRANCH   1  17
ATOM     17  C   UNL     1       2.150   8.051  18.850  0.00  0.00    +0.000 C 
BRANCH  17  18
ATOM     18  O   UNL     1       2.947   7.194  18.023  0.00  0.00    +0.000 OA
BRANCH  18  19
ATOM     19  C   UNL     1       3.648   6.166  18.743  0.00  0.00    +0.000 C 
BRANCH  19  20
ATOM     20  C   UNL     1       2.703   5.028  19.105  0.00  0.00    +0.000 A 
ATOM     21  C   UNL     1       2.104   4.239  18.108  0.00  0.00    +0.000 A 
ATOM     22  C   UNL     1       1.164   3.264  18.442  0.00  0.00    +0.000 A 
ATOM     23  C   UNL     1       0.814   3.062  19.776  0.00  0.00    +0.000 A 
ATOM     24  C   UNL     1       1.409   3.826  20.777  0.00  0.00    +0.000 A 
ATOM     25  C   UNL     1       2.350   4.804  20.445  0.00  0.00    +0.000 A 
ENDBRANCH  19  20
BRANCH  19  26
ATOM     26  C   UNL     1       4.844   5.702  17.918  0.00  0.00    +0.000 A 
ATOM     27  C   UNL     1       4.877   5.932  16.531  0.00  0.00    +0.000 A 
ATOM     28  C   UNL     1       5.973   5.527  15.765  0.00  0.00    +0.000 A 
ATOM     29  C   UNL     1       7.055   4.894  16.370  0.00  0.00    +0.000 A 
ATOM     30  C   UNL     1       7.043   4.662  17.743  0.00  0.00    +0.000 A 
ATOM     31  C   UNL     1       5.947   5.061  18.510  0.00  0.00    +0.000 A 
ENDBRANCH  19  26
ENDBRANCH  18  19
ENDBRANCH  17  18
ENDBRANCH   1  17
TORSDOF 9
ENDMDL
MODEL 8
REMARK VINA RESULT:      -8.0      0.877      3.474
REMARK  Name = 
REMARK  9 active torsions:
REMARK  status: ('A' for Active; 'I' for Inactive)
REMARK    1  A    between atoms: C_2  and  C_3
REMARK    2  A    between atoms: C_2  and  O_15
REMARK    3  A    between atoms: C_3  and  N_4
REMARK    4  A    between atoms: O_15  and  C_16
REMARK    5  A    between atoms: C_16  and  C_17
REMARK    6  A    between atoms: C_17  and  O_18
REMARK    7  A    between atoms: O_18  and  C_19
REMARK    8  A    between atoms: C_19  and  C_20
REMARK    9  A    between atoms: C_19  and  C_26
REMARK                            x       y       z     vdW  Elec       q    Type
REMARK                         _______ _______ _______ _____ _____    ______ ____
ROOT
ATOM      1  C   UNL     1       1.707   8.995  17.764  0.00  0.00    +0.000 C 
ENDROOT
BRANCH   1   2
ATOM      2  O   UNL     1       2.046  10.380  17.977  0.00  0.00    +0.000 OA
BRANCH   2   4
ATOM      3  O   UNL     1       1.163  12.351  18.744  0.00  0.00    +0.000 OA
ATOM      4  C   UNL     1       1.164  11.128  18.691  0.00  0.00    +0.000 C 
BRANCH   4   5
ATOM      5  C   UNL     1       0.144  10.224  19.365  0.00  0.00    +0.000 C 
BRANCH   5   6
ATOM      6  N   UNL     1      -1.210  10.660  19.099  0.00  0.00    +0.000 N 
ATOM      7  C   UNL     1      -1.899  10.396  17.949  0.00  0.00    +0.000 C 
ATOM      8  O   UNL     1      -1.553   9.748  16.977  0.00  0.00    +0.000 OA
ATOM      9  C   UNL     1      -3.173  11.111  18.051  0.00  0.00    +0.000 A 
ATOM     10  C   UNL     1      -4.242  11.179  17.178  0.00  0.00    +0.000 A 
ATOM     11  C   UNL     1      -5.343  11.947  17.574  0.00  0.00    +0.000 A 
ATOM     12  C   UNL     1      -5.347  12.624  18.811  0.00  0.00    +0.000 A 
ATOM     13  C   UNL     1      -4.241  12.562  19.664  0.00  0.00    +0.000 A 
ATOM     14  C   UNL     1      -3.169  11.797  19.250  0.00  0.00    +0.000 A 
ATOM     15  C   UNL     1      -1.876  11.557  19.888  0.00  0.00    +0.000 C 
ATOM     16  O   UNL     1      -1.500  12.117  20.898  0.00  0.00    +0.000 OA
ENDBRANCH   5   6
ENDBRANCH   4   5
ENDBRANCH   2   4
ENDBRANCH   1   2
BRANCH   1  17
ATOM     17  C   UNL     1       2.947   8.121  17.937  0.00  0.00    +0.000 C 
BRANCH  17  18
ATOM     18  O   UNL     1       2.528   6.755  18.042  0.00  0.00    +0.000 OA
BRANCH  18  19
ATOM     19  C   UNL     1       3.305   5.970  18.962  0.00  0.00    +0.000 C 
BRANCH  19  20
ATOM     20  C   UNL     1       2.462   4.847  19.551  0.00  0.00    +0.000 A 
ATOM     21  C   UNL     1       2.581   4.486  20.904  0.00  0.00    +0.000 A 
ATOM     22  C   UNL     1       1.878   3.393  21.413  0.00  0.00    +0.000 A 
ATOM     23  C   UNL     1       1.048   2.650  20.577  0.00  0.00    +0.000 A 
ATOM     24  C   UNL     1       0.909   3.003  19.237  0.00  0.00    +0.000 A 
ATOM     25  C   UNL     1       1.611   4.097  18.725  0.00  0.00    +0.000 A 
ENDBRANCH  19  20
BRANCH  19  26
ATOM     26  C   UNL     1       4.557   5.461  18.253  0.00  0.00    +0.000 A 
ATOM     27  C   UNL     1       4.488   5.041  16.914  0.00  0.00    +0.000 A 
ATOM     28  C   UNL     1       5.630   4.587  16.247  0.00  0.00    +0.000 A 
ATOM     29  C   UNL     1       6.857   4.552  16.904  0.00  0.00    +0.000 A 
ATOM     30  C   UNL     1       6.946   4.968  18.229  0.00  0.00    +0.000 A 
ATOM     31  C   UNL     1       5.806   5.418  18.899  0.00  0.00    +0.000 A 
ENDBRANCH  19  26
ENDBRANCH  18  19
ENDBRANCH  17  18
ENDBRANCH   1  17
TORSDOF 9
ENDMDL
MODEL 9
REMARK VINA RESULT:      -8.0      1.972      2.849
REMARK  Name = 
REMARK  9 active torsions:
REMARK  status: ('A' for Active; 'I' for Inactive)
REMARK    1  A    between atoms: C_2  and  C_3
REMARK    2  A    between atoms: C_2  and  O_15
REMARK    3  A    between atoms: C_3  and  N_4
REMARK    4  A    between atoms: O_15  and  C_16
REMARK    5  A    between atoms: C_16  and  C_17
REMARK    6  A    between atoms: C_17  and  O_18
REMARK    7  A    between atoms: O_18  and  C_19
REMARK    8  A    between atoms: C_19  and  C_20
REMARK    9  A    between atoms: C_19  and  C_26
REMARK                            x       y       z     vdW  Elec       q    Type
REMARK                         _______ _______ _______ _____ _____    ______ ____
ROOT
ATOM      1  C   UNL     1       1.470   8.687  18.182  0.00  0.00    +0.000 C 
ENDROOT
BRANCH   1   2
ATOM      2  O   UNL     1       1.482   9.976  18.826  0.00  0.00    +0.000 OA
BRANCH   2   4
ATOM      3  O   UNL     1      -0.701   9.750  19.486  0.00  0.00    +0.000 OA
ATOM      4  C   UNL     1       0.384  10.313  19.552  0.00  0.00    +0.000 C 
BRANCH   4   5
ATOM      5  C   UNL     1       0.720  11.453  20.501  0.00  0.00    +0.000 C 
BRANCH   5   6
ATOM      6  N   UNL     1      -0.463  11.950  21.172  0.00  0.00    +0.000 N 
ATOM      7  C   UNL     1      -0.890  11.536  22.402  0.00  0.00    +0.000 C 
ATOM      8  O   UNL     1      -0.380  10.733  23.163  0.00  0.00    +0.000 OA
ATOM      9  C   UNL     1      -2.169  12.205  22.647  0.00  0.00    +0.000 A 
ATOM     10  C   UNL     1      -3.022  12.152  23.734  0.00  0.00    +0.000 A 
ATOM     11  C   UNL     1      -4.182  12.932  23.675  0.00  0.00    +0.000 A 
ATOM     12  C   UNL     1      -4.463  13.729  22.546  0.00  0.00    +0.000 A 
ATOM     13  C   UNL     1      -3.598  13.744  21.447  0.00  0.00    +0.000 A 
ATOM     14  C   UNL     1      -2.460  12.966  21.532  0.00  0.00    +0.000 A 
ATOM     15  C   UNL     1      -1.392  12.745  20.560  0.00  0.00    +0.000 C 
ATOM     16  O   UNL     1      -1.408  13.169  19.421  0.00  0.00    +0.000 OA
ENDBRANCH   5   6
ENDBRANCH   4   5
ENDBRANCH   2   4
ENDBRANCH   1   2
BRANCH   1  17
ATOM     17  C   UNL     1       2.885   8.298  17.761  0.00  0.00    +0.000 C 
BRANCH  17  18
ATOM     18  O   UNL     1       3.292   7.161  18.532  0.00  0.00    +0.000 OA
BRANCH  18  19
ATOM     19  C   UNL     1       3.249   5.917  17.813  0.00  0.00    +0.000 C 
BRANCH  19  20
ATOM     20  C   UNL     1       4.657   5.389  17.574  0.00  0.00    +0.000 A 
ATOM     21  C   UNL     1       5.665   5.547  18.541  0.00  0.00    +0.000 A 
ATOM     22  C   UNL     1       6.975   5.150  18.275  0.00  0.00    +0.000 A 
ATOM     23  C   UNL     1       7.295   4.587  17.041  0.00  0.00    +0.000 A 
ATOM     24  C   UNL     1       6.305   4.411  16.076  0.00  0.00    +0.000 A 
ATOM     25  C   UNL     1       4.992   4.808  16.340  0.00  0.00    +0.000 A 
ENDBRANCH  19  20
BRANCH  19  26
ATOM     26  C   UNL     1       2.369   4.929  18.573  0.00  0.00    +0.000 A 
ATOM     27  C   UNL     1       1.815   3.822  17.908  0.00  0.00    +0.000 A 
ATOM     28  C   UNL     1       1.019   2.900  18.594  0.00  0.00    +0.000 A 
ATOM     29  C   UNL     1       0.770   3.066  19.955  0.00  0.00    +0.000 A 
ATOM     30  C   UNL     1       1.314   4.154  20.631  0.00  0.00    +0.000 A 
ATOM     31  C   UNL     1       2.105   5.079  19.946  0.00  0.00    +0.000 A 
ENDBRANCH  19  26
ENDBRANCH  18  19
ENDBRANCH  17  18
ENDBRANCH   1  17
TORSDOF 9
ENDMDL
