MODEL 1
REMARK VINA RESULT:      -8.5      0.000      0.000
REMARK  Name = 
REMARK  10 active torsions:
REMARK  status: ('A' for Active; 'I' for Inactive)
REMARK    1  A    between atoms: C_1  and  N_2
REMARK    2  A    between atoms: N_2  and  C_11
REMARK    3  A    between atoms: C_3  and  C_5
REMARK    4  A    between atoms: N_19  and  C_20
REMARK    5  A    between atoms: C_20  and  C_22
REMARK    6  A    between atoms: C_25  and  C_26
REMARK    7  A    between atoms: C_27  and  C_28
REMARK    8  A    between atoms: N_31  and  C_32
REMARK    9  A    between atoms: C_32  and  C_33
REMARK   10  A    between atoms: C_33  and  C_34
REMARK                            x       y       z     vdW  Elec       q    Type
REMARK                         _______ _______ _______ _____ _____    ______ ____
ROOT
ATOM      1  C   UNL     1       3.028   6.986  18.571  0.00  0.00    +0.000 A 
ATOM      2  C   UNL     1       2.585   6.547  19.844  0.00  0.00    +0.000 A 
ATOM      3  C   UNL     1       1.674   7.306  20.629  0.00  0.00    +0.000 A 
ATOM      4  C   UNL     1       1.308   8.540  20.154  0.00  0.00    +0.000 A 
ATOM      5  C   UNL     1       1.720   8.901  18.852  0.00  0.00    +0.000 A 
ATOM      6  C   UNL     1       2.512   8.147  18.025  0.00  0.00    +0.000 A 
ATOM      7  N   UNL     1       1.355  10.226  18.590  0.00  0.00    +0.000 N 
ATOM      8  C   UNL     1       0.952  10.733  19.810  0.00  0.00    +0.000 A 
ATOM      9  N   UNL     1       0.439  11.902  20.050  0.00  0.00    +0.000 NA
ATOM     10  N   UNL     1       0.824   9.697  20.774  0.00  0.00    +0.000 N 
ATOM     11  H   UNL     1       0.601  10.275  17.899  0.00  0.00    +0.000 HD
ENDROOT
BRANCH   1  13
ATOM     12  C   UNL     1       4.895   7.258  17.054  0.00  0.00    +0.000 C 
ATOM     13  N   UNL     1       4.105   6.342  17.883  0.00  0.00    +0.000 N 
ATOM     14  C   UNL     1       3.955   5.016  17.401  0.00  0.00    +0.000 C 
ATOM     15  O   UNL     1       4.486   4.585  16.368  0.00  0.00    +0.000 OA
BRANCH  14  16
ATOM     16  C   UNL     1       3.137   4.069  18.217  0.00  0.00    +0.000 A 
ATOM     17  C   UNL     1       3.738   3.376  19.275  0.00  0.00    +0.000 A 
ATOM     18  C   UNL     1       2.995   2.445  20.010  0.00  0.00    +0.000 A 
ATOM     19  C   UNL     1       1.658   2.202  19.687  0.00  0.00    +0.000 A 
ATOM     20  C   UNL     1       1.051   2.909  18.652  0.00  0.00    +0.000 A 
ATOM     21  C   UNL     1       1.781   3.857  17.940  0.00  0.00    +0.000 A 
ENDBRANCH  14  16
ENDBRANCH   1  13
BRANCH   9  22
ATOM     22  C   UNL     1      -0.049  12.527  18.952  0.00  0.00    +0.000 C 
ATOM     23  O   UNL     1       0.627  13.268  18.237  0.00  0.00    +0.000 OA
BRANCH  22  24
ATOM     24  C   UNL     1      -1.367  12.069  18.650  0.00  0.00    +0.000 A 
ATOM     25  C   UNL     1      -2.546  12.244  19.337  0.00  0.00    +0.000 A 
ATOM     26  C   UNL     1      -3.634  11.702  18.608  0.00  0.00    +0.000 A 
ATOM     27  C   UNL     1      -3.234  11.146  17.402  0.00  0.00    +0.000 A 
ATOM     28  S   UNL     1      -1.544  11.147  17.245  0.00  0.00    +0.000 S 
BRANCH  27  29
ATOM     29  C   UNL     1      -3.977  10.657  16.312  0.00  0.00    +0.000 C 
ATOM     30  C   UNL     1      -3.443  10.737  15.102  0.00  0.00    +0.000 C 
BRANCH  30  31
ATOM     31  C   UNL     1      -4.089  10.080  13.894  0.00  0.00    +0.000 C 
ATOM     32  N   UNL     1      -4.626   9.534  12.891  0.00  0.00    +0.000 NA
ENDBRANCH  30  31
ENDBRANCH  27  29
ENDBRANCH  22  24
ENDBRANCH   9  22
BRANCH  10  33
ATOM     33  C   UNL     1      -0.397  10.007  21.533  0.00  0.00    +0.000 C 
BRANCH  33  34
ATOM     34  C   UNL     1      -0.703  10.053  22.994  0.00  0.00    +0.000 C 
BRANCH  34  35
ATOM     35  C   UNL     1      -1.482  11.382  23.152  0.00  0.00    +0.000 C 
ATOM     36  N   UNL     1      -0.875  12.541  22.732  0.00  0.00    +0.000 N 
ATOM     37  O   UNL     1      -2.629  11.433  23.584  0.00  0.00    +0.000 OA
ATOM     38  H   UNL     1       0.014  12.598  22.252  0.00  0.00    +0.000 HD
ATOM     39  H   UNL     1      -1.451  13.376  22.688  0.00  0.00    +0.000 HD
ENDBRANCH  34  35
ENDBRANCH  33  34
ENDBRANCH  10  33
TORSDOF 9
ENDMDL
MODEL 2
REMARK VINA RESULT:      -8.5      2.674      4.557
REMARK  Name = 
REMARK  10 active torsions:
REMARK  status: ('A' for Active; 'I' for Inactive)
REMARK    1  A    between atoms: C_1  and  N_2
REMARK    2  A    between atoms: N_2  and  C_11
REMARK    3  A    between atoms: C_3  and  C_5
REMARK    4  A    between atoms: N_19  and  C_20
REMARK    5  A    between atoms: C_20  and  C_22
REMARK    6  A    between atoms: C_25  and  C_26
REMARK    7  A    between atoms: C_27  and  C_28
REMARK    8  A    between atoms: N_31  and  C_32
REMARK    9  A    between atoms: C_32  and  C_33
REMARK   10  A    between atoms: C_33  and  C_34
REMARK                            x       y       z     vdW  Elec       q    Type
REMARK                         _______ _______ _______ _____ _____    ______ ____
ROOT
ATOM      1  C   UNL     1       2.737   6.894  18.751  0.00  0.00    +0.000 A 
ATOM      2  C   UNL     1       2.247   6.529  20.031  0.00  0.00    +0.000 A 
ATOM      3  C   UNL     1       1.397   7.383  20.785  0.00  0.00    +0.000 A 
ATOM      4  C   UNL     1       1.141   8.630  20.274  0.00  0.00    +0.000 A 
ATOM      5  C   UNL     1       1.593   8.919  18.967  0.00  0.00    +0.000 A 
ATOM      6  C   UNL     1       2.325   8.079  18.169  0.00  0.00    +0.000 A 
ATOM      7  N   UNL     1       1.343  10.263  18.667  0.00  0.00    +0.000 N 
ATOM      8  C   UNL     1       0.974  10.835  19.869  0.00  0.00    +0.000 A 
ATOM      9  N   UNL     1       0.559  12.049  20.072  0.00  0.00    +0.000 NA
ATOM     10  N   UNL     1       0.751   9.840  20.858  0.00  0.00    +0.000 N 
ATOM     11  H   UNL     1       0.601  10.356  17.966  0.00  0.00    +0.000 HD
ENDROOT
BRANCH   1  13
ATOM     12  C   UNL     1       4.528   6.933  17.124  0.00  0.00    +0.000 C 
ATOM     13  N   UNL     1       3.762   6.143  18.092  0.00  0.00    +0.000 N 
ATOM     14  C   UNL     1       3.556   4.775  17.778  0.00  0.00    +0.000 C 
ATOM     15  O   UNL     1       4.023   4.212  16.779  0.00  0.00    +0.000 OA
BRANCH  14  16
ATOM     16  C   UNL     1       2.761   3.954  18.740  0.00  0.00    +0.000 A 
ATOM     17  C   UNL     1       1.424   3.656  18.450  0.00  0.00    +0.000 A 
ATOM     18  C   UNL     1       0.654   2.936  19.370  0.00  0.00    +0.000 A 
ATOM     19  C   UNL     1       1.215   2.519  20.579  0.00  0.00    +0.000 A 
ATOM     20  C   UNL     1       2.551   2.792  20.860  0.00  0.00    +0.000 A 
ATOM     21  C   UNL     1       3.327   3.482  19.931  0.00  0.00    +0.000 A 
ENDBRANCH  14  16
ENDBRANCH   1  13
BRANCH   9  22
ATOM     22  C   UNL     1       0.135  12.683  18.952  0.00  0.00    +0.000 C 
ATOM     23  O   UNL     1      -0.875  12.357  18.329  0.00  0.00    +0.000 OA
BRANCH  22  24
ATOM     24  C   UNL     1       0.905  13.862  18.714  0.00  0.00    +0.000 A 
ATOM     25  C   UNL     1       0.531  15.185  18.740  0.00  0.00    +0.000 A 
ATOM     26  C   UNL     1       1.656  16.026  18.547  0.00  0.00    +0.000 A 
ATOM     27  C   UNL     1       2.831  15.305  18.388  0.00  0.00    +0.000 A 
ATOM     28  S   UNL     1       2.533  13.635  18.318  0.00  0.00    +0.000 S 
BRANCH  27  29
ATOM     29  C   UNL     1       4.175  15.717  18.339  0.00  0.00    +0.000 C 
ATOM     30  C   UNL     1       5.106  14.796  18.141  0.00  0.00    +0.000 C 
BRANCH  30  31
ATOM     31  C   UNL     1       6.560  15.164  17.896  0.00  0.00    +0.000 C 
ATOM     32  N   UNL     1       7.767  15.471  17.694  0.00  0.00    +0.000 NA
ENDBRANCH  30  31
ENDBRANCH  27  29
ENDBRANCH  22  24
ENDBRANCH   9  22
BRANCH  10  33
ATOM     33  C   UNL     1      -0.447  10.272  21.595  0.00  0.00    +0.000 C 
BRANCH  33  34
ATOM     34  C   UNL     1      -0.784  10.319  23.049  0.00  0.00    +0.000 C 
BRANCH  34  35
ATOM     35  C   UNL     1      -1.627  11.612  23.176  0.00  0.00    +0.000 C 
ATOM     36  N   UNL     1      -1.029  12.808  22.859  0.00  0.00    +0.000 N 
ATOM     37  O   UNL     1      -2.812  11.604  23.493  0.00  0.00    +0.000 OA
ATOM     38  H   UNL     1      -0.099  12.916  22.473  0.00  0.00    +0.000 HD
ATOM     39  H   UNL     1      -1.630  13.623  22.788  0.00  0.00    +0.000 HD
ENDBRANCH  34  35
ENDBRANCH  33  34
ENDBRANCH  10  33
TORSDOF 9
ENDMDL
MODEL 3
REMARK VINA RESULT:      -8.2      1.113      1.400
REMARK  Name = 
REMARK  10 active torsions:
REMARK  status: ('A' for Active; 'I' for Inactive)
REMARK    1  A    between atoms: C_1  and  N_2
REMARK    2  A    between atoms: N_2  and  C_11
REMARK    3  A    between atoms: C_3  and  C_5
REMARK    4  A    between atoms: N_19  and  C_20
REMARK    5  A    between atoms: C_20  and  C_22
REMARK    6  A    between atoms: C_25  and  C_26
REMARK    7  A    between atoms: C_27  and  C_28
REMARK    8  A    between atoms: N_31  and  C_32
REMARK    9  A    between atoms: C_32  and  C_33
REMARK   10  A    between atoms: C_33  and  C_34
REMARK                            x       y       z     vdW  Elec       q    Type
REMARK                         _______ _______ _______ _____ _____    ______ ____
ROOT
ATOM      1  C   UNL     1       3.683   6.584  18.114  0.00  0.00    +0.000 A 
ATOM      2  C   UNL     1       3.114   5.943  19.244  0.00  0.00    +0.000 A 
ATOM      3  C   UNL     1       2.072   6.541  20.005  0.00  0.00    +0.000 A 
ATOM      4  C   UNL     1       1.697   7.817  19.668  0.00  0.00    +0.000 A 
ATOM      5  C   UNL     1       2.243   8.383  18.495  0.00  0.00    +0.000 A 
ATOM      6  C   UNL     1       3.172   7.792  17.677  0.00  0.00    +0.000 A 
ATOM      7  N   UNL     1       1.838   9.718  18.380  0.00  0.00    +0.000 N 
ATOM      8  C   UNL     1       1.260  10.021  19.598  0.00  0.00    +0.000 A 
ATOM      9  N   UNL     1       0.655  11.120  19.934  0.00  0.00    +0.000 NA
ATOM     10  N   UNL     1       1.075   8.849  20.379  0.00  0.00    +0.000 N 
ATOM     11  H   UNL     1       1.172   9.840  17.611  0.00  0.00    +0.000 HD
ENDROOT
BRANCH   1  13
ATOM     12  C   UNL     1       5.621   7.129  16.770  0.00  0.00    +0.000 C 
ATOM     13  N   UNL     1       4.871   6.092  17.486  0.00  0.00    +0.000 N 
ATOM     14  C   UNL     1       4.899   4.787  16.930  0.00  0.00    +0.000 C 
ATOM     15  O   UNL     1       5.549   4.471  15.925  0.00  0.00    +0.000 OA
BRANCH  14  16
ATOM     16  C   UNL     1       4.126   3.718  17.631  0.00  0.00    +0.000 A 
ATOM     17  C   UNL     1       2.905   3.289  17.097  0.00  0.00    +0.000 A 
ATOM     18  C   UNL     1       2.146   2.329  17.776  0.00  0.00    +0.000 A 
ATOM     19  C   UNL     1       2.602   1.802  18.986  0.00  0.00    +0.000 A 
ATOM     20  C   UNL     1       3.828   2.208  19.507  0.00  0.00    +0.000 A 
ATOM     21  C   UNL     1       4.598   3.141  18.817  0.00  0.00    +0.000 A 
ENDBRANCH  14  16
ENDBRANCH   1  13
BRANCH   9  22
ATOM     22  C   UNL     1       0.270  11.883  18.882  0.00  0.00    +0.000 C 
ATOM     23  O   UNL     1       1.051  12.561  18.214  0.00  0.00    +0.000 OA
BRANCH  22  24
ATOM     24  C   UNL     1      -1.100  11.647  18.559  0.00  0.00    +0.000 A 
ATOM     25  C   UNL     1      -2.243  11.943  19.265  0.00  0.00    +0.000 A 
ATOM     26  C   UNL     1      -3.396  11.621  18.507  0.00  0.00    +0.000 A 
ATOM     27  C   UNL     1      -3.079  11.101  17.261  0.00  0.00    +0.000 A 
ATOM     28  S   UNL     1      -1.407  10.864  17.092  0.00  0.00    +0.000 S 
BRANCH  27  29
ATOM     29  C   UNL     1      -3.883  10.806  16.145  0.00  0.00    +0.000 C 
ATOM     30  C   UNL     1      -3.283  10.492  15.006  0.00  0.00    +0.000 C 
BRANCH  30  31
ATOM     31  C   UNL     1      -4.062   9.989  13.802  0.00  0.00    +0.000 C 
ATOM     32  N   UNL     1      -4.707   9.572  12.802  0.00  0.00    +0.000 NA
ENDBRANCH  30  31
ENDBRANCH  27  29
ENDBRANCH  22  24
ENDBRANCH   9  22
BRANCH  10  33
ATOM     33  C   UNL     1      -0.246   8.994  21.010  0.00  0.00    +0.000 C 
BRANCH  33  34
ATOM     34  C   UNL     1      -0.779   8.616  22.352  0.00  0.00    +0.000 C 
BRANCH  34  35
ATOM     35  C   UNL     1      -0.329   9.789  23.258  0.00  0.00    +0.000 C 
ATOM     36  N   UNL     1      -1.061  10.951  23.222  0.00  0.00    +0.000 N 
ATOM     37  O   UNL     1       0.614   9.702  24.038  0.00  0.00    +0.000 OA
ATOM     38  H   UNL     1      -1.923  11.087  22.709  0.00  0.00    +0.000 HD
ATOM     39  H   UNL     1      -0.860  11.648  23.932  0.00  0.00    +0.000 HD
ENDBRANCH  34  35
ENDBRANCH  33  34
ENDBRANCH  10  33
TORSDOF 9
ENDMDL
MODEL 4
REMARK VINA RESULT:      -8.1      3.278      5.294
REMARK  Name = 
REMARK  10 active torsions:
REMARK  status: ('A' for Active; 'I' for Inactive)
REMARK    1  A    between atoms: C_1  and  N_2
REMARK    2  A    between atoms: N_2  and  C_11
REMARK    3  A    between atoms: C_3  and  C_5
REMARK    4  A    between atoms: N_19  and  C_20
REMARK    5  A    between atoms: C_20  and  C_22
REMARK    6  A    between atoms: C_25  and  C_26
REMARK    7  A    between atoms: C_27  and  C_28
REMARK    8  A    between atoms: N_31  and  C_32
REMARK    9  A    between atoms: C_32  and  C_33
REMARK   10  A    between atoms: C_33  and  C_34
REMARK                            x       y       z     vdW  Elec       q    Type
REMARK                         _______ _______ _______ _____ _____    ______ ____
ROOT
ATOM      1  C   UNL     1       2.348   6.006  19.391  0.00  0.00    +0.000 A 
ATOM      2  C   UNL     1       2.627   6.723  18.200  0.00  0.00    +0.000 A 
ATOM      3  C   UNL     1       2.355   8.113  18.076  0.00  0.00    +0.000 A 
ATOM      4  C   UNL     1       1.715   8.727  19.123  0.00  0.00    +0.000 A 
ATOM      5  C   UNL     1       1.523   7.988  20.311  0.00  0.00    +0.000 A 
ATOM      6  C   UNL     1       1.869   6.675  20.502  0.00  0.00    +0.000 A 
ATOM      7  N   UNL     1       0.758   8.734  21.215  0.00  0.00    +0.000 N 
ATOM      8  C   UNL     1       0.287   9.806  20.482  0.00  0.00    +0.000 A 
ATOM      9  N   UNL     1      -0.397  10.821  20.918  0.00  0.00    +0.000 NA
ATOM     10  N   UNL     1       0.930   9.881  19.219  0.00  0.00    +0.000 N 
ATOM     11  H   UNL     1       1.322   9.046  22.011  0.00  0.00    +0.000 HD
ENDROOT
BRANCH   1  13
ATOM     12  C   UNL     1       1.329   3.977  20.231  0.00  0.00    +0.000 C 
ATOM     13  N   UNL     1       2.411   4.577  19.444  0.00  0.00    +0.000 N 
ATOM     14  C   UNL     1       3.666   3.917  19.479  0.00  0.00    +0.000 C 
ATOM     15  O   UNL     1       3.879   2.857  20.083  0.00  0.00    +0.000 OA
BRANCH  14  16
ATOM     16  C   UNL     1       4.790   4.520  18.701  0.00  0.00    +0.000 A 
ATOM     17  C   UNL     1       4.835   4.351  17.312  0.00  0.00    +0.000 A 
ATOM     18  C   UNL     1       5.913   4.864  16.582  0.00  0.00    +0.000 A 
ATOM     19  C   UNL     1       6.945   5.538  17.236  0.00  0.00    +0.000 A 
ATOM     20  C   UNL     1       6.891   5.730  18.614  0.00  0.00    +0.000 A 
ATOM     21  C   UNL     1       5.804   5.247  19.338  0.00  0.00    +0.000 A 
ENDBRANCH  14  16
ENDBRANCH   1  13
BRANCH   9  22
ATOM     22  C   UNL     1      -0.335  10.994  22.261  0.00  0.00    +0.000 C 
ATOM     23  O   UNL     1       0.411  10.345  22.994  0.00  0.00    +0.000 OA
BRANCH  22  24
ATOM     24  C   UNL     1      -1.100  12.130  22.662  0.00  0.00    +0.000 A 
ATOM     25  C   UNL     1      -0.825  13.473  22.545  0.00  0.00    +0.000 A 
ATOM     26  C   UNL     1      -1.925  14.249  22.986  0.00  0.00    +0.000 A 
ATOM     27  C   UNL     1      -2.986  13.464  23.412  0.00  0.00    +0.000 A 
ATOM     28  S   UNL     1      -2.578  11.817  23.421  0.00  0.00    +0.000 S 
BRANCH  27  29
ATOM     29  C   UNL     1      -4.306  13.798  23.766  0.00  0.00    +0.000 C 
ATOM     30  C   UNL     1      -5.275  12.958  23.435  0.00  0.00    +0.000 C 
BRANCH  30  31
ATOM     31  C   UNL     1      -6.701  13.144  23.926  0.00  0.00    +0.000 C 
ATOM     32  N   UNL     1      -7.885  13.299  24.335  0.00  0.00    +0.000 NA
ENDBRANCH  30  31
ENDBRANCH  27  29
ENDBRANCH  22  24
ENDBRANCH   9  22
BRANCH  10  33
ATOM     33  C   UNL     1       1.194  11.310  18.989  0.00  0.00    +0.000 C 
BRANCH  33  34
ATOM     34  C   UNL     1       2.261  12.041  18.242  0.00  0.00    +0.000 C 
BRANCH  34  35
ATOM     35  C   UNL     1       2.179  13.476  18.819  0.00  0.00    +0.000 C 
ATOM     36  N   UNL     1       3.341  14.063  19.259  0.00  0.00    +0.000 N 
ATOM     37  O   UNL     1       1.137  14.122  18.847  0.00  0.00    +0.000 OA
ATOM     38  H   UNL     1       4.269  13.669  19.171  0.00  0.00    +0.000 HD
ATOM     39  H   UNL     1       3.305  15.053  19.480  0.00  0.00    +0.000 HD
ENDBRANCH  34  35
ENDBRANCH  33  34
ENDBRANCH  10  33
TORSDOF 9
ENDMDL
MODEL 5
REMARK VINA RESULT:      -8.1      2.812      5.220
REMARK  Name = 
REMARK  10 active torsions:
REMARK  status: ('A' for Active; 'I' for Inactive)
REMARK    1  A    between atoms: C_1  and  N_2
REMARK    2  A    between atoms: N_2  and  C_11
REMARK    3  A    between atoms: C_3  and  C_5
REMARK    4  A    between atoms: N_19  and  C_20
REMARK    5  A    between atoms: C_20  and  C_22
REMARK    6  A    between atoms: C_25  and  C_26
REMARK    7  A    between atoms: C_27  and  C_28
REMARK    8  A    between atoms: N_31  and  C_32
REMARK    9  A    between atoms: C_32  and  C_33
REMARK   10  A    between atoms: C_33  and  C_34
REMARK                            x       y       z     vdW  Elec       q    Type
REMARK                         _______ _______ _______ _____ _____    ______ ____
ROOT
ATOM      1  C   UNL     1       2.387   6.094  19.277  0.00  0.00    +0.000 A 
ATOM      2  C   UNL     1       2.618   6.878  18.118  0.00  0.00    +0.000 A 
ATOM      3  C   UNL     1       2.299   8.262  18.068  0.00  0.00    +0.000 A 
ATOM      4  C   UNL     1       1.662   8.803  19.156  0.00  0.00    +0.000 A 
ATOM      5  C   UNL     1       1.518   8.000  20.310  0.00  0.00    +0.000 A 
ATOM      6  C   UNL     1       1.910   6.692  20.429  0.00  0.00    +0.000 A 
ATOM      7  N   UNL     1       0.748   8.676  21.263  0.00  0.00    +0.000 N 
ATOM      8  C   UNL     1       0.228   9.766  20.594  0.00  0.00    +0.000 A 
ATOM      9  N   UNL     1      -0.479  10.736  21.092  0.00  0.00    +0.000 NA
ATOM     10  N   UNL     1       0.842   9.924  19.324  0.00  0.00    +0.000 N 
ATOM     11  H   UNL     1       1.318   8.968  22.063  0.00  0.00    +0.000 HD
ENDROOT
BRANCH   1  13
ATOM     12  C   UNL     1       1.477   3.996  20.069  0.00  0.00    +0.000 C 
ATOM     13  N   UNL     1       2.497   4.667  19.258  0.00  0.00    +0.000 N 
ATOM     14  C   UNL     1       3.772   4.048  19.198  0.00  0.00    +0.000 C 
ATOM     15  O   UNL     1       4.049   2.969  19.739  0.00  0.00    +0.000 OA
BRANCH  14  16
ATOM     16  C   UNL     1       4.834   4.724  18.394  0.00  0.00    +0.000 A 
ATOM     17  C   UNL     1       5.841   5.444  19.048  0.00  0.00    +0.000 A 
ATOM     18  C   UNL     1       6.807   6.127  18.302  0.00  0.00    +0.000 A 
ATOM     19  C   UNL     1       6.766   6.097  16.907  0.00  0.00    +0.000 A 
ATOM     20  C   UNL     1       5.782   5.362  16.252  0.00  0.00    +0.000 A 
ATOM     21  C   UNL     1       4.837   4.657  16.994  0.00  0.00    +0.000 A 
ENDBRANCH  14  16
ENDBRANCH   1  13
BRANCH   9  22
ATOM     22  C   UNL     1      -0.394  10.845  22.441  0.00  0.00    +0.000 C 
ATOM     23  O   UNL     1       0.336  10.138  23.134  0.00  0.00    +0.000 OA
BRANCH  22  24
ATOM     24  C   UNL     1      -1.114  11.988  22.903  0.00  0.00    +0.000 A 
ATOM     25  C   UNL     1      -0.757  13.317  22.916  0.00  0.00    +0.000 A 
ATOM     26  C   UNL     1      -1.832  14.119  23.371  0.00  0.00    +0.000 A 
ATOM     27  C   UNL     1      -2.957  13.367  23.678  0.00  0.00    +0.000 A 
ATOM     28  S   UNL     1      -2.644  11.703  23.562  0.00  0.00    +0.000 S 
BRANCH  27  29
ATOM     29  C   UNL     1      -4.272  13.750  23.998  0.00  0.00    +0.000 C 
ATOM     30  C   UNL     1      -5.266  12.965  23.610  0.00  0.00    +0.000 C 
BRANCH  30  31
ATOM     31  C   UNL     1      -6.698  13.201  24.059  0.00  0.00    +0.000 C 
ATOM     32  N   UNL     1      -7.887  13.396  24.431  0.00  0.00    +0.000 NA
ENDBRANCH  30  31
ENDBRANCH  27  29
ENDBRANCH  22  24
ENDBRANCH   9  22
BRANCH  10  33
ATOM     33  C   UNL     1       1.055  11.371  19.160  0.00  0.00    +0.000 C 
BRANCH  33  34
ATOM     34  C   UNL     1       0.656  12.345  18.100  0.00  0.00    +0.000 C 
BRANCH  34  35
ATOM     35  C   UNL     1      -0.864  12.521  18.333  0.00  0.00    +0.000 C 
ATOM     36  N   UNL     1      -1.271  13.375  19.329  0.00  0.00    +0.000 N 
ATOM     37  O   UNL     1      -1.711  11.974  17.634  0.00  0.00    +0.000 OA
ATOM     38  H   UNL     1      -0.663  13.965  19.882  0.00  0.00    +0.000 HD
ATOM     39  H   UNL     1      -2.258  13.608  19.366  0.00  0.00    +0.000 HD
ENDBRANCH  34  35
ENDBRANCH  33  34
ENDBRANCH  10  33
TORSDOF 9
ENDMDL
MODEL 6
REMARK VINA RESULT:      -8.1      1.998      3.068
REMARK  Name = 
REMARK  10 active torsions:
REMARK  status: ('A' for Active; 'I' for Inactive)
REMARK    1  A    between atoms: C_1  and  N_2
REMARK    2  A    between atoms: N_2  and  C_11
REMARK    3  A    between atoms: C_3  and  C_5
REMARK    4  A    between atoms: N_19  and  C_20
REMARK    5  A    between atoms: C_20  and  C_22
REMARK    6  A    between atoms: C_25  and  C_26
REMARK    7  A    between atoms: C_27  and  C_28
REMARK    8  A    between atoms: N_31  and  C_32
REMARK    9  A    between atoms: C_32  and  C_33
REMARK   10  A    between atoms: C_33  and  C_34
REMARK                            x       y       z     vdW  Elec       q    Type
REMARK                         _______ _______ _______ _____ _____    ______ ____
ROOT
ATOM      1  C   UNL     1       2.858   6.891  18.701  0.00  0.00    +0.000 A 
ATOM      2  C   UNL     1       2.419   6.473  19.983  0.00  0.00    +0.000 A 
ATOM      3  C   UNL     1       1.539   7.262  20.773  0.00  0.00    +0.000 A 
ATOM      4  C   UNL     1       1.202   8.502  20.295  0.00  0.00    +0.000 A 
ATOM      5  C   UNL     1       1.607   8.843  18.985  0.00  0.00    +0.000 A 
ATOM      6  C   UNL     1       2.367   8.062  18.153  0.00  0.00    +0.000 A 
ATOM      7  N   UNL     1       1.276  10.176  18.718  0.00  0.00    +0.000 N 
ATOM      8  C   UNL     1       0.902  10.702  19.940  0.00  0.00    +0.000 A 
ATOM      9  N   UNL     1       0.425  11.886  20.178  0.00  0.00    +0.000 NA
ATOM     10  N   UNL     1       0.758   9.677  20.912  0.00  0.00    +0.000 N 
ATOM     11  H   UNL     1       0.514  10.242  18.036  0.00  0.00    +0.000 HD
ENDROOT
BRANCH   1  13
ATOM     12  C   UNL     1       4.680   7.091  17.120  0.00  0.00    +0.000 C 
ATOM     13  N   UNL     1       3.908   6.213  18.004  0.00  0.00    +0.000 N 
ATOM     14  C   UNL     1       3.732   4.872  17.575  0.00  0.00    +0.000 C 
ATOM     15  O   UNL     1       4.227   4.400  16.543  0.00  0.00    +0.000 OA
BRANCH  14  16
ATOM     16  C   UNL     1       2.932   3.962  18.449  0.00  0.00    +0.000 A 
ATOM     17  C   UNL     1       1.624   3.627  18.080  0.00  0.00    +0.000 A 
ATOM     18  C   UNL     1       0.847   2.821  18.921  0.00  0.00    +0.000 A 
ATOM     19  C   UNL     1       1.372   2.357  20.129  0.00  0.00    +0.000 A 
ATOM     20  C   UNL     1       2.681   2.668  20.487  0.00  0.00    +0.000 A 
ATOM     21  C   UNL     1       3.465   3.444  19.637  0.00  0.00    +0.000 A 
ENDBRANCH  14  16
ENDBRANCH   1  13
BRANCH   9  22
ATOM     22  C   UNL     1      -0.059  12.518  19.081  0.00  0.00    +0.000 C 
ATOM     23  O   UNL     1       0.654  12.937  18.170  0.00  0.00    +0.000 OA
BRANCH  22  24
ATOM     24  C   UNL     1      -1.485  12.461  19.051  0.00  0.00    +0.000 A 
ATOM     25  C   UNL     1      -2.327  11.673  18.300  0.00  0.00    +0.000 A 
ATOM     26  C   UNL     1      -3.677  11.881  18.679  0.00  0.00    +0.000 A 
ATOM     27  C   UNL     1      -3.799  12.812  19.700  0.00  0.00    +0.000 A 
ATOM     28  S   UNL     1      -2.307  13.529  20.072  0.00  0.00    +0.000 S 
BRANCH  27  29
ATOM     29  C   UNL     1      -4.905  13.195  20.481  0.00  0.00    +0.000 C 
ATOM     30  C   UNL     1      -5.402  12.316  21.338  0.00  0.00    +0.000 C 
BRANCH  30  31
ATOM     31  C   UNL     1      -6.476  12.695  22.344  0.00  0.00    +0.000 C 
ATOM     32  N   UNL     1      -7.367  13.010  23.179  0.00  0.00    +0.000 NA
ENDBRANCH  30  31
ENDBRANCH  27  29
ENDBRANCH  22  24
ENDBRANCH   9  22
BRANCH  10  33
ATOM     33  C   UNL     1      -0.445  10.025  21.684  0.00  0.00    +0.000 C 
BRANCH  33  34
ATOM     34  C   UNL     1      -0.707  10.177  23.147  0.00  0.00    +0.000 C 
BRANCH  34  35
ATOM     35  C   UNL     1      -1.365  11.575  23.247  0.00  0.00    +0.000 C 
ATOM     36  N   UNL     1      -2.728  11.638  23.406  0.00  0.00    +0.000 N 
ATOM     37  O   UNL     1      -0.716  12.616  23.244  0.00  0.00    +0.000 OA
ATOM     38  H   UNL     1      -3.342  10.844  23.542  0.00  0.00    +0.000 HD
ATOM     39  H   UNL     1      -3.127  12.543  23.633  0.00  0.00    +0.000 HD
ENDBRANCH  34  35
ENDBRANCH  33  34
ENDBRANCH  10  33
TORSDOF 9
ENDMDL
MODEL 7
REMARK VINA RESULT:      -8.0      2.762      5.832
REMARK  Name = 
REMARK  10 active torsions:
REMARK  status: ('A' for Active; 'I' for Inactive)
REMARK    1  A    between atoms: C_1  and  N_2
REMARK    2  A    between atoms: N_2  and  C_11
REMARK    3  A    between atoms: C_3  and  C_5
REMARK    4  A    between atoms: N_19  and  C_20
REMARK    5  A    between atoms: C_20  and  C_22
REMARK    6  A    between atoms: C_25  and  C_26
REMARK    7  A    between atoms: C_27  and  C_28
REMARK    8  A    between atoms: N_31  and  C_32
REMARK    9  A    between atoms: C_32  and  C_33
REMARK   10  A    between atoms: C_33  and  C_34
REMARK                            x       y       z     vdW  Elec       q    Type
REMARK                         _______ _______ _______ _____ _____    ______ ____
ROOT
ATOM      1  C   UNL     1       2.274   6.074  19.412  0.00  0.00    +0.000 A 
ATOM      2  C   UNL     1       2.633   6.880  18.302  0.00  0.00    +0.000 A 
ATOM      3  C   UNL     1       2.375   8.278  18.270  0.00  0.00    +0.000 A 
ATOM      4  C   UNL     1       1.669   8.814  19.317  0.00  0.00    +0.000 A 
ATOM      5  C   UNL     1       1.396   7.985  20.428  0.00  0.00    +0.000 A 
ATOM      6  C   UNL     1       1.725   6.659  20.538  0.00  0.00    +0.000 A 
ATOM      7  N   UNL     1       0.575   8.665  21.335  0.00  0.00    +0.000 N 
ATOM      8  C   UNL     1       0.157   9.795  20.660  0.00  0.00    +0.000 A 
ATOM      9  N   UNL     1      -0.550  10.779  21.128  0.00  0.00    +0.000 NA
ATOM     10  N   UNL     1       0.883   9.963  19.451  0.00  0.00    +0.000 N 
ATOM     11  H   UNL     1       1.086   8.909  22.189  0.00  0.00    +0.000 HD
ENDROOT
BRANCH   1  13
ATOM     12  C   UNL     1       1.281   3.993  20.147  0.00  0.00    +0.000 C 
ATOM     13  N   UNL     1       2.329   4.645  19.356  0.00  0.00    +0.000 N 
ATOM     14  C   UNL     1       3.579   3.979  19.284  0.00  0.00    +0.000 C 
ATOM     15  O   UNL     1       3.813   2.877  19.798  0.00  0.00    +0.000 OA
BRANCH  14  16
ATOM     16  C   UNL     1       4.670   4.634  18.500  0.00  0.00    +0.000 A 
ATOM     17  C   UNL     1       5.723   5.262  19.176  0.00  0.00    +0.000 A 
ATOM     18  C   UNL     1       6.719   5.926  18.452  0.00  0.00    +0.000 A 
ATOM     19  C   UNL     1       6.661   5.969  17.058  0.00  0.00    +0.000 A 
ATOM     20  C   UNL     1       5.630   5.324  16.381  0.00  0.00    +0.000 A 
ATOM     21  C   UNL     1       4.655   4.636  17.099  0.00  0.00    +0.000 A 
ENDBRANCH  14  16
ENDBRANCH   1  13
BRANCH   9  22
ATOM     22  C   UNL     1      -0.577  10.846  22.481  0.00  0.00    +0.000 C 
ATOM     23  O   UNL     1       0.150  10.169  23.208  0.00  0.00    +0.000 OA
BRANCH  22  24
ATOM     24  C   UNL     1      -1.413  11.917  22.919  0.00  0.00    +0.000 A 
ATOM     25  C   UNL     1      -2.668  11.890  23.482  0.00  0.00    +0.000 A 
ATOM     26  C   UNL     1      -3.074  13.194  23.861  0.00  0.00    +0.000 A 
ATOM     27  C   UNL     1      -2.110  14.149  23.574  0.00  0.00    +0.000 A 
ATOM     28  S   UNL     1      -0.807  13.482  22.715  0.00  0.00    +0.000 S 
BRANCH  27  29
ATOM     29  C   UNL     1      -2.019  15.510  23.918  0.00  0.00    +0.000 C 
ATOM     30  C   UNL     1      -2.316  15.864  25.159  0.00  0.00    +0.000 C 
BRANCH  30  31
ATOM     31  C   UNL     1      -2.078  17.275  25.671  0.00  0.00    +0.000 C 
ATOM     32  N   UNL     1      -1.881  18.446  26.096  0.00  0.00    +0.000 NA
ENDBRANCH  30  31
ENDBRANCH  27  29
ENDBRANCH  22  24
ENDBRANCH   9  22
BRANCH  10  33
ATOM     33  C   UNL     1       1.166  11.403  19.352  0.00  0.00    +0.000 C 
BRANCH  33  34
ATOM     34  C   UNL     1       1.097  12.379  18.223  0.00  0.00    +0.000 C 
BRANCH  34  35
ATOM     35  C   UNL     1      -0.340  12.947  18.332  0.00  0.00    +0.000 C 
ATOM     36  N   UNL     1      -1.284  12.491  17.445  0.00  0.00    +0.000 N 
ATOM     37  O   UNL     1      -0.676  13.739  19.207  0.00  0.00    +0.000 OA
ATOM     38  H   UNL     1      -1.146  11.753  16.766  0.00  0.00    +0.000 HD
ATOM     39  H   UNL     1      -2.251  12.743  17.627  0.00  0.00    +0.000 HD
ENDBRANCH  34  35
ENDBRANCH  33  34
ENDBRANCH  10  33
TORSDOF 9
ENDMDL
MODEL 8
REMARK VINA RESULT:      -8.0      3.067      4.966
REMARK  Name = 
REMARK  10 active torsions:
REMARK  status: ('A' for Active; 'I' for Inactive)
REMARK    1  A    between atoms: C_1  and  N_2
REMARK    2  A    between atoms: N_2  and  C_11
REMARK    3  A    between atoms: C_3  and  C_5
REMARK    4  A    between atoms: N_19  and  C_20
REMARK    5  A    between atoms: C_20  and  C_22
REMARK    6  A    between atoms: C_25  and  C_26
REMARK    7  A    between atoms: C_27  and  C_28
REMARK    8  A    between atoms: N_31  and  C_32
REMARK    9  A    between atoms: C_32  and  C_33
REMARK   10  A    between atoms: C_33  and  C_34
REMARK                            x       y       z     vdW  Elec       q    Type
REMARK                         _______ _______ _______ _____ _____    ______ ____
ROOT
ATOM      1  C   UNL     1       2.833   7.195  18.474  0.00  0.00    +0.000 A 
ATOM      2  C   UNL     1       2.241   6.841  19.713  0.00  0.00    +0.000 A 
ATOM      3  C   UNL     1       1.396   7.733  20.428  0.00  0.00    +0.000 A 
ATOM      4  C   UNL     1       1.246   9.000  19.924  0.00  0.00    +0.000 A 
ATOM      5  C   UNL     1       1.798   9.281  18.654  0.00  0.00    +0.000 A 
ATOM      6  C   UNL     1       2.530   8.410  17.889  0.00  0.00    +0.000 A 
ATOM      7  N   UNL     1       1.648  10.642  18.363  0.00  0.00    +0.000 N 
ATOM      8  C   UNL     1       1.236  11.217  19.549  0.00  0.00    +0.000 A 
ATOM      9  N   UNL     1       0.880  12.450  19.748  0.00  0.00    +0.000 NA
ATOM     10  N   UNL     1       0.891  10.223  20.504  0.00  0.00    +0.000 N 
ATOM     11  H   UNL     1       0.959  10.789  17.619  0.00  0.00    +0.000 HD
ENDROOT
BRANCH   1  13
ATOM     12  C   UNL     1       4.665   7.128  16.894  0.00  0.00    +0.000 C 
ATOM     13  N   UNL     1       3.852   6.394  17.868  0.00  0.00    +0.000 N 
ATOM     14  C   UNL     1       3.616   5.022  17.595  0.00  0.00    +0.000 C 
ATOM     15  O   UNL     1       4.091   4.412  16.627  0.00  0.00    +0.000 OA
BRANCH  14  16
ATOM     16  C   UNL     1       2.774   4.256  18.562  0.00  0.00    +0.000 A 
ATOM     17  C   UNL     1       1.459   3.921  18.216  0.00  0.00    +0.000 A 
ATOM     18  C   UNL     1       0.644   3.254  19.137  0.00  0.00    +0.000 A 
ATOM     19  C   UNL     1       1.137   2.928  20.402  0.00  0.00    +0.000 A 
ATOM     20  C   UNL     1       2.452   3.237  20.741  0.00  0.00    +0.000 A 
ATOM     21  C   UNL     1       3.273   3.874  19.814  0.00  0.00    +0.000 A 
ENDBRANCH  14  16
ENDBRANCH   1  13
BRANCH   9  22
ATOM     22  C   UNL     1       0.567  13.125  18.615  0.00  0.00    +0.000 C 
ATOM     23  O   UNL     1      -0.353  12.800  17.865  0.00  0.00    +0.000 OA
BRANCH  22  24
ATOM     24  C   UNL     1       1.318  14.335  18.522  0.00  0.00    +0.000 A 
ATOM     25  C   UNL     1       0.939  15.636  18.761  0.00  0.00    +0.000 A 
ATOM     26  C   UNL     1       2.049  16.510  18.645  0.00  0.00    +0.000 A 
ATOM     27  C   UNL     1       3.219  15.835  18.328  0.00  0.00    +0.000 A 
ATOM     28  S   UNL     1       2.927  14.191  18.024  0.00  0.00    +0.000 S 
BRANCH  27  29
ATOM     29  C   UNL     1       4.557  16.267  18.280  0.00  0.00    +0.000 C 
ATOM     30  C   UNL     1       5.507  15.400  18.595  0.00  0.00    +0.000 C 
BRANCH  30  31
ATOM     31  C   UNL     1       6.980  15.719  18.403  0.00  0.00    +0.000 C 
ATOM     32  N   UNL     1       8.203  15.984  18.243  0.00  0.00    +0.000 NA
ENDBRANCH  30  31
ENDBRANCH  27  29
ENDBRANCH  22  24
ENDBRANCH   9  22
BRANCH  10  33
ATOM     33  C   UNL     1      -0.324  10.715  21.172  0.00  0.00    +0.000 C 
BRANCH  33  34
ATOM     34  C   UNL     1      -0.671  10.956  22.604  0.00  0.00    +0.000 C 
BRANCH  34  35
ATOM     35  C   UNL     1      -0.237   9.643  23.301  0.00  0.00    +0.000 C 
ATOM     36  N   UNL     1      -0.849   8.475  22.918  0.00  0.00    +0.000 N 
ATOM     37  O   UNL     1       0.662   9.600  24.136  0.00  0.00    +0.000 OA
ATOM     38  H   UNL     1      -1.513   8.380  22.159  0.00  0.00    +0.000 HD
ATOM     39  H   UNL     1      -0.448   7.608  23.259  0.00  0.00    +0.000 HD
ENDBRANCH  34  35
ENDBRANCH  33  34
ENDBRANCH  10  33
TORSDOF 9
ENDMDL
MODEL 9
REMARK VINA RESULT:      -7.9      3.094      4.998
REMARK  Name = 
REMARK  10 active torsions:
REMARK  status: ('A' for Active; 'I' for Inactive)
REMARK    1  A    between atoms: C_1  and  N_2
REMARK    2  A    between atoms: N_2  and  C_11
REMARK    3  A    between atoms: C_3  and  C_5
REMARK    4  A    between atoms: N_19  and  C_20
REMARK    5  A    between atoms: C_20  and  C_22
REMARK    6  A    between atoms: C_25  and  C_26
REMARK    7  A    between atoms: C_27  and  C_28
REMARK    8  A    between atoms: N_31  and  C_32
REMARK    9  A    between atoms: C_32  and  C_33
REMARK   10  A    between atoms: C_33  and  C_34
REMARK                            x       y       z     vdW  Elec       q    Type
REMARK                         _______ _______ _______ _____ _____    ______ ____
ROOT
ATOM      1  C   UNL     1       2.779   7.220  18.545  0.00  0.00    +0.000 A 
ATOM      2  C   UNL     1       2.229   6.894  19.811  0.00  0.00    +0.000 A 
ATOM      3  C   UNL     1       1.393   7.795  20.525  0.00  0.00    +0.000 A 
ATOM      4  C   UNL     1       1.211   9.045  19.991  0.00  0.00    +0.000 A 
ATOM      5  C   UNL     1       1.720   9.297  18.698  0.00  0.00    +0.000 A 
ATOM      6  C   UNL     1       2.440   8.414  17.935  0.00  0.00    +0.000 A 
ATOM      7  N   UNL     1       1.542  10.646  18.373  0.00  0.00    +0.000 N 
ATOM      8  C   UNL     1       1.157  11.249  19.555  0.00  0.00    +0.000 A 
ATOM      9  N   UNL     1       0.791  12.483  19.730  0.00  0.00    +0.000 NA
ATOM     10  N   UNL     1       0.856  10.279  20.547  0.00  0.00    +0.000 N 
ATOM     11  H   UNL     1       0.829  10.764  17.646  0.00  0.00    +0.000 HD
ENDROOT
BRANCH   1  13
ATOM     12  C   UNL     1       4.580   7.140  16.930  0.00  0.00    +0.000 C 
ATOM     13  N   UNL     1       3.790   6.416  17.930  0.00  0.00    +0.000 N 
ATOM     14  C   UNL     1       3.557   5.039  17.682  0.00  0.00    +0.000 C 
ATOM     15  O   UNL     1       4.017   4.417  16.715  0.00  0.00    +0.000 OA
BRANCH  14  16
ATOM     16  C   UNL     1       2.738   4.283  18.677  0.00  0.00    +0.000 A 
ATOM     17  C   UNL     1       3.293   3.957  19.920  0.00  0.00    +0.000 A 
ATOM     18  C   UNL     1       2.554   3.200  20.837  0.00  0.00    +0.000 A 
ATOM     19  C   UNL     1       1.267   2.767  20.512  0.00  0.00    +0.000 A 
ATOM     20  C   UNL     1       0.702   3.111  19.287  0.00  0.00    +0.000 A 
ATOM     21  C   UNL     1       1.425   3.889  18.386  0.00  0.00    +0.000 A 
ENDBRANCH  14  16
ENDBRANCH   1  13
BRANCH   9  22
ATOM     22  C   UNL     1       0.434  13.121  18.588  0.00  0.00    +0.000 C 
ATOM     23  O   UNL     1      -0.439  12.709  17.825  0.00  0.00    +0.000 OA
BRANCH  22  24
ATOM     24  C   UNL     1       1.070  14.396  18.500  0.00  0.00    +0.000 A 
ATOM     25  C   UNL     1       0.570  15.656  18.735  0.00  0.00    +0.000 A 
ATOM     26  C   UNL     1       1.595  16.629  18.627  0.00  0.00    +0.000 A 
ATOM     27  C   UNL     1       2.825  16.066  18.320  0.00  0.00    +0.000 A 
ATOM     28  S   UNL     1       2.690  14.402  18.014  0.00  0.00    +0.000 S 
BRANCH  27  29
ATOM     29  C   UNL     1       4.117  16.620  18.282  0.00  0.00    +0.000 C 
ATOM     30  C   UNL     1       4.658  17.029  19.420  0.00  0.00    +0.000 C 
BRANCH  30  31
ATOM     31  C   UNL     1       6.108  17.474  19.505  0.00  0.00    +0.000 C 
ATOM     32  N   UNL     1       7.312  17.844  19.576  0.00  0.00    +0.000 NA
ENDBRANCH  30  31
ENDBRANCH  27  29
ENDBRANCH  22  24
ENDBRANCH   9  22
BRANCH  10  33
ATOM     33  C   UNL     1      -0.345  10.773  21.237  0.00  0.00    +0.000 C 
BRANCH  33  34
ATOM     34  C   UNL     1      -0.680  10.976  22.679  0.00  0.00    +0.000 C 
BRANCH  34  35
ATOM     35  C   UNL     1      -0.229   9.650  23.338  0.00  0.00    +0.000 C 
ATOM     36  N   UNL     1      -0.862   8.491  22.959  0.00  0.00    +0.000 N 
ATOM     37  O   UNL     1       0.699   9.588  24.139  0.00  0.00    +0.000 OA
ATOM     38  H   UNL     1      -1.553   8.413  22.223  0.00  0.00    +0.000 HD
ATOM     39  H   UNL     1      -0.454   7.616  23.271  0.00  0.00    +0.000 HD
ENDBRANCH  34  35
ENDBRANCH  33  34
ENDBRANCH  10  33
TORSDOF 9
ENDMDL
