MODEL 1
REMARK VINA RESULT:      -6.3      0.000      0.000
REMARK  Name = 
REMARK  5 active torsions:
REMARK  status: ('A' for Active; 'I' for Inactive)
REMARK    1  A    between atoms: C_2  and  C_3
REMARK    2  A    between atoms: C_3  and  N_4
REMARK    3  A    between atoms: N_10  and  C_11
REMARK    4  A    between atoms: C_11  and  C_12
REMARK    5  A    between atoms: C_12  and  N_13
REMARK                            x       y       z     vdW  Elec       q    Type
REMARK                         _______ _______ _______ _____ _____    ______ ____
ROOT
ATOM      1  O   UNL     1       3.428   4.633  17.140  0.00  0.00    +0.000 OA
ATOM      2  C   UNL     1       4.503   4.127  16.860  0.00  0.00    +0.000 C 
ATOM      3  N   UNL     1       4.703   2.788  17.065  0.00  0.00    +0.000 N 
ATOM      4  H   UNL     1       5.682   2.506  17.227  0.00  0.00    +0.000 HD
ENDROOT
BRANCH   2   5
ATOM      5  C   UNL     1       5.683   4.901  16.224  0.00  0.00    +0.000 C 
BRANCH   5   6
ATOM      6  N   UNL     1       6.460   5.708  17.160  0.00  0.00    +0.000 N 
ATOM      7  C   UNL     1       6.390   7.149  17.179  0.00  0.00    +0.000 C 
ATOM      8  C   UNL     1       7.682   7.576  17.863  0.00  0.00    +0.000 C 
ATOM      9  C   UNL     1       8.040   6.377  18.722  0.00  0.00    +0.000 C 
ATOM     10  C   UNL     1       7.597   5.255  17.821  0.00  0.00    +0.000 C 
ATOM     11  O   UNL     1       8.141   4.171  17.715  0.00  0.00    +0.000 OA
ENDBRANCH   5   6
ENDBRANCH   2   5
BRANCH   3  12
ATOM     12  C   UNL     1       3.677   1.927  17.611  0.00  0.00    +0.000 C 
BRANCH  12  13
ATOM     13  C   UNL     1       3.818   1.682  19.131  0.00  0.00    +0.000 C 
BRANCH  13  14
ATOM     14  N   UNL     1       2.843   2.423  19.963  0.00  0.00    +0.000 NA
ATOM     15  C   UNL     1       3.332   3.760  20.341  0.00  0.00    +0.000 C 
ATOM     16  C   UNL     1       2.326   4.498  21.222  0.00  0.00    +0.000 C 
ATOM     17  C   UNL     1       0.978   4.619  20.530  0.00  0.00    +0.000 C 
ATOM     18  C   UNL     1       0.496   3.244  20.081  0.00  0.00    +0.000 C 
ATOM     19  C   UNL     1       1.556   2.521  19.248  0.00  0.00    +0.000 C 
ENDBRANCH  13  14
ENDBRANCH  12  13
ENDBRANCH   3  12
TORSDOF 5
ENDMDL
MODEL 2
REMARK VINA RESULT:      -6.3      2.680      3.778
REMARK  Name = 
REMARK  5 active torsions:
REMARK  status: ('A' for Active; 'I' for Inactive)
REMARK    1  A    between atoms: C_2  and  C_3
REMARK    2  A    between atoms: C_3  and  N_4
REMARK    3  A    between atoms: N_10  and  C_11
REMARK    4  A    between atoms: C_11  and  C_12
REMARK    5  A    between atoms: C_12  and  N_13
REMARK                            x       y       z     vdW  Elec       q    Type
REMARK                         _______ _______ _______ _____ _____    ______ ____
ROOT
ATOM      1  O   UNL     1       5.043   6.418  15.585  0.00  0.00    +0.000 OA
ATOM      2  C   UNL     1       5.838   5.688  16.157  0.00  0.00    +0.000 C 
ATOM      3  N   UNL     1       5.604   5.304  17.451  0.00  0.00    +0.000 N 
ATOM      4  H   UNL     1       6.445   5.077  18.003  0.00  0.00    +0.000 HD
ENDROOT
BRANCH   2   5
ATOM      5  C   UNL     1       7.109   5.105  15.493  0.00  0.00    +0.000 C 
BRANCH   5   6
ATOM      6  N   UNL     1       6.986   4.843  14.063  0.00  0.00    +0.000 N 
ATOM      7  C   UNL     1       6.182   3.764  13.542  0.00  0.00    +0.000 C 
ATOM      8  C   UNL     1       6.746   3.517  12.149  0.00  0.00    +0.000 C 
ATOM      9  C   UNL     1       7.352   4.856  11.771  0.00  0.00    +0.000 C 
ATOM     10  C   UNL     1       7.888   5.298  13.107  0.00  0.00    +0.000 C 
ATOM     11  O   UNL     1       8.911   5.935  13.288  0.00  0.00    +0.000 OA
ENDBRANCH   5   6
ENDBRANCH   2   5
BRANCH   3  12
ATOM     12  C   UNL     1       4.435   5.733  18.186  0.00  0.00    +0.000 C 
BRANCH  12  13
ATOM     13  C   UNL     1       4.384   5.197  19.636  0.00  0.00    +0.000 C 
BRANCH  13  14
ATOM     14  N   UNL     1       3.277   4.250  19.899  0.00  0.00    +0.000 NA
ATOM     15  C   UNL     1       1.969   4.923  19.971  0.00  0.00    +0.000 C 
ATOM     16  C   UNL     1       0.844   3.935  20.271  0.00  0.00    +0.000 C 
ATOM     17  C   UNL     1       0.798   2.827  19.231  0.00  0.00    +0.000 C 
ATOM     18  C   UNL     1       2.166   2.167  19.108  0.00  0.00    +0.000 C 
ATOM     19  C   UNL     1       3.268   3.200  18.862  0.00  0.00    +0.000 C 
ENDBRANCH  13  14
ENDBRANCH  12  13
ENDBRANCH   3  12
TORSDOF 5
ENDMDL
MODEL 3
REMARK VINA RESULT:      -6.3      1.242      1.377
REMARK  Name = 
REMARK  5 active torsions:
REMARK  status: ('A' for Active; 'I' for Inactive)
REMARK    1  A    between atoms: C_2  and  C_3
REMARK    2  A    between atoms: C_3  and  N_4
REMARK    3  A    between atoms: N_10  and  C_11
REMARK    4  A    between atoms: C_11  and  C_12
REMARK    5  A    between atoms: C_12  and  N_13
REMARK                            x       y       z     vdW  Elec       q    Type
REMARK                         _______ _______ _______ _____ _____    ______ ____
ROOT
ATOM      1  O   UNL     1       5.557   3.381  14.908  0.00  0.00    +0.000 OA
ATOM      2  C   UNL     1       5.603   4.327  15.679  0.00  0.00    +0.000 C 
ATOM      3  N   UNL     1       4.640   4.475  16.641  0.00  0.00    +0.000 N 
ATOM      4  H   UNL     1       4.471   5.443  16.953  0.00  0.00    +0.000 HD
ENDROOT
BRANCH   2   5
ATOM      5  C   UNL     1       6.734   5.384  15.681  0.00  0.00    +0.000 C 
BRANCH   5   6
ATOM      6  N   UNL     1       7.116   5.867  17.004  0.00  0.00    +0.000 N 
ATOM      7  C   UNL     1       7.153   7.272  17.332  0.00  0.00    +0.000 C 
ATOM      8  C   UNL     1       8.078   7.350  18.539  0.00  0.00    +0.000 C 
ATOM      9  C   UNL     1       7.961   5.971  19.164  0.00  0.00    +0.000 C 
ATOM     10  C   UNL     1       7.845   5.121  17.926  0.00  0.00    +0.000 C 
ATOM     11  O   UNL     1       8.301   4.001  17.786  0.00  0.00    +0.000 OA
ENDBRANCH   5   6
ENDBRANCH   2   5
BRANCH   3  12
ATOM     12  C   UNL     1       3.545   3.541  16.789  0.00  0.00    +0.000 C 
BRANCH  12  13
ATOM     13  C   UNL     1       3.856   2.369  17.749  0.00  0.00    +0.000 C 
BRANCH  13  14
ATOM     14  N   UNL     1       2.965   2.294  18.930  0.00  0.00    +0.000 NA
ATOM     15  C   UNL     1       3.578   2.884  20.133  0.00  0.00    +0.000 C 
ATOM     16  C   UNL     1       2.657   2.771  21.345  0.00  0.00    +0.000 C 
ATOM     17  C   UNL     1       1.314   3.430  21.075  0.00  0.00    +0.000 C 
ATOM     18  C   UNL     1       0.703   2.868  19.797  0.00  0.00    +0.000 C 
ATOM     19  C   UNL     1       1.681   2.952  18.622  0.00  0.00    +0.000 C 
ENDBRANCH  13  14
ENDBRANCH  12  13
ENDBRANCH   3  12
TORSDOF 5
ENDMDL
MODEL 4
REMARK VINA RESULT:      -6.1      2.453      6.766
REMARK  Name = 
REMARK  5 active torsions:
REMARK  status: ('A' for Active; 'I' for Inactive)
REMARK    1  A    between atoms: C_2  and  C_3
REMARK    2  A    between atoms: C_3  and  N_4
REMARK    3  A    between atoms: N_10  and  C_11
REMARK    4  A    between atoms: C_11  and  C_12
REMARK    5  A    between atoms: C_12  and  N_13
REMARK                            x       y       z     vdW  Elec       q    Type
REMARK                         _______ _______ _______ _____ _____    ______ ____
ROOT
ATOM      1  O   UNL     1       5.809   5.230  19.290  0.00  0.00    +0.000 OA
ATOM      2  C   UNL     1       5.068   4.445  18.717  0.00  0.00    +0.000 C 
ATOM      3  N   UNL     1       4.742   4.647  17.403  0.00  0.00    +0.000 N 
ATOM      4  H   UNL     1       3.836   4.253  17.106  0.00  0.00    +0.000 HD
ENDROOT
BRANCH   2   5
ATOM      5  C   UNL     1       4.489   3.168  19.374  0.00  0.00    +0.000 C 
BRANCH   5   6
ATOM      6  N   UNL     1       3.118   3.297  19.856  0.00  0.00    +0.000 N 
ATOM      7  C   UNL     1       2.768   3.119  21.244  0.00  0.00    +0.000 C 
ATOM      8  C   UNL     1       1.279   2.802  21.217  0.00  0.00    +0.000 C 
ATOM      9  C   UNL     1       0.803   3.453  19.930  0.00  0.00    +0.000 C 
ATOM     10  C   UNL     1       1.993   3.201  19.043  0.00  0.00    +0.000 C 
ATOM     11  O   UNL     1       1.953   2.967  17.848  0.00  0.00    +0.000 OA
ENDBRANCH   5   6
ENDBRANCH   2   5
BRANCH   3  12
ATOM     12  C   UNL     1       5.243   5.773  16.646  0.00  0.00    +0.000 C 
BRANCH  12  13
ATOM     13  C   UNL     1       6.583   5.488  15.927  0.00  0.00    +0.000 C 
BRANCH  13  14
ATOM     14  N   UNL     1       6.455   5.225  14.476  0.00  0.00    +0.000 NA
ATOM     15  C   UNL     1       7.754   5.265  13.782  0.00  0.00    +0.000 C 
ATOM     16  C   UNL     1       7.599   5.020  12.283  0.00  0.00    +0.000 C 
ATOM     17  C   UNL     1       6.911   3.691  12.015  0.00  0.00    +0.000 C 
ATOM     18  C   UNL     1       5.595   3.619  12.779  0.00  0.00    +0.000 C 
ATOM     19  C   UNL     1       5.791   3.924  14.266  0.00  0.00    +0.000 C 
ENDBRANCH  13  14
ENDBRANCH  12  13
ENDBRANCH   3  12
TORSDOF 5
ENDMDL
MODEL 5
REMARK VINA RESULT:      -6.1      1.790      2.584
REMARK  Name = 
REMARK  5 active torsions:
REMARK  status: ('A' for Active; 'I' for Inactive)
REMARK    1  A    between atoms: C_2  and  C_3
REMARK    2  A    between atoms: C_3  and  N_4
REMARK    3  A    between atoms: N_10  and  C_11
REMARK    4  A    between atoms: C_11  and  C_12
REMARK    5  A    between atoms: C_12  and  N_13
REMARK                            x       y       z     vdW  Elec       q    Type
REMARK                         _______ _______ _______ _____ _____    ______ ____
ROOT
ATOM      1  O   UNL     1       7.240   5.384  20.147  0.00  0.00    +0.000 OA
ATOM      2  C   UNL     1       6.579   5.405  19.121  0.00  0.00    +0.000 C 
ATOM      3  N   UNL     1       5.575   4.492  18.934  0.00  0.00    +0.000 N 
ATOM      4  H   UNL     1       5.356   4.270  17.951  0.00  0.00    +0.000 HD
ENDROOT
BRANCH   2   5
ATOM      5  C   UNL     1       6.764   6.452  17.995  0.00  0.00    +0.000 C 
BRANCH   5   6
ATOM      6  N   UNL     1       6.598   5.930  16.642  0.00  0.00    +0.000 N 
ATOM      7  C   UNL     1       5.433   6.219  15.841  0.00  0.00    +0.000 C 
ATOM      8  C   UNL     1       5.406   5.103  14.806  0.00  0.00    +0.000 C 
ATOM      9  C   UNL     1       6.860   4.679  14.705  0.00  0.00    +0.000 C 
ATOM     10  C   UNL     1       7.287   4.830  16.141  0.00  0.00    +0.000 C 
ATOM     11  O   UNL     1       8.086   4.120  16.725  0.00  0.00    +0.000 OA
ENDBRANCH   5   6
ENDBRANCH   2   5
BRANCH   3  12
ATOM     12  C   UNL     1       5.256   3.481  19.919  0.00  0.00    +0.000 C 
BRANCH  12  13
ATOM     13  C   UNL     1       4.526   2.252  19.330  0.00  0.00    +0.000 C 
BRANCH  13  14
ATOM     14  N   UNL     1       3.088   2.173  19.674  0.00  0.00    +0.000 NA
ATOM     15  C   UNL     1       2.754   2.962  20.872  0.00  0.00    +0.000 C 
ATOM     16  C   UNL     1       1.274   2.846  21.227  0.00  0.00    +0.000 C 
ATOM     17  C   UNL     1       0.396   3.279  20.064  0.00  0.00    +0.000 C 
ATOM     18  C   UNL     1       0.779   2.509  18.805  0.00  0.00    +0.000 C 
ATOM     19  C   UNL     1       2.279   2.609  18.519  0.00  0.00    +0.000 C 
ENDBRANCH  13  14
ENDBRANCH  12  13
ENDBRANCH   3  12
TORSDOF 5
ENDMDL
MODEL 6
REMARK VINA RESULT:      -6.0      2.744      3.899
REMARK  Name = 
REMARK  5 active torsions:
REMARK  status: ('A' for Active; 'I' for Inactive)
REMARK    1  A    between atoms: C_2  and  C_3
REMARK    2  A    between atoms: C_3  and  N_4
REMARK    3  A    between atoms: N_10  and  C_11
REMARK    4  A    between atoms: C_11  and  C_12
REMARK    5  A    between atoms: C_12  and  N_13
REMARK                            x       y       z     vdW  Elec       q    Type
REMARK                         _______ _______ _______ _____ _____    ______ ____
ROOT
ATOM      1  O   UNL     1       5.467   6.363  15.713  0.00  0.00    +0.000 OA
ATOM      2  C   UNL     1       5.485   5.220  16.144  0.00  0.00    +0.000 C 
ATOM      3  N   UNL     1       4.837   4.919  17.312  0.00  0.00    +0.000 N 
ATOM      4  H   UNL     1       5.218   4.117  17.836  0.00  0.00    +0.000 HD
ENDROOT
BRANCH   2   5
ATOM      5  C   UNL     1       6.171   4.035  15.422  0.00  0.00    +0.000 C 
BRANCH   5   6
ATOM      6  N   UNL     1       6.419   4.247  14.000  0.00  0.00    +0.000 N 
ATOM      7  C   UNL     1       5.914   3.353  12.986  0.00  0.00    +0.000 C 
ATOM      8  C   UNL     1       6.813   3.606  11.783  0.00  0.00    +0.000 C 
ATOM      9  C   UNL     1       7.301   5.028  11.999  0.00  0.00    +0.000 C 
ATOM     10  C   UNL     1       7.447   5.040  13.498  0.00  0.00    +0.000 C 
ATOM     11  O   UNL     1       8.302   5.639  14.125  0.00  0.00    +0.000 OA
ENDBRANCH   5   6
ENDBRANCH   2   5
BRANCH   3  12
ATOM     12  C   UNL     1       4.115   5.914  18.075  0.00  0.00    +0.000 C 
BRANCH  12  13
ATOM     13  C   UNL     1       2.580   5.826  17.913  0.00  0.00    +0.000 C 
BRANCH  13  14
ATOM     14  N   UNL     1       1.905   4.990  18.932  0.00  0.00    +0.000 NA
ATOM     15  C   UNL     1       1.626   3.628  18.444  0.00  0.00    +0.000 C 
ATOM     16  C   UNL     1       0.905   2.791  19.498  0.00  0.00    +0.000 C 
ATOM     17  C   UNL     1       1.708   2.724  20.787  0.00  0.00    +0.000 C 
ATOM     18  C   UNL     1       2.052   4.130  21.264  0.00  0.00    +0.000 C 
ATOM     19  C   UNL     1       2.723   4.949  20.159  0.00  0.00    +0.000 C 
ENDBRANCH  13  14
ENDBRANCH  12  13
ENDBRANCH   3  12
TORSDOF 5
ENDMDL
MODEL 7
REMARK VINA RESULT:      -5.9      2.378      3.656
REMARK  Name = 
REMARK  5 active torsions:
REMARK  status: ('A' for Active; 'I' for Inactive)
REMARK    1  A    between atoms: C_2  and  C_3
REMARK    2  A    between atoms: C_3  and  N_4
REMARK    3  A    between atoms: N_10  and  C_11
REMARK    4  A    between atoms: C_11  and  C_12
REMARK    5  A    between atoms: C_12  and  N_13
REMARK                            x       y       z     vdW  Elec       q    Type
REMARK                         _______ _______ _______ _____ _____    ______ ____
ROOT
ATOM      1  O   UNL     1       7.637   4.528  16.874  0.00  0.00    +0.000 OA
ATOM      2  C   UNL     1       6.552   5.044  16.656  0.00  0.00    +0.000 C 
ATOM      3  N   UNL     1       5.556   4.967  17.593  0.00  0.00    +0.000 N 
ATOM      4  H   UNL     1       4.595   5.017  17.224  0.00  0.00    +0.000 HD
ENDROOT
BRANCH   2   5
ATOM      5  C   UNL     1       6.219   5.848  15.375  0.00  0.00    +0.000 C 
BRANCH   5   6
ATOM      6  N   UNL     1       6.342   5.095  14.132  0.00  0.00    +0.000 N 
ATOM      7  C   UNL     1       5.527   3.939  13.845  0.00  0.00    +0.000 C 
ATOM      8  C   UNL     1       6.313   3.181  12.784  0.00  0.00    +0.000 C 
ATOM      9  C   UNL     1       7.141   4.264  12.117  0.00  0.00    +0.000 C 
ATOM     10  C   UNL     1       7.461   5.132  13.305  0.00  0.00    +0.000 C 
ATOM     11  O   UNL     1       8.500   5.742  13.482  0.00  0.00    +0.000 OA
ENDBRANCH   5   6
ENDBRANCH   2   5
BRANCH   3  12
ATOM     12  C   UNL     1       5.735   4.287  18.857  0.00  0.00    +0.000 C 
BRANCH  12  13
ATOM     13  C   UNL     1       4.752   3.113  19.073  0.00  0.00    +0.000 C 
BRANCH  13  14
ATOM     14  N   UNL     1       3.326   3.508  19.107  0.00  0.00    +0.000 NA
ATOM     15  C   UNL     1       2.425   2.346  19.211  0.00  0.00    +0.000 C 
ATOM     16  C   UNL     1       0.959   2.771  19.215  0.00  0.00    +0.000 C 
ATOM     17  C   UNL     1       0.675   3.746  20.346  0.00  0.00    +0.000 C 
ATOM     18  C   UNL     1       1.645   4.920  20.281  0.00  0.00    +0.000 C 
ATOM     19  C   UNL     1       3.099   4.446  20.223  0.00  0.00    +0.000 C 
ENDBRANCH  13  14
ENDBRANCH  12  13
ENDBRANCH   3  12
TORSDOF 5
ENDMDL
MODEL 8
REMARK VINA RESULT:      -5.9      1.991      6.028
REMARK  Name = 
REMARK  5 active torsions:
REMARK  status: ('A' for Active; 'I' for Inactive)
REMARK    1  A    between atoms: C_2  and  C_3
REMARK    2  A    between atoms: C_3  and  N_4
REMARK    3  A    between atoms: N_10  and  C_11
REMARK    4  A    between atoms: C_11  and  C_12
REMARK    5  A    between atoms: C_12  and  N_13
REMARK                            x       y       z     vdW  Elec       q    Type
REMARK                         _______ _______ _______ _____ _____    ______ ____
ROOT
ATOM      1  O   UNL     1       2.289   3.086  16.449  0.00  0.00    +0.000 OA
ATOM      2  C   UNL     1       2.715   3.898  17.256  0.00  0.00    +0.000 C 
ATOM      3  N   UNL     1       4.054   4.183  17.299  0.00  0.00    +0.000 N 
ATOM      4  H   UNL     1       4.409   4.505  18.212  0.00  0.00    +0.000 HD
ENDROOT
BRANCH   2   5
ATOM      5  C   UNL     1       1.819   4.692  18.238  0.00  0.00    +0.000 C 
BRANCH   5   6
ATOM      6  N   UNL     1       1.702   4.107  19.569  0.00  0.00    +0.000 N 
ATOM      7  C   UNL     1       2.651   4.384  20.621  0.00  0.00    +0.000 C 
ATOM      8  C   UNL     1       2.489   3.217  21.586  0.00  0.00    +0.000 C 
ATOM      9  C   UNL     1       1.065   2.751  21.343  0.00  0.00    +0.000 C 
ATOM     10  C   UNL     1       0.960   2.965  19.856  0.00  0.00    +0.000 C 
ATOM     11  O   UNL     1       0.337   2.265  19.078  0.00  0.00    +0.000 OA
ENDBRANCH   5   6
ENDBRANCH   2   5
BRANCH   3  12
ATOM     12  C   UNL     1       5.008   3.552  16.413  0.00  0.00    +0.000 C 
BRANCH  12  13
ATOM     13  C   UNL     1       6.247   4.427  16.113  0.00  0.00    +0.000 C 
BRANCH  13  14
ATOM     14  N   UNL     1       6.561   5.423  17.162  0.00  0.00    +0.000 NA
ATOM     15  C   UNL     1       7.574   4.934  18.114  0.00  0.00    +0.000 C 
ATOM     16  C   UNL     1       7.863   5.964  19.204  0.00  0.00    +0.000 C 
ATOM     17  C   UNL     1       8.315   7.285  18.603  0.00  0.00    +0.000 C 
ATOM     18  C   UNL     1       7.300   7.765  17.572  0.00  0.00    +0.000 C 
ATOM     19  C   UNL     1       7.001   6.683  16.532  0.00  0.00    +0.000 C 
ENDBRANCH  13  14
ENDBRANCH  12  13
ENDBRANCH   3  12
TORSDOF 5
ENDMDL
MODEL 9
REMARK VINA RESULT:      -5.9      1.907      3.245
REMARK  Name = 
REMARK  5 active torsions:
REMARK  status: ('A' for Active; 'I' for Inactive)
REMARK    1  A    between atoms: C_2  and  C_3
REMARK    2  A    between atoms: C_3  and  N_4
REMARK    3  A    between atoms: N_10  and  C_11
REMARK    4  A    between atoms: C_11  and  C_12
REMARK    5  A    between atoms: C_12  and  N_13
REMARK                            x       y       z     vdW  Elec       q    Type
REMARK                         _______ _______ _______ _____ _____    ______ ____
ROOT
ATOM      1  O   UNL     1       1.904   6.334  17.811  0.00  0.00    +0.000 OA
ATOM      2  C   UNL     1       2.886   6.634  18.472  0.00  0.00    +0.000 C 
ATOM      3  N   UNL     1       2.871   6.472  19.832  0.00  0.00    +0.000 N 
ATOM      4  H   UNL     1       3.494   7.102  20.359  0.00  0.00    +0.000 HD
ENDROOT
BRANCH   2   5
ATOM      5  C   UNL     1       4.209   7.158  17.864  0.00  0.00    +0.000 C 
BRANCH   5   6
ATOM      6  N   UNL     1       5.157   6.118  17.475  0.00  0.00    +0.000 N 
ATOM      7  C   UNL     1       5.119   5.483  16.180  0.00  0.00    +0.000 C 
ATOM      8  C   UNL     1       5.858   4.169  16.387  0.00  0.00    +0.000 C 
ATOM      9  C   UNL     1       6.781   4.462  17.556  0.00  0.00    +0.000 C 
ATOM     10  C   UNL     1       5.899   5.363  18.379  0.00  0.00    +0.000 C 
ATOM     11  O   UNL     1       5.864   5.408  19.595  0.00  0.00    +0.000 OA
ENDBRANCH   5   6
ENDBRANCH   2   5
BRANCH   3  12
ATOM     12  C   UNL     1       1.720   5.951  20.536  0.00  0.00    +0.000 C 
BRANCH  12  13
ATOM     13  C   UNL     1       1.779   4.424  20.774  0.00  0.00    +0.000 C 
BRANCH  13  14
ATOM     14  N   UNL     1       2.650   3.691  19.829  0.00  0.00    +0.000 NA
ATOM     15  C   UNL     1       3.523   2.718  20.510  0.00  0.00    +0.000 C 
ATOM     16  C   UNL     1       4.433   1.993  19.522  0.00  0.00    +0.000 C 
ATOM     17  C   UNL     1       3.623   1.292  18.443  0.00  0.00    +0.000 C 
ATOM     18  C   UNL     1       2.673   2.281  17.777  0.00  0.00    +0.000 C 
ATOM     19  C   UNL     1       1.820   3.022  18.808  0.00  0.00    +0.000 C 
ENDBRANCH  13  14
ENDBRANCH  12  13
ENDBRANCH   3  12
TORSDOF 5
ENDMDL
