MODEL 1
REMARK VINA RESULT:      -6.7      0.000      0.000
REMARK  Name = 
REMARK  5 active torsions:
REMARK  status: ('A' for Active; 'I' for Inactive)
REMARK    1  A    between atoms: C_1  and  O_2
REMARK    2  A    between atoms: O_2  and  C_3
REMARK    3  A    between atoms: C_6  and  C_7
REMARK    4  A    between atoms: N_8  and  N_9
REMARK    5  A    between atoms: N_14  and  N_15
REMARK                            x       y       z     vdW  Elec       q    Type
REMARK                         _______ _______ _______ _____ _____    ______ ____
ROOT
ATOM      1  C   UNL     1       3.529   3.410  17.318  0.00  0.00    +0.000 C 
ATOM      2  N   UNL     1       2.559   4.206  17.643  0.00  0.00    +0.000 NA
ENDROOT
BRANCH   1   6
ATOM      3  C   UNL     1       6.877   5.055  15.230  0.00  0.00    +0.000 A 
ATOM      4  C   UNL     1       6.188   3.959  14.707  0.00  0.00    +0.000 A 
ATOM      5  C   UNL     1       5.113   3.408  15.406  0.00  0.00    +0.000 A 
ATOM      6  C   UNL     1       4.727   3.942  16.636  0.00  0.00    +0.000 A 
ATOM      7  C   UNL     1       5.435   5.005  17.196  0.00  0.00    +0.000 A 
ATOM      8  C   UNL     1       6.513   5.552  16.492  0.00  0.00    +0.000 A 
ATOM      9 BR   UNL     1       7.437   7.015  17.280  0.00  0.00    +0.000 Br
BRANCH   3  11
ATOM     10  C   UNL     1       8.011   5.361  13.180  0.00  0.00    +0.000 C 
ATOM     11  O   UNL     1       7.918   5.657  14.573  0.00  0.00    +0.000 OA
ENDBRANCH   3  11
ENDBRANCH   1   6
BRANCH   2  12
ATOM     12  N   UNL     1       1.554   3.645  18.372  0.00  0.00    +0.000 N 
ATOM     13  C   UNL     1       1.651   3.462  19.716  0.00  0.00    +0.000 A 
ATOM     14  N   UNL     1       1.066   2.536  20.454  0.00  0.00    +0.000 NA
ATOM     15  N   UNL     1       1.479   2.704  21.763  0.00  0.00    +0.000 NA
ATOM     16  C   UNL     1       2.279   3.746  21.796  0.00  0.00    +0.000 A 
ATOM     17  N   UNL     1       2.417   4.260  20.543  0.00  0.00    +0.000 N 
ATOM     18  H   UNL     1       0.964   2.948  17.915  0.00  0.00    +0.000 HD
BRANCH  17  19
ATOM     19  N   UNL     1       3.195   5.412  20.186  0.00  0.00    +0.000 N 
ATOM     20  H   UNL     1       4.170   5.285  20.451  0.00  0.00    +0.000 HD
ATOM     21  H   UNL     1       3.207   5.448  19.158  0.00  0.00    +0.000 HD
ENDBRANCH  17  19
ENDBRANCH   2  12
TORSDOF 4
ENDMDL
MODEL 2
REMARK VINA RESULT:      -6.4      3.634      4.604
REMARK  Name = 
REMARK  5 active torsions:
REMARK  status: ('A' for Active; 'I' for Inactive)
REMARK    1  A    between atoms: C_1  and  O_2
REMARK    2  A    between atoms: O_2  and  C_3
REMARK    3  A    between atoms: C_6  and  C_7
REMARK    4  A    between atoms: N_8  and  N_9
REMARK    5  A    between atoms: N_14  and  N_15
REMARK                            x       y       z     vdW  Elec       q    Type
REMARK                         _______ _______ _______ _____ _____    ______ ____
ROOT
ATOM      1  C   UNL     1       2.495   5.768  20.008  0.00  0.00    +0.000 C 
ATOM      2  N   UNL     1       2.275   7.045  19.981  0.00  0.00    +0.000 NA
ENDROOT
BRANCH   1   6
ATOM      3  C   UNL     1       4.961   4.107  16.938  0.00  0.00    +0.000 A 
ATOM      4  C   UNL     1       3.586   3.864  16.948  0.00  0.00    +0.000 A 
ATOM      5  C   UNL     1       2.790   4.385  17.968  0.00  0.00    +0.000 A 
ATOM      6  C   UNL     1       3.363   5.142  18.990  0.00  0.00    +0.000 A 
ATOM      7  C   UNL     1       4.741   5.354  19.021  0.00  0.00    +0.000 A 
ATOM      8  C   UNL     1       5.536   4.827  17.997  0.00  0.00    +0.000 A 
ATOM      9 BR   UNL     1       7.406   5.158  18.067  0.00  0.00    +0.000 Br
BRANCH   3  11
ATOM     10  C   UNL     1       5.707   4.359  14.710  0.00  0.00    +0.000 C 
ATOM     11  O   UNL     1       5.787   3.648  15.944  0.00  0.00    +0.000 OA
ENDBRANCH   3  11
ENDBRANCH   1   6
BRANCH   2  12
ATOM     12  N   UNL     1       1.561   7.543  21.029  0.00  0.00    +0.000 N 
ATOM     13  C   UNL     1       1.237   8.861  21.121  0.00  0.00    +0.000 A 
ATOM     14  N   UNL     1       1.033   9.572  22.215  0.00  0.00    +0.000 NA
ATOM     15  N   UNL     1       0.767  10.875  21.837  0.00  0.00    +0.000 NA
ATOM     16  C   UNL     1       0.783  10.920  20.524  0.00  0.00    +0.000 A 
ATOM     17  N   UNL     1       1.067   9.685  20.026  0.00  0.00    +0.000 N 
ATOM     18  H   UNL     1       1.670   7.093  21.939  0.00  0.00    +0.000 HD
BRANCH  17  19
ATOM     19  N   UNL     1       1.150   9.336  18.636  0.00  0.00    +0.000 N 
ATOM     20  H   UNL     1       0.742  10.067  18.056  0.00  0.00    +0.000 HD
ATOM     21  H   UNL     1       2.150   9.339  18.395  0.00  0.00    +0.000 HD
ENDBRANCH  17  19
ENDBRANCH   2  12
TORSDOF 4
ENDMDL
MODEL 3
REMARK VINA RESULT:      -6.4      4.808      6.865
REMARK  Name = 
REMARK  5 active torsions:
REMARK  status: ('A' for Active; 'I' for Inactive)
REMARK    1  A    between atoms: C_1  and  O_2
REMARK    2  A    between atoms: O_2  and  C_3
REMARK    3  A    between atoms: C_6  and  C_7
REMARK    4  A    between atoms: N_8  and  N_9
REMARK    5  A    between atoms: N_14  and  N_15
REMARK                            x       y       z     vdW  Elec       q    Type
REMARK                         _______ _______ _______ _____ _____    ______ ____
ROOT
ATOM      1  C   UNL     1       3.339   6.340  17.518  0.00  0.00    +0.000 C 
ATOM      2  N   UNL     1       3.520   5.067  17.686  0.00  0.00    +0.000 NA
ENDROOT
BRANCH   1   6
ATOM      3  C   UNL     1       1.297   8.646  20.482  0.00  0.00    +0.000 A 
ATOM      4  C   UNL     1       1.714   7.343  20.764  0.00  0.00    +0.000 A 
ATOM      5  C   UNL     1       2.356   6.585  19.785  0.00  0.00    +0.000 A 
ATOM      6  C   UNL     1       2.574   7.118  18.514  0.00  0.00    +0.000 A 
ATOM      7  C   UNL     1       2.120   8.399  18.200  0.00  0.00    +0.000 A 
ATOM      8  C   UNL     1       1.475   9.155  19.186  0.00  0.00    +0.000 A 
ATOM      9 BR   UNL     1       0.893  10.904  18.723  0.00  0.00    +0.000 Br
BRANCH   3  11
ATOM     10  C   UNL     1      -0.388   8.847  22.126  0.00  0.00    +0.000 C 
ATOM     11  O   UNL     1       0.692   9.448  21.415  0.00  0.00    +0.000 OA
ENDBRANCH   3  11
ENDBRANCH   1   6
BRANCH   2  12
ATOM     12  N   UNL     1       4.337   4.463  16.779  0.00  0.00    +0.000 N 
ATOM     13  C   UNL     1       5.692   4.492  16.895  0.00  0.00    +0.000 A 
ATOM     14  N   UNL     1       6.591   4.433  15.929  0.00  0.00    +0.000 NA
ATOM     15  N   UNL     1       7.845   4.535  16.502  0.00  0.00    +0.000 NA
ATOM     16  C   UNL     1       7.682   4.620  17.803  0.00  0.00    +0.000 A 
ATOM     17  N   UNL     1       6.354   4.593  18.103  0.00  0.00    +0.000 N 
ATOM     18  H   UNL     1       4.019   4.409  15.810  0.00  0.00    +0.000 HD
BRANCH  17  19
ATOM     19  N   UNL     1       5.786   4.643  19.421  0.00  0.00    +0.000 N 
ATOM     20  H   UNL     1       4.800   4.889  19.379  0.00  0.00    +0.000 HD
ATOM     21  H   UNL     1       5.800   3.679  19.779  0.00  0.00    +0.000 HD
ENDBRANCH  17  19
ENDBRANCH   2  12
TORSDOF 4
ENDMDL
MODEL 4
REMARK VINA RESULT:      -6.3      4.576      7.124
REMARK  Name = 
REMARK  5 active torsions:
REMARK  status: ('A' for Active; 'I' for Inactive)
REMARK    1  A    between atoms: C_1  and  O_2
REMARK    2  A    between atoms: O_2  and  C_3
REMARK    3  A    between atoms: C_6  and  C_7
REMARK    4  A    between atoms: N_8  and  N_9
REMARK    5  A    between atoms: N_14  and  N_15
REMARK                            x       y       z     vdW  Elec       q    Type
REMARK                         _______ _______ _______ _____ _____    ______ ____
ROOT
ATOM      1  C   UNL     1       4.378   3.580  16.744  0.00  0.00    +0.000 C 
ATOM      2  N   UNL     1       5.202   4.171  15.936  0.00  0.00    +0.000 NA
ENDROOT
BRANCH   1   6
ATOM      3  C   UNL     1       2.371   5.766  19.821  0.00  0.00    +0.000 A 
ATOM      4  C   UNL     1       2.859   6.424  18.690  0.00  0.00    +0.000 A 
ATOM      5  C   UNL     1       3.537   5.711  17.702  0.00  0.00    +0.000 A 
ATOM      6  C   UNL     1       3.744   4.338  17.842  0.00  0.00    +0.000 A 
ATOM      7  C   UNL     1       3.305   3.674  18.988  0.00  0.00    +0.000 A 
ATOM      8  C   UNL     1       2.627   4.395  19.977  0.00  0.00    +0.000 A 
ATOM      9 BR   UNL     1       2.028   3.446  21.512  0.00  0.00    +0.000 Br
BRANCH   3  11
ATOM     10  C   UNL     1       1.604   7.829  20.681  0.00  0.00    +0.000 C 
ATOM     11  O   UNL     1       1.668   6.409  20.807  0.00  0.00    +0.000 OA
ENDBRANCH   3  11
ENDBRANCH   1   6
BRANCH   2  12
ATOM     12  N   UNL     1       5.640   3.420  14.888  0.00  0.00    +0.000 N 
ATOM     13  C   UNL     1       6.411   3.943  13.896  0.00  0.00    +0.000 A 
ATOM     14  N   UNL     1       6.486   3.555  12.636  0.00  0.00    +0.000 NA
ATOM     15  N   UNL     1       7.365   4.395  11.979  0.00  0.00    +0.000 NA
ATOM     16  C   UNL     1       7.828   5.253  12.860  0.00  0.00    +0.000 A 
ATOM     17  N   UNL     1       7.266   5.012  14.076  0.00  0.00    +0.000 N 
ATOM     18  H   UNL     1       5.050   2.649  14.572  0.00  0.00    +0.000 HD
BRANCH  17  19
ATOM     19  N   UNL     1       7.542   5.729  15.289  0.00  0.00    +0.000 N 
ATOM     20  H   UNL     1       8.403   5.395  15.717  0.00  0.00    +0.000 HD
ATOM     21  H   UNL     1       7.747   6.698  15.012  0.00  0.00    +0.000 HD
ENDBRANCH  17  19
ENDBRANCH   2  12
TORSDOF 4
ENDMDL
MODEL 5
REMARK VINA RESULT:      -6.3      6.853      8.374
REMARK  Name = 
REMARK  5 active torsions:
REMARK  status: ('A' for Active; 'I' for Inactive)
REMARK    1  A    between atoms: C_1  and  O_2
REMARK    2  A    between atoms: O_2  and  C_3
REMARK    3  A    between atoms: C_6  and  C_7
REMARK    4  A    between atoms: N_8  and  N_9
REMARK    5  A    between atoms: N_14  and  N_15
REMARK                            x       y       z     vdW  Elec       q    Type
REMARK                         _______ _______ _______ _____ _____    ______ ____
ROOT
ATOM      1  C   UNL     1       8.386   9.876  17.510  0.00  0.00    +0.000 C 
ATOM      2  N   UNL     1       8.094   8.698  17.966  0.00  0.00    +0.000 NA
ENDROOT
BRANCH   1   6
ATOM      3  C   UNL     1      10.862  12.619  19.658  0.00  0.00    +0.000 A 
ATOM      4  C   UNL     1      11.171  12.270  18.342  0.00  0.00    +0.000 A 
ATOM      5  C   UNL     1      10.376  11.353  17.655  0.00  0.00    +0.000 A 
ATOM      6  C   UNL     1       9.274  10.770  18.281  0.00  0.00    +0.000 A 
ATOM      7  C   UNL     1       8.979  11.071  19.611  0.00  0.00    +0.000 A 
ATOM      8  C   UNL     1       9.782  11.990  20.296  0.00  0.00    +0.000 A 
ATOM      9 BR   UNL     1       9.331  12.387  22.100  0.00  0.00    +0.000 Br
BRANCH   3  11
ATOM     10  C   UNL     1      11.810  14.783  19.710  0.00  0.00    +0.000 C 
ATOM     11  O   UNL     1      11.588  13.539  20.371  0.00  0.00    +0.000 OA
ENDBRANCH   3  11
ENDBRANCH   1   6
BRANCH   2  12
ATOM     12  N   UNL     1       7.367   7.905  17.129  0.00  0.00    +0.000 N 
ATOM     13  C   UNL     1       7.481   6.550  17.138  0.00  0.00    +0.000 A 
ATOM     14  N   UNL     1       7.283   5.712  16.136  0.00  0.00    +0.000 NA
ATOM     15  N   UNL     1       7.550   4.433  16.586  0.00  0.00    +0.000 NA
ATOM     16  C   UNL     1       7.873   4.517  17.857  0.00  0.00    +0.000 A 
ATOM     17  N   UNL     1       7.841   5.820  18.253  0.00  0.00    +0.000 N 
ATOM     18  H   UNL     1       7.117   8.280  16.213  0.00  0.00    +0.000 HD
BRANCH  17  19
ATOM     19  N   UNL     1       8.113   6.304  19.577  0.00  0.00    +0.000 N 
ATOM     20  H   UNL     1       9.115   6.401  19.726  0.00  0.00    +0.000 HD
ATOM     21  H   UNL     1       7.750   7.266  19.614  0.00  0.00    +0.000 HD
ENDBRANCH  17  19
ENDBRANCH   2  12
TORSDOF 4
ENDMDL
MODEL 6
REMARK VINA RESULT:      -6.2      6.857      8.412
REMARK  Name = 
REMARK  5 active torsions:
REMARK  status: ('A' for Active; 'I' for Inactive)
REMARK    1  A    between atoms: C_1  and  O_2
REMARK    2  A    between atoms: O_2  and  C_3
REMARK    3  A    between atoms: C_6  and  C_7
REMARK    4  A    between atoms: N_8  and  N_9
REMARK    5  A    between atoms: N_14  and  N_15
REMARK                            x       y       z     vdW  Elec       q    Type
REMARK                         _______ _______ _______ _____ _____    ______ ____
ROOT
ATOM      1  C   UNL     1       8.092   9.963  17.604  0.00  0.00    +0.000 C 
ATOM      2  N   UNL     1       8.073   8.710  17.936  0.00  0.00    +0.000 NA
ENDROOT
BRANCH   1   6
ATOM      3  C   UNL     1      10.811  12.563  19.635  0.00  0.00    +0.000 A 
ATOM      4  C   UNL     1      10.205  11.504  20.314  0.00  0.00    +0.000 A 
ATOM      5  C   UNL     1       9.298  10.675  19.654  0.00  0.00    +0.000 A 
ATOM      6  C   UNL     1       8.980  10.906  18.316  0.00  0.00    +0.000 A 
ATOM      7  C   UNL     1       9.538  11.989  17.636  0.00  0.00    +0.000 A 
ATOM      8  C   UNL     1      10.446  12.818  18.303  0.00  0.00    +0.000 A 
ATOM      9 BR   UNL     1      11.200  14.269  17.333  0.00  0.00    +0.000 Br
BRANCH   3  11
ATOM     10  C   UNL     1      11.207  14.592  20.779  0.00  0.00    +0.000 C 
ATOM     11  O   UNL     1      11.734  13.389  20.223  0.00  0.00    +0.000 OA
ENDBRANCH   3  11
ENDBRANCH   1   6
BRANCH   2  12
ATOM     12  N   UNL     1       7.314   7.902  17.144  0.00  0.00    +0.000 N 
ATOM     13  C   UNL     1       7.427   6.547  17.176  0.00  0.00    +0.000 A 
ATOM     14  N   UNL     1       7.189   5.690  16.199  0.00  0.00    +0.000 NA
ATOM     15  N   UNL     1       7.473   4.419  16.664  0.00  0.00    +0.000 NA
ATOM     16  C   UNL     1       7.846   4.529  17.919  0.00  0.00    +0.000 A 
ATOM     17  N   UNL     1       7.830   5.839  18.290  0.00  0.00    +0.000 N 
ATOM     18  H   UNL     1       7.027   8.259  16.232  0.00  0.00    +0.000 HD
BRANCH  17  19
ATOM     19  N   UNL     1       8.155   6.349  19.592  0.00  0.00    +0.000 N 
ATOM     20  H   UNL     1       7.348   6.299  20.210  0.00  0.00    +0.000 HD
ATOM     21  H   UNL     1       8.836   5.694  19.999  0.00  0.00    +0.000 HD
ENDBRANCH  17  19
ENDBRANCH   2  12
TORSDOF 4
ENDMDL
MODEL 7
REMARK VINA RESULT:      -6.2      5.467      6.660
REMARK  Name = 
REMARK  5 active torsions:
REMARK  status: ('A' for Active; 'I' for Inactive)
REMARK    1  A    between atoms: C_1  and  O_2
REMARK    2  A    between atoms: O_2  and  C_3
REMARK    3  A    between atoms: C_6  and  C_7
REMARK    4  A    between atoms: N_8  and  N_9
REMARK    5  A    between atoms: N_14  and  N_15
REMARK                            x       y       z     vdW  Elec       q    Type
REMARK                         _______ _______ _______ _____ _____    ______ ____
ROOT
ATOM      1  C   UNL     1       2.993   7.040  18.499  0.00  0.00    +0.000 C 
ATOM      2  N   UNL     1       2.555   5.833  18.322  0.00  0.00    +0.000 NA
ENDROOT
BRANCH   1   6
ATOM      3  C   UNL     1       0.144  10.045  19.561  0.00  0.00    +0.000 A 
ATOM      4  C   UNL     1       0.623   9.957  18.252  0.00  0.00    +0.000 A 
ATOM      5  C   UNL     1       1.573   8.992  17.917  0.00  0.00    +0.000 A 
ATOM      6  C   UNL     1       2.060   8.118  18.889  0.00  0.00    +0.000 A 
ATOM      7  C   UNL     1       1.629   8.224  20.211  0.00  0.00    +0.000 A 
ATOM      8  C   UNL     1       0.677   9.194  20.542  0.00  0.00    +0.000 A 
ATOM      9 BR   UNL     1       0.101   9.290  22.351  0.00  0.00    +0.000 Br
BRANCH   3  11
ATOM     10  C   UNL     1      -1.755  11.300  18.927  0.00  0.00    +0.000 C 
ATOM     11  O   UNL     1      -0.813  10.950  19.939  0.00  0.00    +0.000 OA
ENDBRANCH   3  11
ENDBRANCH   1   6
BRANCH   2  12
ATOM     12  N   UNL     1       3.509   4.889  18.082  0.00  0.00    +0.000 N 
ATOM     13  C   UNL     1       3.787   3.900  18.973  0.00  0.00    +0.000 A 
ATOM     14  N   UNL     1       4.932   3.267  19.151  0.00  0.00    +0.000 NA
ATOM     15  N   UNL     1       4.769   2.367  20.189  0.00  0.00    +0.000 NA
ATOM     16  C   UNL     1       3.523   2.451  20.595  0.00  0.00    +0.000 A 
ATOM     17  N   UNL     1       2.863   3.392  19.865  0.00  0.00    +0.000 N 
ATOM     18  H   UNL     1       4.316   5.158  17.517  0.00  0.00    +0.000 HD
BRANCH  17  19
ATOM     19  N   UNL     1       1.480   3.750  20.004  0.00  0.00    +0.000 N 
ATOM     20  H   UNL     1       0.888   2.922  19.964  0.00  0.00    +0.000 HD
ATOM     21  H   UNL     1       1.367   4.105  20.963  0.00  0.00    +0.000 HD
ENDBRANCH  17  19
ENDBRANCH   2  12
TORSDOF 4
ENDMDL
MODEL 8
REMARK VINA RESULT:      -6.2      5.422      7.216
REMARK  Name = 
REMARK  5 active torsions:
REMARK  status: ('A' for Active; 'I' for Inactive)
REMARK    1  A    between atoms: C_1  and  O_2
REMARK    2  A    between atoms: O_2  and  C_3
REMARK    3  A    between atoms: C_6  and  C_7
REMARK    4  A    between atoms: N_8  and  N_9
REMARK    5  A    between atoms: N_14  and  N_15
REMARK                            x       y       z     vdW  Elec       q    Type
REMARK                         _______ _______ _______ _____ _____    ______ ____
ROOT
ATOM      1  C   UNL     1       3.037   6.289  18.667  0.00  0.00    +0.000 C 
ATOM      2  N   UNL     1       3.718   6.161  17.572  0.00  0.00    +0.000 NA
ENDROOT
BRANCH   1   6
ATOM      3  C   UNL     1       0.786   9.846  19.412  0.00  0.00    +0.000 A 
ATOM      4  C   UNL     1       1.318   9.599  18.145  0.00  0.00    +0.000 A 
ATOM      5  C   UNL     1       2.075   8.450  17.914  0.00  0.00    +0.000 A 
ATOM      6  C   UNL     1       2.316   7.547  18.950  0.00  0.00    +0.000 A 
ATOM      7  C   UNL     1       1.833   7.803  20.233  0.00  0.00    +0.000 A 
ATOM      8  C   UNL     1       1.076   8.957  20.460  0.00  0.00    +0.000 A 
ATOM      9 BR   UNL     1       0.420   9.256  22.219  0.00  0.00    +0.000 Br
BRANCH   3  11
ATOM     10  C   UNL     1      -1.169  11.066  18.893  0.00  0.00    +0.000 C 
ATOM     11  O   UNL     1       0.008  10.940  19.689  0.00  0.00    +0.000 OA
ENDBRANCH   3  11
ENDBRANCH   1   6
BRANCH   2  12
ATOM     12  N   UNL     1       4.247   4.926  17.346  0.00  0.00    +0.000 N 
ATOM     13  C   UNL     1       5.264   4.724  16.466  0.00  0.00    +0.000 A 
ATOM     14  N   UNL     1       5.533   3.633  15.772  0.00  0.00    +0.000 NA
ATOM     15  N   UNL     1       6.634   3.890  14.976  0.00  0.00    +0.000 NA
ATOM     16  C   UNL     1       7.029   5.118  15.229  0.00  0.00    +0.000 A 
ATOM     17  N   UNL     1       6.208   5.683  16.157  0.00  0.00    +0.000 N 
ATOM     18  H   UNL     1       3.628   4.118  17.436  0.00  0.00    +0.000 HD
BRANCH  17  19
ATOM     19  N   UNL     1       6.336   7.006  16.700  0.00  0.00    +0.000 N 
ATOM     20  H   UNL     1       5.929   7.694  16.070  0.00  0.00    +0.000 HD
ATOM     21  H   UNL     1       5.740   7.034  17.538  0.00  0.00    +0.000 HD
ENDBRANCH  17  19
ENDBRANCH   2  12
TORSDOF 4
ENDMDL
MODEL 9
REMARK VINA RESULT:      -6.1      5.385      7.444
REMARK  Name = 
REMARK  5 active torsions:
REMARK  status: ('A' for Active; 'I' for Inactive)
REMARK    1  A    between atoms: C_1  and  O_2
REMARK    2  A    between atoms: O_2  and  C_3
REMARK    3  A    between atoms: C_6  and  C_7
REMARK    4  A    between atoms: N_8  and  N_9
REMARK    5  A    between atoms: N_14  and  N_15
REMARK                            x       y       z     vdW  Elec       q    Type
REMARK                         _______ _______ _______ _____ _____    ______ ____
ROOT
ATOM      1  C   UNL     1       2.943   7.143  17.675  0.00  0.00    +0.000 C 
ATOM      2  N   UNL     1       4.232   7.264  17.612  0.00  0.00    +0.000 NA
ENDROOT
BRANCH   1   6
ATOM      3  C   UNL     1       0.896   9.385  20.684  0.00  0.00    +0.000 A 
ATOM      4  C   UNL     1       1.425   8.126  20.978  0.00  0.00    +0.000 A 
ATOM      5  C   UNL     1       2.068   7.387  19.985  0.00  0.00    +0.000 A 
ATOM      6  C   UNL     1       2.176   7.894  18.690  0.00  0.00    +0.000 A 
ATOM      7  C   UNL     1       1.610   9.127  18.367  0.00  0.00    +0.000 A 
ATOM      8  C   UNL     1       0.965   9.864  19.367  0.00  0.00    +0.000 A 
ATOM      9 BR   UNL     1       0.227  11.549  18.888  0.00  0.00    +0.000 Br
BRANCH   3  11
ATOM     10  C   UNL     1      -0.195   9.476  22.778  0.00  0.00    +0.000 C 
ATOM     11  O   UNL     1       0.283  10.169  21.627  0.00  0.00    +0.000 OA
ENDBRANCH   3  11
ENDBRANCH   1   6
BRANCH   2  12
ATOM     12  N   UNL     1       4.834   6.627  16.569  0.00  0.00    +0.000 N 
ATOM     13  C   UNL     1       5.930   5.840  16.739  0.00  0.00    +0.000 A 
ATOM     14  N   UNL     1       6.892   5.589  15.869  0.00  0.00    +0.000 NA
ATOM     15  N   UNL     1       7.823   4.770  16.481  0.00  0.00    +0.000 NA
ATOM     16  C   UNL     1       7.391   4.516  17.696  0.00  0.00    +0.000 A 
ATOM     17  N   UNL     1       6.208   5.158  17.907  0.00  0.00    +0.000 N 
ATOM     18  H   UNL     1       4.800   7.074  15.652  0.00  0.00    +0.000 HD
BRANCH  17  19
ATOM     19  N   UNL     1       5.422   5.102  19.107  0.00  0.00    +0.000 N 
ATOM     20  H   UNL     1       4.946   4.206  19.184  0.00  0.00    +0.000 HD
ATOM     21  H   UNL     1       6.089   5.111  19.890  0.00  0.00    +0.000 HD
ENDBRANCH  17  19
ENDBRANCH   2  12
TORSDOF 4
ENDMDL
