MODEL 1
REMARK VINA RESULT:      -7.4      0.000      0.000
REMARK  Name = 
REMARK  2 active torsions:
REMARK  status: ('A' for Active; 'I' for Inactive)
REMARK    1  A    between atoms: O_1  and  C_2
REMARK    2  A    between atoms: N_7  and  C_8
REMARK                            x       y       z     vdW  Elec       q    Type
REMARK                         _______ _______ _______ _____ _____    ______ ____
ROOT
ATOM      1  C   UNL     1       7.281   6.014  19.056  0.00  0.00    +0.000 A 
ATOM      2  C   UNL     1       7.983   6.880  18.258  0.00  0.00    +0.000 A 
ATOM      3  N   UNL     1       7.427   7.340  17.128  0.00  0.00    +0.000 NA
ATOM      4  N   UNL     1       6.171   6.908  16.808  0.00  0.00    +0.000 NA
ATOM      5  C   UNL     1       5.520   6.033  17.612  0.00  0.00    +0.000 A 
ATOM      6  N   UNL     1       4.276   5.568  17.169  0.00  0.00    +0.000 N 
ATOM      7  N   UNL     1       6.056   5.580  18.753  0.00  0.00    +0.000 NA
ATOM      8  H   UNL     1       4.091   5.922  16.242  0.00  0.00    +0.000 HD
ENDROOT
BRANCH   6   9
ATOM      9  C   UNL     1       3.512   4.472  17.598  0.00  0.00    +0.000 A 
ATOM     10  C   UNL     1       2.149   4.664  17.883  0.00  0.00    +0.000 A 
ATOM     11  C   UNL     1       1.323   3.593  18.244  0.00  0.00    +0.000 A 
ATOM     12  C   UNL     1       1.852   2.311  18.338  0.00  0.00    +0.000 A 
ATOM     13  C   UNL     1       3.202   2.117  18.085  0.00  0.00    +0.000 A 
ATOM     14  F   UNL     1       3.718   0.884  18.177  0.00  0.00    +0.000 F 
ATOM     15  C   UNL     1       4.027   3.177  17.727  0.00  0.00    +0.000 A 
ENDBRANCH   6   9
BRANCH   1  16
ATOM     16  O   UNL     1       7.783   5.511  20.222  0.00  0.00    +0.000 OA
ATOM     17  H   UNL     1       7.345   5.943  20.969  0.00  0.00    +0.000 HD
ENDBRANCH   1  16
TORSDOF 2
ENDMDL
MODEL 2
REMARK VINA RESULT:      -7.4      1.379      1.771
REMARK  Name = 
REMARK  2 active torsions:
REMARK  status: ('A' for Active; 'I' for Inactive)
REMARK    1  A    between atoms: O_1  and  C_2
REMARK    2  A    between atoms: N_7  and  C_8
REMARK                            x       y       z     vdW  Elec       q    Type
REMARK                         _______ _______ _______ _____ _____    ______ ____
ROOT
ATOM      1  C   UNL     1       7.129   5.914  19.041  0.00  0.00    +0.000 A 
ATOM      2  C   UNL     1       7.877   6.696  18.198  0.00  0.00    +0.000 A 
ATOM      3  N   UNL     1       7.324   7.184  17.080  0.00  0.00    +0.000 NA
ATOM      4  N   UNL     1       6.023   6.867  16.815  0.00  0.00    +0.000 NA
ATOM      5  C   UNL     1       5.323   6.072  17.661  0.00  0.00    +0.000 A 
ATOM      6  N   UNL     1       4.026   5.718  17.273  0.00  0.00    +0.000 N 
ATOM      7  N   UNL     1       5.858   5.592  18.792  0.00  0.00    +0.000 NA
ATOM      8  H   UNL     1       3.839   6.071  16.346  0.00  0.00    +0.000 HD
ENDROOT
BRANCH   6   9
ATOM      9  C   UNL     1       3.179   4.708  17.754  0.00  0.00    +0.000 A 
ATOM     10  C   UNL     1       3.338   3.399  17.266  0.00  0.00    +0.000 A 
ATOM     11  C   UNL     1       2.569   2.339  17.763  0.00  0.00    +0.000 A 
ATOM     12  C   UNL     1       1.619   2.576  18.751  0.00  0.00    +0.000 A 
ATOM     13  C   UNL     1       1.437   3.869  19.218  0.00  0.00    +0.000 A 
ATOM     14  F   UNL     1       0.521   4.103  20.166  0.00  0.00    +0.000 F 
ATOM     15  C   UNL     1       2.196   4.925  18.727  0.00  0.00    +0.000 A 
ENDBRANCH   6   9
BRANCH   1  16
ATOM     16  O   UNL     1       7.625   5.388  20.198  0.00  0.00    +0.000 OA
ATOM     17  H   UNL     1       8.399   4.844  19.993  0.00  0.00    +0.000 HD
ENDBRANCH   1  16
TORSDOF 2
ENDMDL
MODEL 3
REMARK VINA RESULT:      -7.3      1.886      2.208
REMARK  Name = 
REMARK  2 active torsions:
REMARK  status: ('A' for Active; 'I' for Inactive)
REMARK    1  A    between atoms: O_1  and  C_2
REMARK    2  A    between atoms: N_7  and  C_8
REMARK                            x       y       z     vdW  Elec       q    Type
REMARK                         _______ _______ _______ _____ _____    ______ ____
ROOT
ATOM      1  C   UNL     1       6.621   5.053  17.592  0.00  0.00    +0.000 A 
ATOM      2  C   UNL     1       6.966   5.876  16.551  0.00  0.00    +0.000 A 
ATOM      3  N   UNL     1       6.055   6.714  16.037  0.00  0.00    +0.000 NA
ATOM      4  N   UNL     1       4.799   6.703  16.571  0.00  0.00    +0.000 NA
ATOM      5  C   UNL     1       4.490   5.858  17.584  0.00  0.00    +0.000 A 
ATOM      6  N   UNL     1       3.158   5.841  18.014  0.00  0.00    +0.000 N 
ATOM      7  N   UNL     1       5.395   5.028  18.119  0.00  0.00    +0.000 NA
ATOM      8  H   UNL     1       2.601   6.439  17.420  0.00  0.00    +0.000 HD
ENDROOT
BRANCH   6   9
ATOM      9  C   UNL     1       2.470   4.907  18.803  0.00  0.00    +0.000 A 
ATOM     10  C   UNL     1       2.503   5.043  20.201  0.00  0.00    +0.000 A 
ATOM     11  C   UNL     1       1.776   4.182  21.034  0.00  0.00    +0.000 A 
ATOM     12  C   UNL     1       1.012   3.162  20.477  0.00  0.00    +0.000 A 
ATOM     13  C   UNL     1       0.996   3.004  19.099  0.00  0.00    +0.000 A 
ATOM     14  F   UNL     1       0.265   2.021  18.558  0.00  0.00    +0.000 F 
ATOM     15  C   UNL     1       1.717   3.855  18.268  0.00  0.00    +0.000 A 
ENDBRANCH   6   9
BRANCH   1  16
ATOM     16  O   UNL     1       7.498   4.180  18.167  0.00  0.00    +0.000 OA
ATOM     17  H   UNL     1       7.700   3.473  17.538  0.00  0.00    +0.000 HD
ENDBRANCH   1  16
TORSDOF 2
ENDMDL
MODEL 4
REMARK VINA RESULT:      -7.1      2.277      2.761
REMARK  Name = 
REMARK  2 active torsions:
REMARK  status: ('A' for Active; 'I' for Inactive)
REMARK    1  A    between atoms: O_1  and  C_2
REMARK    2  A    between atoms: N_7  and  C_8
REMARK                            x       y       z     vdW  Elec       q    Type
REMARK                         _______ _______ _______ _____ _____    ______ ____
ROOT
ATOM      1  C   UNL     1       6.221   6.282  17.019  0.00  0.00    +0.000 A 
ATOM      2  C   UNL     1       7.408   6.682  17.576  0.00  0.00    +0.000 A 
ATOM      3  N   UNL     1       7.873   6.056  18.666  0.00  0.00    +0.000 NA
ATOM      4  N   UNL     1       7.126   5.041  19.192  0.00  0.00    +0.000 NA
ATOM      5  C   UNL     1       5.946   4.691  18.625  0.00  0.00    +0.000 A 
ATOM      6  N   UNL     1       5.196   3.704  19.276  0.00  0.00    +0.000 N 
ATOM      7  N   UNL     1       5.478   5.295  17.525  0.00  0.00    +0.000 NA
ATOM      8  H   UNL     1       5.646   3.453  20.145  0.00  0.00    +0.000 HD
ENDROOT
BRANCH   6   9
ATOM      9  C   UNL     1       3.849   3.341  19.126  0.00  0.00    +0.000 A 
ATOM     10  C   UNL     1       3.521   2.292  18.251  0.00  0.00    +0.000 A 
ATOM     11  C   UNL     1       2.203   1.840  18.117  0.00  0.00    +0.000 A 
ATOM     12  C   UNL     1       1.187   2.442  18.852  0.00  0.00    +0.000 A 
ATOM     13  C   UNL     1       1.498   3.496  19.698  0.00  0.00    +0.000 A 
ATOM     14  F   UNL     1       0.522   4.082  20.406  0.00  0.00    +0.000 F 
ATOM     15  C   UNL     1       2.805   3.949  19.833  0.00  0.00    +0.000 A 
ENDBRANCH   6   9
BRANCH   1  16
ATOM     16  O   UNL     1       5.690   6.870  15.907  0.00  0.00    +0.000 OA
ATOM     17  H   UNL     1       4.858   6.431  15.681  0.00  0.00    +0.000 HD
ENDBRANCH   1  16
TORSDOF 2
ENDMDL
MODEL 5
REMARK VINA RESULT:      -7.1      2.142      2.383
REMARK  Name = 
REMARK  2 active torsions:
REMARK  status: ('A' for Active; 'I' for Inactive)
REMARK    1  A    between atoms: O_1  and  C_2
REMARK    2  A    between atoms: N_7  and  C_8
REMARK                            x       y       z     vdW  Elec       q    Type
REMARK                         _______ _______ _______ _____ _____    ______ ____
ROOT
ATOM      1  C   UNL     1       6.607   4.964  17.525  0.00  0.00    +0.000 A 
ATOM      2  C   UNL     1       6.941   5.745  16.448  0.00  0.00    +0.000 A 
ATOM      3  N   UNL     1       6.017   6.542  15.895  0.00  0.00    +0.000 NA
ATOM      4  N   UNL     1       4.759   6.533  16.425  0.00  0.00    +0.000 NA
ATOM      5  C   UNL     1       4.462   5.730  17.475  0.00  0.00    +0.000 A 
ATOM      6  N   UNL     1       3.129   5.709  17.902  0.00  0.00    +0.000 N 
ATOM      7  N   UNL     1       5.380   4.941  18.050  0.00  0.00    +0.000 NA
ATOM      8  H   UNL     1       2.564   6.269  17.280  0.00  0.00    +0.000 HD
ENDROOT
BRANCH   6   9
ATOM      9  C   UNL     1       2.455   4.799  18.731  0.00  0.00    +0.000 A 
ATOM     10  C   UNL     1       1.599   3.851  18.145  0.00  0.00    +0.000 A 
ATOM     11  C   UNL     1       0.958   2.874  18.916  0.00  0.00    +0.000 A 
ATOM     12  C   UNL     1       1.157   2.837  20.292  0.00  0.00    +0.000 A 
ATOM     13  C   UNL     1       1.979   3.785  20.882  0.00  0.00    +0.000 A 
ATOM     14  F   UNL     1       2.172   3.756  22.207  0.00  0.00    +0.000 F 
ATOM     15  C   UNL     1       2.617   4.759  20.121  0.00  0.00    +0.000 A 
ENDBRANCH   6   9
BRANCH   1  16
ATOM     16  O   UNL     1       7.497   4.134  18.141  0.00  0.00    +0.000 OA
ATOM     17  H   UNL     1       8.083   4.658  18.705  0.00  0.00    +0.000 HD
ENDBRANCH   1  16
TORSDOF 2
ENDMDL
MODEL 6
REMARK VINA RESULT:      -7.1      2.699      2.990
REMARK  Name = 
REMARK  2 active torsions:
REMARK  status: ('A' for Active; 'I' for Inactive)
REMARK    1  A    between atoms: O_1  and  C_2
REMARK    2  A    between atoms: N_7  and  C_8
REMARK                            x       y       z     vdW  Elec       q    Type
REMARK                         _______ _______ _______ _____ _____    ______ ____
ROOT
ATOM      1  C   UNL     1       5.598   4.306  15.918  0.00  0.00    +0.000 A 
ATOM      2  C   UNL     1       5.910   5.383  15.130  0.00  0.00    +0.000 A 
ATOM      3  N   UNL     1       5.402   6.588  15.423  0.00  0.00    +0.000 NA
ATOM      4  N   UNL     1       4.571   6.691  16.501  0.00  0.00    +0.000 NA
ATOM      5  C   UNL     1       4.268   5.597  17.242  0.00  0.00    +0.000 A 
ATOM      6  N   UNL     1       3.339   5.766  18.274  0.00  0.00    +0.000 N 
ATOM      7  N   UNL     1       4.784   4.390  16.972  0.00  0.00    +0.000 NA
ATOM      8  H   UNL     1       2.972   6.707  18.251  0.00  0.00    +0.000 HD
ENDROOT
BRANCH   6   9
ATOM      9  C   UNL     1       2.610   4.815  19.004  0.00  0.00    +0.000 A 
ATOM     10  C   UNL     1       2.705   4.816  20.406  0.00  0.00    +0.000 A 
ATOM     11  C   UNL     1       1.944   3.937  21.188  0.00  0.00    +0.000 A 
ATOM     12  C   UNL     1       1.083   3.033  20.576  0.00  0.00    +0.000 A 
ATOM     13  C   UNL     1       1.004   3.007  19.191  0.00  0.00    +0.000 A 
ATOM     14  F   UNL     1       0.179   2.136  18.596  0.00  0.00    +0.000 F 
ATOM     15  C   UNL     1       1.758   3.876  18.410  0.00  0.00    +0.000 A 
ENDBRANCH   6   9
BRANCH   1  16
ATOM     16  O   UNL     1       6.083   3.052  15.683  0.00  0.00    +0.000 OA
ATOM     17  H   UNL     1       6.392   2.669  16.516  0.00  0.00    +0.000 HD
ENDBRANCH   1  16
TORSDOF 2
ENDMDL
MODEL 7
REMARK VINA RESULT:      -7.1      2.382      2.773
REMARK  Name = 
REMARK  2 active torsions:
REMARK  status: ('A' for Active; 'I' for Inactive)
REMARK    1  A    between atoms: O_1  and  C_2
REMARK    2  A    between atoms: N_7  and  C_8
REMARK                            x       y       z     vdW  Elec       q    Type
REMARK                         _______ _______ _______ _____ _____    ______ ____
ROOT
ATOM      1  C   UNL     1       5.809   5.908  16.583  0.00  0.00    +0.000 A 
ATOM      2  C   UNL     1       7.172   5.969  16.711  0.00  0.00    +0.000 A 
ATOM      3  N   UNL     1       7.790   5.194  17.613  0.00  0.00    +0.000 NA
ATOM      4  N   UNL     1       7.021   4.374  18.389  0.00  0.00    +0.000 NA
ATOM      5  C   UNL     1       5.674   4.359  18.248  0.00  0.00    +0.000 A 
ATOM      6  N   UNL     1       4.950   3.561  19.141  0.00  0.00    +0.000 N 
ATOM      7  N   UNL     1       5.045   5.115  17.338  0.00  0.00    +0.000 NA
ATOM      8  H   UNL     1       5.577   3.163  19.826  0.00  0.00    +0.000 HD
ENDROOT
BRANCH   6   9
ATOM      9  C   UNL     1       3.581   3.555  19.450  0.00  0.00    +0.000 A 
ATOM     10  C   UNL     1       3.086   4.503  20.362  0.00  0.00    +0.000 A 
ATOM     11  C   UNL     1       1.718   4.589  20.651  0.00  0.00    +0.000 A 
ATOM     12  C   UNL     1       0.824   3.718  20.038  0.00  0.00    +0.000 A 
ATOM     13  C   UNL     1       1.308   2.761  19.157  0.00  0.00    +0.000 A 
ATOM     14  F   UNL     1       0.452   1.917  18.567  0.00  0.00    +0.000 F 
ATOM     15  C   UNL     1       2.665   2.671  18.868  0.00  0.00    +0.000 A 
ENDBRANCH   6   9
BRANCH   1  16
ATOM     16  O   UNL     1       5.115   6.664  15.683  0.00  0.00    +0.000 OA
ATOM     17  H   UNL     1       5.741   7.128  15.109  0.00  0.00    +0.000 HD
ENDBRANCH   1  16
TORSDOF 2
ENDMDL
MODEL 8
REMARK VINA RESULT:      -7.0      3.112      3.532
REMARK  Name = 
REMARK  2 active torsions:
REMARK  status: ('A' for Active; 'I' for Inactive)
REMARK    1  A    between atoms: O_1  and  C_2
REMARK    2  A    between atoms: N_7  and  C_8
REMARK                            x       y       z     vdW  Elec       q    Type
REMARK                         _______ _______ _______ _____ _____    ______ ____
ROOT
ATOM      1  C   UNL     1       5.852   4.313  15.720  0.00  0.00    +0.000 A 
ATOM      2  C   UNL     1       7.180   4.653  15.724  0.00  0.00    +0.000 A 
ATOM      3  N   UNL     1       7.860   4.658  16.879  0.00  0.00    +0.000 NA
ATOM      4  N   UNL     1       7.188   4.333  18.022  0.00  0.00    +0.000 NA
ATOM      5  C   UNL     1       5.869   4.026  17.979  0.00  0.00    +0.000 A 
ATOM      6  N   UNL     1       5.231   3.794  19.203  0.00  0.00    +0.000 N 
ATOM      7  N   UNL     1       5.181   3.998  16.830  0.00  0.00    +0.000 NA
ATOM      8  H   UNL     1       5.873   3.974  19.961  0.00  0.00    +0.000 HD
ENDROOT
BRANCH   6   9
ATOM      9  C   UNL     1       3.865   3.751  19.521  0.00  0.00    +0.000 A 
ATOM     10  C   UNL     1       3.180   2.528  19.411  0.00  0.00    +0.000 A 
ATOM     11  C   UNL     1       1.835   2.412  19.784  0.00  0.00    +0.000 A 
ATOM     12  C   UNL     1       1.150   3.523  20.264  0.00  0.00    +0.000 A 
ATOM     13  C   UNL     1       1.811   4.739  20.350  0.00  0.00    +0.000 A 
ATOM     14  F   UNL     1       1.155   5.814  20.808  0.00  0.00    +0.000 F 
ATOM     15  C   UNL     1       3.146   4.861  19.980  0.00  0.00    +0.000 A 
ENDBRANCH   6   9
BRANCH   1  16
ATOM     16  O   UNL     1       5.099   4.281  14.581  0.00  0.00    +0.000 OA
ATOM     17  H   UNL     1       4.313   4.832  14.705  0.00  0.00    +0.000 HD
ENDBRANCH   1  16
TORSDOF 2
ENDMDL
MODEL 9
REMARK VINA RESULT:      -7.0      3.048      3.365
REMARK  Name = 
REMARK  2 active torsions:
REMARK  status: ('A' for Active; 'I' for Inactive)
REMARK    1  A    between atoms: O_1  and  C_2
REMARK    2  A    between atoms: N_7  and  C_8
REMARK                            x       y       z     vdW  Elec       q    Type
REMARK                         _______ _______ _______ _____ _____    ______ ____
ROOT
ATOM      1  C   UNL     1       6.287   3.945  13.811  0.00  0.00    +0.000 A 
ATOM      2  C   UNL     1       7.355   4.768  13.560  0.00  0.00    +0.000 A 
ATOM      3  N   UNL     1       7.838   5.546  14.538  0.00  0.00    +0.000 NA
ATOM      4  N   UNL     1       7.229   5.497  15.758  0.00  0.00    +0.000 NA
ATOM      5  C   UNL     1       6.161   4.688  15.961  0.00  0.00    +0.000 A 
ATOM      6  N   UNL     1       5.535   4.763  17.211  0.00  0.00    +0.000 N 
ATOM      7  N   UNL     1       5.679   3.891  14.998  0.00  0.00    +0.000 NA
ATOM      8  H   UNL     1       5.959   5.497  17.760  0.00  0.00    +0.000 HD
ENDROOT
BRANCH   6   9
ATOM      9  C   UNL     1       4.277   4.301  17.625  0.00  0.00    +0.000 A 
ATOM     10  C   UNL     1       3.183   5.184  17.588  0.00  0.00    +0.000 A 
ATOM     11  C   UNL     1       1.892   4.757  17.920  0.00  0.00    +0.000 A 
ATOM     12  C   UNL     1       1.676   3.439  18.308  0.00  0.00    +0.000 A 
ATOM     13  C   UNL     1       2.754   2.569  18.374  0.00  0.00    +0.000 A 
ATOM     14  F   UNL     1       2.552   1.299  18.750  0.00  0.00    +0.000 F 
ATOM     15  C   UNL     1       4.039   2.988  18.046  0.00  0.00    +0.000 A 
ENDBRANCH   6   9
BRANCH   1  16
ATOM     16  O   UNL     1       5.747   3.123  12.865  0.00  0.00    +0.000 OA
ATOM     17  H   UNL     1       5.297   3.660  12.198  0.00  0.00    +0.000 HD
ENDBRANCH   1  16
TORSDOF 2
ENDMDL
