MODEL 1
REMARK VINA RESULT:      -7.5      0.000      0.000
REMARK  Name = 
REMARK  9 active torsions:
REMARK  status: ('A' for Active; 'I' for Inactive)
REMARK    1  A    between atoms: C_1  and  O_2
REMARK    2  A    between atoms: O_2  and  C_3
REMARK    3  A    between atoms: C_8  and  O_9
REMARK    4  A    between atoms: O_9  and  C_10
REMARK    5  A    between atoms: C_14  and  C_15
REMARK    6  A    between atoms: C_23  and  O_24
REMARK    7  A    between atoms: O_24  and  C_25
REMARK    8  A    between atoms: C_25  and  C_26
REMARK    9  A    between atoms: C_26  and  O_27
REMARK                            x       y       z     vdW  Elec       q    Type
REMARK                         _______ _______ _______ _____ _____    ______ ____
ROOT
ATOM      1  C   UNL     1       2.852   6.455  19.050  0.00  0.00    +0.000 A 
ATOM      2  C   UNL     1       2.496   7.686  18.514  0.00  0.00    +0.000 A 
ATOM      3  N   UNL     1       2.837   8.034  17.201  0.00  0.00    +0.000 N 
ATOM      4  N   UNL     1       1.731   8.582  19.157  0.00  0.00    +0.000 NA
ATOM      5  C   UNL     1       1.297   8.239  20.381  0.00  0.00    +0.000 A 
ATOM      6  N   UNL     1       1.515   7.048  20.959  0.00  0.00    +0.000 NA
ATOM      7  C   UNL     1       2.253   6.164  20.260  0.00  0.00    +0.000 A 
ATOM      8  H   UNL     1       3.818   7.870  17.011  0.00  0.00    +0.000 HD
ATOM      9  H   UNL     1       2.538   8.987  17.027  0.00  0.00    +0.000 HD
ENDROOT
BRANCH   5  10
ATOM     10  C   UNL     1       0.493   9.222  21.134  0.00  0.00    +0.000 A 
ATOM     11  C   UNL     1       0.251   9.062  22.513  0.00  0.00    +0.000 A 
ATOM     12  C   UNL     1      -0.510   9.986  23.237  0.00  0.00    +0.000 A 
ATOM     13  C   UNL     1      -1.049  11.095  22.595  0.00  0.00    +0.000 A 
ATOM     14  C   UNL     1      -0.822  11.278  21.232  0.00  0.00    +0.000 A 
ATOM     15 BR   UNL     1      -1.554  12.785  20.358  0.00  0.00    +0.000 Br
ATOM     16  C   UNL     1      -0.063  10.354  20.511  0.00  0.00    +0.000 A 
ENDBRANCH   5  10
BRANCH   1  17
ATOM     17  O   UNL     1       3.636   5.640  18.284  0.00  0.00    +0.000 OA
BRANCH  17  23
ATOM     18  C   UNL     1       5.775   6.136  17.105  0.00  0.00    +0.000 A 
ATOM     19  C   UNL     1       7.173   6.163  17.227  0.00  0.00    +0.000 A 
ATOM     20  C   UNL     1       7.797   5.820  18.430  0.00  0.00    +0.000 A 
ATOM     21  C   UNL     1       7.035   5.437  19.525  0.00  0.00    +0.000 A 
ATOM     22  C   UNL     1       5.645   5.414  19.421  0.00  0.00    +0.000 A 
ATOM     23  C   UNL     1       5.005   5.776  18.225  0.00  0.00    +0.000 A 
BRANCH  18  25
ATOM     24  C   UNL     1       5.419   5.463  14.860  0.00  0.00    +0.000 C 
ATOM     25  O   UNL     1       5.135   6.379  15.917  0.00  0.00    +0.000 OA
ENDBRANCH  18  25
ENDBRANCH  17  23
ENDBRANCH   1  17
BRANCH   7  26
ATOM     26  O   UNL     1       2.376   4.888  20.762  0.00  0.00    +0.000 OA
BRANCH  26  27
ATOM     27  C   UNL     1       1.333   3.976  20.403  0.00  0.00    +0.000 C 
BRANCH  27  28
ATOM     28  C   UNL     1       1.345   2.868  21.449  0.00  0.00    +0.000 C 
BRANCH  28  29
ATOM     29  O   UNL     1       2.661   2.680  21.961  0.00  0.00    +0.000 OA
ATOM     30  H   UNL     1       2.828   1.718  21.929  0.00  0.00    +0.000 HD
ENDBRANCH  28  29
ENDBRANCH  27  28
ENDBRANCH  26  27
ENDBRANCH   7  26
TORSDOF 8
ENDMDL
MODEL 2
REMARK VINA RESULT:      -7.3      1.125      1.226
REMARK  Name = 
REMARK  9 active torsions:
REMARK  status: ('A' for Active; 'I' for Inactive)
REMARK    1  A    between atoms: C_1  and  O_2
REMARK    2  A    between atoms: O_2  and  C_3
REMARK    3  A    between atoms: C_8  and  O_9
REMARK    4  A    between atoms: O_9  and  C_10
REMARK    5  A    between atoms: C_14  and  C_15
REMARK    6  A    between atoms: C_23  and  O_24
REMARK    7  A    between atoms: O_24  and  C_25
REMARK    8  A    between atoms: C_25  and  C_26
REMARK    9  A    between atoms: C_26  and  O_27
REMARK                            x       y       z     vdW  Elec       q    Type
REMARK                         _______ _______ _______ _____ _____    ______ ____
ROOT
ATOM      1  C   UNL     1       2.930   5.855  18.934  0.00  0.00    +0.000 A 
ATOM      2  C   UNL     1       2.782   7.138  18.421  0.00  0.00    +0.000 A 
ATOM      3  N   UNL     1       3.263   7.473  17.150  0.00  0.00    +0.000 N 
ATOM      4  N   UNL     1       2.097   8.110  19.043  0.00  0.00    +0.000 NA
ATOM      5  C   UNL     1       1.531   7.795  20.220  0.00  0.00    +0.000 A 
ATOM      6  N   UNL     1       1.545   6.570  20.766  0.00  0.00    +0.000 NA
ATOM      7  C   UNL     1       2.210   5.614  20.087  0.00  0.00    +0.000 A 
ATOM      8  H   UNL     1       4.225   7.184  17.023  0.00  0.00    +0.000 HD
ATOM      9  H   UNL     1       3.107   8.463  16.992  0.00  0.00    +0.000 HD
ENDROOT
BRANCH   5  10
ATOM     10  C   UNL     1       0.811   8.856  20.951  0.00  0.00    +0.000 A 
ATOM     11  C   UNL     1       0.664   8.804  22.352  0.00  0.00    +0.000 A 
ATOM     12  C   UNL     1      -0.017   9.803  23.056  0.00  0.00    +0.000 A 
ATOM     13  C   UNL     1      -0.570  10.880  22.372  0.00  0.00    +0.000 A 
ATOM     14  C   UNL     1      -0.435  10.957  20.986  0.00  0.00    +0.000 A 
ATOM     15 BR   UNL     1      -1.184  12.420  20.055  0.00  0.00    +0.000 Br
ATOM     16  C   UNL     1       0.245   9.958  20.286  0.00  0.00    +0.000 A 
ENDBRANCH   5  10
BRANCH   1  17
ATOM     17  O   UNL     1       3.654   4.963  18.194  0.00  0.00    +0.000 OA
BRANCH  17  23
ATOM     18  C   UNL     1       5.833   4.602  17.041  0.00  0.00    +0.000 A 
ATOM     19  C   UNL     1       7.229   4.674  17.175  0.00  0.00    +0.000 A 
ATOM     20  C   UNL     1       7.815   5.125  18.361  0.00  0.00    +0.000 A 
ATOM     21  C   UNL     1       7.016   5.502  19.433  0.00  0.00    +0.000 A 
ATOM     22  C   UNL     1       5.630   5.444  19.310  0.00  0.00    +0.000 A 
ATOM     23  C   UNL     1       5.028   5.013  18.118  0.00  0.00    +0.000 A 
BRANCH  18  25
ATOM     24  C   UNL     1       5.615   4.658  14.680  0.00  0.00    +0.000 C 
ATOM     25  O   UNL     1       5.227   4.081  15.927  0.00  0.00    +0.000 OA
ENDBRANCH  18  25
ENDBRANCH  17  23
ENDBRANCH   1  17
BRANCH   7  26
ATOM     26  O   UNL     1       2.124   4.319  20.547  0.00  0.00    +0.000 OA
BRANCH  26  27
ATOM     27  C   UNL     1       0.977   3.580  20.113  0.00  0.00    +0.000 C 
BRANCH  27  28
ATOM     28  C   UNL     1       1.499   2.428  19.262  0.00  0.00    +0.000 C 
BRANCH  28  29
ATOM     29  O   UNL     1       1.509   2.791  17.884  0.00  0.00    +0.000 OA
ATOM     30  H   UNL     1       2.443   2.759  17.603  0.00  0.00    +0.000 HD
ENDBRANCH  28  29
ENDBRANCH  27  28
ENDBRANCH  26  27
ENDBRANCH   7  26
TORSDOF 8
ENDMDL
MODEL 3
REMARK VINA RESULT:      -7.2      0.980      1.658
REMARK  Name = 
REMARK  9 active torsions:
REMARK  status: ('A' for Active; 'I' for Inactive)
REMARK    1  A    between atoms: C_1  and  O_2
REMARK    2  A    between atoms: O_2  and  C_3
REMARK    3  A    between atoms: C_8  and  O_9
REMARK    4  A    between atoms: O_9  and  C_10
REMARK    5  A    between atoms: C_14  and  C_15
REMARK    6  A    between atoms: C_23  and  O_24
REMARK    7  A    between atoms: O_24  and  C_25
REMARK    8  A    between atoms: C_25  and  C_26
REMARK    9  A    between atoms: C_26  and  O_27
REMARK                            x       y       z     vdW  Elec       q    Type
REMARK                         _______ _______ _______ _____ _____    ______ ____
ROOT
ATOM      1  C   UNL     1       2.654   6.788  18.937  0.00  0.00    +0.000 A 
ATOM      2  C   UNL     1       2.302   8.049  18.473  0.00  0.00    +0.000 A 
ATOM      3  N   UNL     1       2.579   8.444  17.159  0.00  0.00    +0.000 N 
ATOM      4  N   UNL     1       1.597   8.934  19.195  0.00  0.00    +0.000 NA
ATOM      5  C   UNL     1       1.222   8.550  20.426  0.00  0.00    +0.000 A 
ATOM      6  N   UNL     1       1.440   7.331  20.941  0.00  0.00    +0.000 NA
ATOM      7  C   UNL     1       2.115   6.460  20.166  0.00  0.00    +0.000 A 
ATOM      8  H   UNL     1       3.544   8.265  16.908  0.00  0.00    +0.000 HD
ATOM      9  H   UNL     1       2.296   9.411  17.042  0.00  0.00    +0.000 HD
ENDROOT
BRANCH   5  10
ATOM     10  C   UNL     1       0.487   9.519  21.263  0.00  0.00    +0.000 A 
ATOM     11  C   UNL     1      -0.122   9.124  22.471  0.00  0.00    +0.000 A 
ATOM     12  C   UNL     1      -0.822  10.033  23.271  0.00  0.00    +0.000 A 
ATOM     13  C   UNL     1      -0.930  11.362  22.880  0.00  0.00    +0.000 A 
ATOM     14  C   UNL     1      -0.334  11.780  21.691  0.00  0.00    +0.000 A 
ATOM     15 BR   UNL     1      -0.479  13.586  21.158  0.00  0.00    +0.000 Br
ATOM     16  C   UNL     1       0.364  10.870  20.893  0.00  0.00    +0.000 A 
ENDBRANCH   5  10
BRANCH   1  17
ATOM     17  O   UNL     1       3.373   5.987  18.095  0.00  0.00    +0.000 OA
BRANCH  17  23
ATOM     18  C   UNL     1       5.517   5.028  18.926  0.00  0.00    +0.000 A 
ATOM     19  C   UNL     1       6.917   5.142  18.890  0.00  0.00    +0.000 A 
ATOM     20  C   UNL     1       7.539   6.123  18.112  0.00  0.00    +0.000 A 
ATOM     21  C   UNL     1       6.773   7.009  17.366  0.00  0.00    +0.000 A 
ATOM     22  C   UNL     1       5.383   6.902  17.386  0.00  0.00    +0.000 A 
ATOM     23  C   UNL     1       4.747   5.909  18.147  0.00  0.00    +0.000 A 
BRANCH  18  25
ATOM     24  C   UNL     1       4.416   2.938  19.123  0.00  0.00    +0.000 C 
ATOM     25  O   UNL     1       4.873   4.138  19.746  0.00  0.00    +0.000 OA
ENDBRANCH  18  25
ENDBRANCH  17  23
ENDBRANCH   1  17
BRANCH   7  26
ATOM     26  O   UNL     1       2.232   5.160  20.606  0.00  0.00    +0.000 OA
BRANCH  26  27
ATOM     27  C   UNL     1       1.065   4.345  20.454  0.00  0.00    +0.000 C 
BRANCH  27  28
ATOM     28  C   UNL     1       1.371   3.016  21.134  0.00  0.00    +0.000 C 
BRANCH  28  29
ATOM     29  O   UNL     1       2.247   3.213  22.240  0.00  0.00    +0.000 OA
ATOM     30  H   UNL     1       2.071   4.115  22.567  0.00  0.00    +0.000 HD
ENDBRANCH  28  29
ENDBRANCH  27  28
ENDBRANCH  26  27
ENDBRANCH   7  26
TORSDOF 8
ENDMDL
MODEL 4
REMARK VINA RESULT:      -7.1      3.925      8.030
REMARK  Name = 
REMARK  9 active torsions:
REMARK  status: ('A' for Active; 'I' for Inactive)
REMARK    1  A    between atoms: C_1  and  O_2
REMARK    2  A    between atoms: O_2  and  C_3
REMARK    3  A    between atoms: C_8  and  O_9
REMARK    4  A    between atoms: O_9  and  C_10
REMARK    5  A    between atoms: C_14  and  C_15
REMARK    6  A    between atoms: C_23  and  O_24
REMARK    7  A    between atoms: O_24  and  C_25
REMARK    8  A    between atoms: C_25  and  C_26
REMARK    9  A    between atoms: C_26  and  O_27
REMARK                            x       y       z     vdW  Elec       q    Type
REMARK                         _______ _______ _______ _____ _____    ______ ____
ROOT
ATOM      1  C   UNL     1       1.079   9.837  19.327  0.00  0.00    +0.000 A 
ATOM      2  C   UNL     1       1.928   9.980  18.237  0.00  0.00    +0.000 A 
ATOM      3  N   UNL     1       2.142  11.229  17.639  0.00  0.00    +0.000 N 
ATOM      4  N   UNL     1       2.673   8.980  17.742  0.00  0.00    +0.000 NA
ATOM      5  C   UNL     1       2.574   7.790  18.356  0.00  0.00    +0.000 A 
ATOM      6  N   UNL     1       1.847   7.563  19.461  0.00  0.00    +0.000 NA
ATOM      7  C   UNL     1       1.147   8.606  19.947  0.00  0.00    +0.000 A 
ATOM      8  H   UNL     1       1.270  11.701  17.433  0.00  0.00    +0.000 HD
ATOM      9  H   UNL     1       2.744  11.106  16.833  0.00  0.00    +0.000 HD
ENDROOT
BRANCH   5  10
ATOM     10  C   UNL     1       3.345   6.657  17.806  0.00  0.00    +0.000 A 
ATOM     11  C   UNL     1       4.510   6.871  17.043  0.00  0.00    +0.000 A 
ATOM     12  C   UNL     1       5.248   5.806  16.516  0.00  0.00    +0.000 A 
ATOM     13  C   UNL     1       4.834   4.497  16.739  0.00  0.00    +0.000 A 
ATOM     14  C   UNL     1       3.686   4.258  17.493  0.00  0.00    +0.000 A 
ATOM     15 BR   UNL     1       3.122   2.481  17.798  0.00  0.00    +0.000 Br
ATOM     16  C   UNL     1       2.951   5.324  18.018  0.00  0.00    +0.000 A 
ENDBRANCH   5  10
BRANCH   1  17
ATOM     17  O   UNL     1       0.379  10.942  19.726  0.00  0.00    +0.000 OA
BRANCH  17  23
ATOM     18  C   UNL     1      -1.833  12.077  19.890  0.00  0.00    +0.000 A 
ATOM     19  C   UNL     1      -3.131  12.144  19.360  0.00  0.00    +0.000 A 
ATOM     20  C   UNL     1      -3.516  11.326  18.293  0.00  0.00    +0.000 A 
ATOM     21  C   UNL     1      -2.611  10.426  17.745  0.00  0.00    +0.000 A 
ATOM     22  C   UNL     1      -1.316  10.356  18.255  0.00  0.00    +0.000 A 
ATOM     23  C   UNL     1      -0.912  11.186  19.313  0.00  0.00    +0.000 A 
BRANCH  18  25
ATOM     24  C   UNL     1      -1.148  14.174  20.761  0.00  0.00    +0.000 C 
ATOM     25  O   UNL     1      -1.450  12.798  20.992  0.00  0.00    +0.000 OA
ENDBRANCH  18  25
ENDBRANCH  17  23
ENDBRANCH   1  17
BRANCH   7  26
ATOM     26  O   UNL     1       0.505   8.445  21.155  0.00  0.00    +0.000 OA
BRANCH  26  27
ATOM     27  C   UNL     1       1.153   9.034  22.287  0.00  0.00    +0.000 C 
BRANCH  27  28
ATOM     28  C   UNL     1       0.052   9.625  23.159  0.00  0.00    +0.000 C 
BRANCH  28  29
ATOM     29  O   UNL     1      -0.155  10.998  22.839  0.00  0.00    +0.000 OA
ATOM     30  H   UNL     1       0.586  11.253  22.256  0.00  0.00    +0.000 HD
ENDBRANCH  28  29
ENDBRANCH  27  28
ENDBRANCH  26  27
ENDBRANCH   7  26
TORSDOF 8
ENDMDL
MODEL 5
REMARK VINA RESULT:      -7.0      1.526      2.433
REMARK  Name = 
REMARK  9 active torsions:
REMARK  status: ('A' for Active; 'I' for Inactive)
REMARK    1  A    between atoms: C_1  and  O_2
REMARK    2  A    between atoms: O_2  and  C_3
REMARK    3  A    between atoms: C_8  and  O_9
REMARK    4  A    between atoms: O_9  and  C_10
REMARK    5  A    between atoms: C_14  and  C_15
REMARK    6  A    between atoms: C_23  and  O_24
REMARK    7  A    between atoms: O_24  and  C_25
REMARK    8  A    between atoms: C_25  and  C_26
REMARK    9  A    between atoms: C_26  and  O_27
REMARK                            x       y       z     vdW  Elec       q    Type
REMARK                         _______ _______ _______ _____ _____    ______ ____
ROOT
ATOM      1  C   UNL     1       2.742   6.776  18.999  0.00  0.00    +0.000 A 
ATOM      2  C   UNL     1       2.363   8.020  18.508  0.00  0.00    +0.000 A 
ATOM      3  N   UNL     1       2.685   8.417  17.205  0.00  0.00    +0.000 N 
ATOM      4  N   UNL     1       1.592   8.882  19.190  0.00  0.00    +0.000 NA
ATOM      5  C   UNL     1       1.176   8.491  20.405  0.00  0.00    +0.000 A 
ATOM      6  N   UNL     1       1.417   7.284  20.940  0.00  0.00    +0.000 NA
ATOM      7  C   UNL     1       2.161   6.436  20.204  0.00  0.00    +0.000 A 
ATOM      8  H   UNL     1       3.667   8.274  17.000  0.00  0.00    +0.000 HD
ATOM      9  H   UNL     1       2.370   9.371  17.067  0.00  0.00    +0.000 HD
ENDROOT
BRANCH   5  10
ATOM     10  C   UNL     1       0.366   9.436  21.200  0.00  0.00    +0.000 A 
ATOM     11  C   UNL     1       0.072   9.184  22.555  0.00  0.00    +0.000 A 
ATOM     12  C   UNL     1      -0.695  10.071  23.317  0.00  0.00    +0.000 A 
ATOM     13  C   UNL     1      -1.188  11.235  22.738  0.00  0.00    +0.000 A 
ATOM     14  C   UNL     1      -0.910  11.510  21.401  0.00  0.00    +0.000 A 
ATOM     15 BR   UNL     1      -1.579  13.091  20.613  0.00  0.00    +0.000 Br
ATOM     16  C   UNL     1      -0.144  10.622  20.641  0.00  0.00    +0.000 A 
ENDBRANCH   5  10
BRANCH   1  17
ATOM     17  O   UNL     1       3.529   5.999  18.197  0.00  0.00    +0.000 OA
BRANCH  17  23
ATOM     18  C   UNL     1       4.471   3.785  18.846  0.00  0.00    +0.000 A 
ATOM     19  C   UNL     1       4.306   2.394  18.750  0.00  0.00    +0.000 A 
ATOM     20  C   UNL     1       3.221   1.845  18.061  0.00  0.00    +0.000 A 
ATOM     21  C   UNL     1       2.289   2.676  17.453  0.00  0.00    +0.000 A 
ATOM     22  C   UNL     1       2.435   4.059  17.549  0.00  0.00    +0.000 A 
ATOM     23  C   UNL     1       3.510   4.623  18.255  0.00  0.00    +0.000 A 
BRANCH  18  25
ATOM     24  C   UNL     1       6.583   4.820  18.542  0.00  0.00    +0.000 C 
ATOM     25  O   UNL     1       5.570   4.357  19.435  0.00  0.00    +0.000 OA
ENDBRANCH  18  25
ENDBRANCH  17  23
ENDBRANCH   1  17
BRANCH   7  26
ATOM     26  O   UNL     1       2.307   5.145  20.660  0.00  0.00    +0.000 OA
BRANCH  26  27
ATOM     27  C   UNL     1       1.106   4.368  20.723  0.00  0.00    +0.000 C 
BRANCH  27  28
ATOM     28  C   UNL     1       1.513   2.976  21.191  0.00  0.00    +0.000 C 
BRANCH  28  29
ATOM     29  O   UNL     1       2.400   3.063  22.303  0.00  0.00    +0.000 OA
ATOM     30  H   UNL     1       1.923   3.570  22.988  0.00  0.00    +0.000 HD
ENDBRANCH  28  29
ENDBRANCH  27  28
ENDBRANCH  26  27
ENDBRANCH   7  26
TORSDOF 8
ENDMDL
MODEL 6
REMARK VINA RESULT:      -7.0      3.962      8.052
REMARK  Name = 
REMARK  9 active torsions:
REMARK  status: ('A' for Active; 'I' for Inactive)
REMARK    1  A    between atoms: C_1  and  O_2
REMARK    2  A    between atoms: O_2  and  C_3
REMARK    3  A    between atoms: C_8  and  O_9
REMARK    4  A    between atoms: O_9  and  C_10
REMARK    5  A    between atoms: C_14  and  C_15
REMARK    6  A    between atoms: C_23  and  O_24
REMARK    7  A    between atoms: O_24  and  C_25
REMARK    8  A    between atoms: C_25  and  C_26
REMARK    9  A    between atoms: C_26  and  O_27
REMARK                            x       y       z     vdW  Elec       q    Type
REMARK                         _______ _______ _______ _____ _____    ______ ____
ROOT
ATOM      1  C   UNL     1       0.946   9.725  19.464  0.00  0.00    +0.000 A 
ATOM      2  C   UNL     1       1.776   9.798  18.352  0.00  0.00    +0.000 A 
ATOM      3  N   UNL     1       2.004  11.012  17.693  0.00  0.00    +0.000 N 
ATOM      4  N   UNL     1       2.487   8.758  17.889  0.00  0.00    +0.000 NA
ATOM      5  C   UNL     1       2.374   7.600  18.560  0.00  0.00    +0.000 A 
ATOM      6  N   UNL     1       1.665   7.441  19.688  0.00  0.00    +0.000 NA
ATOM      7  C   UNL     1       1.000   8.523  20.140  0.00  0.00    +0.000 A 
ATOM      8  H   UNL     1       1.139  11.494  17.482  0.00  0.00    +0.000 HD
ATOM      9  H   UNL     1       2.587  10.838  16.881  0.00  0.00    +0.000 HD
ENDROOT
BRANCH   5  10
ATOM     10  C   UNL     1       3.107   6.425  18.048  0.00  0.00    +0.000 A 
ATOM     11  C   UNL     1       2.525   5.142  18.060  0.00  0.00    +0.000 A 
ATOM     12  C   UNL     1       3.209   4.021  17.578  0.00  0.00    +0.000 A 
ATOM     13  C   UNL     1       4.497   4.159  17.072  0.00  0.00    +0.000 A 
ATOM     14  C   UNL     1       5.094   5.418  17.046  0.00  0.00    +0.000 A 
ATOM     15 BR   UNL     1       6.843   5.608  16.358  0.00  0.00    +0.000 Br
ATOM     16  C   UNL     1       4.409   6.536  17.528  0.00  0.00    +0.000 A 
ENDBRANCH   5  10
BRANCH   1  17
ATOM     17  O   UNL     1       0.281  10.863  19.825  0.00  0.00    +0.000 OA
BRANCH  17  23
ATOM     18  C   UNL     1      -1.862  12.134  19.872  0.00  0.00    +0.000 A 
ATOM     19  C   UNL     1      -3.152  12.230  19.327  0.00  0.00    +0.000 A 
ATOM     20  C   UNL     1      -3.579  11.348  18.329  0.00  0.00    +0.000 A 
ATOM     21  C   UNL     1      -2.726  10.354  17.868  0.00  0.00    +0.000 A 
ATOM     22  C   UNL     1      -1.440  10.253  18.393  0.00  0.00    +0.000 A 
ATOM     23  C   UNL     1      -0.992  11.145  19.381  0.00  0.00    +0.000 A 
BRANCH  18  25
ATOM     24  C   UNL     1      -2.467  13.638  21.602  0.00  0.00    +0.000 C 
ATOM     25  O   UNL     1      -1.443  12.922  20.913  0.00  0.00    +0.000 OA
ENDBRANCH  18  25
ENDBRANCH  17  23
ENDBRANCH   1  17
BRANCH   7  26
ATOM     26  O   UNL     1       0.380   8.432  21.366  0.00  0.00    +0.000 OA
BRANCH  26  27
ATOM     27  C   UNL     1       1.003   9.156  22.433  0.00  0.00    +0.000 C 
BRANCH  27  28
ATOM     28  C   UNL     1      -0.122   9.764  23.261  0.00  0.00    +0.000 C 
BRANCH  28  29
ATOM     29  O   UNL     1      -0.309  11.134  22.918  0.00  0.00    +0.000 OA
ATOM     30  H   UNL     1       0.459  11.382  22.370  0.00  0.00    +0.000 HD
ENDBRANCH  28  29
ENDBRANCH  27  28
ENDBRANCH  26  27
ENDBRANCH   7  26
TORSDOF 8
ENDMDL
MODEL 7
REMARK VINA RESULT:      -6.9      1.095      1.892
REMARK  Name = 
REMARK  9 active torsions:
REMARK  status: ('A' for Active; 'I' for Inactive)
REMARK    1  A    between atoms: C_1  and  O_2
REMARK    2  A    between atoms: O_2  and  C_3
REMARK    3  A    between atoms: C_8  and  O_9
REMARK    4  A    between atoms: O_9  and  C_10
REMARK    5  A    between atoms: C_14  and  C_15
REMARK    6  A    between atoms: C_23  and  O_24
REMARK    7  A    between atoms: O_24  and  C_25
REMARK    8  A    between atoms: C_25  and  C_26
REMARK    9  A    between atoms: C_26  and  O_27
REMARK                            x       y       z     vdW  Elec       q    Type
REMARK                         _______ _______ _______ _____ _____    ______ ____
ROOT
ATOM      1  C   UNL     1       2.645   6.744  18.909  0.00  0.00    +0.000 A 
ATOM      2  C   UNL     1       2.333   8.034  18.494  0.00  0.00    +0.000 A 
ATOM      3  N   UNL     1       2.688   8.493  17.220  0.00  0.00    +0.000 N 
ATOM      4  N   UNL     1       1.599   8.889  19.222  0.00  0.00    +0.000 NA
ATOM      5  C   UNL     1       1.152   8.445  20.409  0.00  0.00    +0.000 A 
ATOM      6  N   UNL     1       1.327   7.197  20.869  0.00  0.00    +0.000 NA
ATOM      7  C   UNL     1       2.035   6.360  20.086  0.00  0.00    +0.000 A 
ATOM      8  H   UNL     1       3.663   8.315  17.013  0.00  0.00    +0.000 HD
ATOM      9  H   UNL     1       2.422   9.469  17.140  0.00  0.00    +0.000 HD
ENDROOT
BRANCH   5  10
ATOM     10  C   UNL     1       0.382   9.379  21.254  0.00  0.00    +0.000 A 
ATOM     11  C   UNL     1       0.219   9.146  22.635  0.00  0.00    +0.000 A 
ATOM     12  C   UNL     1      -0.509  10.023  23.446  0.00  0.00    +0.000 A 
ATOM     13  C   UNL     1      -1.094  11.156  22.893  0.00  0.00    +0.000 A 
ATOM     14  C   UNL     1      -0.945  11.411  21.530  0.00  0.00    +0.000 A 
ATOM     15 BR   UNL     1      -1.739  12.951  20.776  0.00  0.00    +0.000 Br
ATOM     16  C   UNL     1      -0.218  10.534  20.722  0.00  0.00    +0.000 A 
ENDBRANCH   5  10
BRANCH   1  17
ATOM     17  O   UNL     1       3.401   5.980  18.066  0.00  0.00    +0.000 OA
BRANCH  17  23
ATOM     18  C   UNL     1       5.546   5.117  18.995  0.00  0.00    +0.000 A 
ATOM     19  C   UNL     1       6.943   5.254  18.977  0.00  0.00    +0.000 A 
ATOM     20  C   UNL     1       7.562   6.196  18.149  0.00  0.00    +0.000 A 
ATOM     21  C   UNL     1       6.795   7.018  17.335  0.00  0.00    +0.000 A 
ATOM     22  C   UNL     1       5.408   6.886  17.336  0.00  0.00    +0.000 A 
ATOM     23  C   UNL     1       4.775   5.931  18.147  0.00  0.00    +0.000 A 
BRANCH  18  25
ATOM     24  C   UNL     1       4.717   2.931  19.394  0.00  0.00    +0.000 C 
ATOM     25  O   UNL     1       4.901   4.268  19.858  0.00  0.00    +0.000 OA
ENDBRANCH  18  25
ENDBRANCH  17  23
ENDBRANCH   1  17
BRANCH   7  26
ATOM     26  O   UNL     1       2.113   5.037  20.463  0.00  0.00    +0.000 OA
BRANCH  26  27
ATOM     27  C   UNL     1       0.914   4.272  20.295  0.00  0.00    +0.000 C 
BRANCH  27  28
ATOM     28  C   UNL     1       1.235   3.178  19.284  0.00  0.00    +0.000 C 
BRANCH  28  29
ATOM     29  O   UNL     1       1.180   3.693  17.957  0.00  0.00    +0.000 OA
ATOM     30  H   UNL     1       1.963   3.335  17.496  0.00  0.00    +0.000 HD
ENDBRANCH  28  29
ENDBRANCH  27  28
ENDBRANCH  26  27
ENDBRANCH   7  26
TORSDOF 8
ENDMDL
MODEL 8
REMARK VINA RESULT:      -6.9      4.461      8.345
REMARK  Name = 
REMARK  9 active torsions:
REMARK  status: ('A' for Active; 'I' for Inactive)
REMARK    1  A    between atoms: C_1  and  O_2
REMARK    2  A    between atoms: O_2  and  C_3
REMARK    3  A    between atoms: C_8  and  O_9
REMARK    4  A    between atoms: O_9  and  C_10
REMARK    5  A    between atoms: C_14  and  C_15
REMARK    6  A    between atoms: C_23  and  O_24
REMARK    7  A    between atoms: O_24  and  C_25
REMARK    8  A    between atoms: C_25  and  C_26
REMARK    9  A    between atoms: C_26  and  O_27
REMARK                            x       y       z     vdW  Elec       q    Type
REMARK                         _______ _______ _______ _____ _____    ______ ____
ROOT
ATOM      1  C   UNL     1       5.108   4.438  18.230  0.00  0.00    +0.000 A 
ATOM      2  C   UNL     1       6.430   4.700  17.891  0.00  0.00    +0.000 A 
ATOM      3  N   UNL     1       7.394   4.960  18.872  0.00  0.00    +0.000 N 
ATOM      4  N   UNL     1       6.901   4.630  16.636  0.00  0.00    +0.000 NA
ATOM      5  C   UNL     1       6.025   4.281  15.679  0.00  0.00    +0.000 A 
ATOM      6  N   UNL     1       4.750   3.931  15.906  0.00  0.00    +0.000 NA
ATOM      7  C   UNL     1       4.331   3.976  17.186  0.00  0.00    +0.000 A 
ATOM      8  H   UNL     1       7.083   5.666  19.528  0.00  0.00    +0.000 HD
ATOM      9  H   UNL     1       8.273   5.181  18.415  0.00  0.00    +0.000 HD
ENDROOT
BRANCH   5  10
ATOM     10  C   UNL     1       6.502   4.241  14.282  0.00  0.00    +0.000 A 
ATOM     11  C   UNL     1       7.340   5.251  13.770  0.00  0.00    +0.000 A 
ATOM     12  C   UNL     1       7.797   5.225  12.448  0.00  0.00    +0.000 A 
ATOM     13  C   UNL     1       7.423   4.185  11.605  0.00  0.00    +0.000 A 
ATOM     14  C   UNL     1       6.597   3.171  12.088  0.00  0.00    +0.000 A 
ATOM     15 BR   UNL     1       6.088   1.756  10.944  0.00  0.00    +0.000 Br
ATOM     16  C   UNL     1       6.141   3.200  13.408  0.00  0.00    +0.000 A 
ENDBRANCH   5  10
BRANCH   1  17
ATOM     17  O   UNL     1       4.765   4.546  19.548  0.00  0.00    +0.000 OA
BRANCH  17  23
ATOM     18  C   UNL     1       2.596   4.635  20.772  0.00  0.00    +0.000 A 
ATOM     19  C   UNL     1       1.457   5.413  21.035  0.00  0.00    +0.000 A 
ATOM     20  C   UNL     1       1.317   6.692  20.487  0.00  0.00    +0.000 A 
ATOM     21  C   UNL     1       2.308   7.208  19.662  0.00  0.00    +0.000 A 
ATOM     22  C   UNL     1       3.448   6.450  19.400  0.00  0.00    +0.000 A 
ATOM     23  C   UNL     1       3.610   5.173  19.960  0.00  0.00    +0.000 A 
BRANCH  18  25
ATOM     24  C   UNL     1       1.542   2.751  21.751  0.00  0.00    +0.000 C 
ATOM     25  O   UNL     1       2.725   3.345  21.218  0.00  0.00    +0.000 OA
ENDBRANCH  18  25
ENDBRANCH  17  23
ENDBRANCH   1  17
BRANCH   7  26
ATOM     26  O   UNL     1       3.074   3.490  17.470  0.00  0.00    +0.000 OA
BRANCH  26  27
ATOM     27  C   UNL     1       3.007   2.100  17.806  0.00  0.00    +0.000 C 
BRANCH  27  28
ATOM     28  C   UNL     1       1.611   1.855  18.366  0.00  0.00    +0.000 C 
BRANCH  28  29
ATOM     29  O   UNL     1       0.793   3.007  18.186  0.00  0.00    +0.000 OA
ATOM     30  H   UNL     1       0.702   3.415  19.068  0.00  0.00    +0.000 HD
ENDBRANCH  28  29
ENDBRANCH  27  28
ENDBRANCH  26  27
ENDBRANCH   7  26
TORSDOF 8
ENDMDL
MODEL 9
REMARK VINA RESULT:      -6.9      1.278      1.281
REMARK  Name = 
REMARK  9 active torsions:
REMARK  status: ('A' for Active; 'I' for Inactive)
REMARK    1  A    between atoms: C_1  and  O_2
REMARK    2  A    between atoms: O_2  and  C_3
REMARK    3  A    between atoms: C_8  and  O_9
REMARK    4  A    between atoms: O_9  and  C_10
REMARK    5  A    between atoms: C_14  and  C_15
REMARK    6  A    between atoms: C_23  and  O_24
REMARK    7  A    between atoms: O_24  and  C_25
REMARK    8  A    between atoms: C_25  and  C_26
REMARK    9  A    between atoms: C_26  and  O_27
REMARK                            x       y       z     vdW  Elec       q    Type
REMARK                         _______ _______ _______ _____ _____    ______ ____
ROOT
ATOM      1  C   UNL     1       2.991   5.896  18.603  0.00  0.00    +0.000 A 
ATOM      2  C   UNL     1       2.910   7.238  18.252  0.00  0.00    +0.000 A 
ATOM      3  N   UNL     1       3.457   7.711  17.053  0.00  0.00    +0.000 N 
ATOM      4  N   UNL     1       2.233   8.151  18.966  0.00  0.00    +0.000 NA
ATOM      5  C   UNL     1       1.606   7.713  20.070  0.00  0.00    +0.000 A 
ATOM      6  N   UNL     1       1.554   6.429  20.456  0.00  0.00    +0.000 NA
ATOM      7  C   UNL     1       2.214   5.541  19.687  0.00  0.00    +0.000 A 
ATOM      8  H   UNL     1       4.413   7.402  16.928  0.00  0.00    +0.000 HD
ATOM      9  H   UNL     1       3.342   8.718  17.016  0.00  0.00    +0.000 HD
ENDROOT
BRANCH   5  10
ATOM     10  C   UNL     1       0.892   8.701  20.902  0.00  0.00    +0.000 A 
ATOM     11  C   UNL     1       0.883   8.599  22.308  0.00  0.00    +0.000 A 
ATOM     12  C   UNL     1       0.209   9.529  23.106  0.00  0.00    +0.000 A 
ATOM     13  C   UNL     1      -0.475  10.585  22.515  0.00  0.00    +0.000 A 
ATOM     14  C   UNL     1      -0.479  10.711  21.127  0.00  0.00    +0.000 A 
ATOM     15 BR   UNL     1      -1.407  12.146  20.322  0.00  0.00    +0.000 Br
ATOM     16  C   UNL     1       0.194   9.780  20.331  0.00  0.00    +0.000 A 
ENDBRANCH   5  10
BRANCH   1  17
ATOM     17  O   UNL     1       3.716   5.076  17.784  0.00  0.00    +0.000 OA
BRANCH  17  23
ATOM     18  C   UNL     1       5.944   4.485  16.838  0.00  0.00    +0.000 A 
ATOM     19  C   UNL     1       7.328   4.485  17.074  0.00  0.00    +0.000 A 
ATOM     20  C   UNL     1       7.856   5.003  18.260  0.00  0.00    +0.000 A 
ATOM     21  C   UNL     1       7.008   5.520  19.232  0.00  0.00    +0.000 A 
ATOM     22  C   UNL     1       5.633   5.535  19.007  0.00  0.00    +0.000 A 
ATOM     23  C   UNL     1       5.092   5.036  17.811  0.00  0.00    +0.000 A 
BRANCH  18  25
ATOM     24  C   UNL     1       5.716   4.512  14.478  0.00  0.00    +0.000 C 
ATOM     25  O   UNL     1       5.387   3.905  15.727  0.00  0.00    +0.000 OA
ENDBRANCH  18  25
ENDBRANCH  17  23
ENDBRANCH   1  17
BRANCH   7  26
ATOM     26  O   UNL     1       2.065   4.202  19.975  0.00  0.00    +0.000 OA
BRANCH  26  27
ATOM     27  C   UNL     1       3.111   3.614  20.756  0.00  0.00    +0.000 C 
BRANCH  27  28
ATOM     28  C   UNL     1       3.565   2.368  20.005  0.00  0.00    +0.000 C 
BRANCH  28  29
ATOM     29  O   UNL     1       4.988   2.299  19.968  0.00  0.00    +0.000 OA
ATOM     30  H   UNL     1       5.206   1.485  19.476  0.00  0.00    +0.000 HD
ENDBRANCH  28  29
ENDBRANCH  27  28
ENDBRANCH  26  27
ENDBRANCH   7  26
TORSDOF 8
ENDMDL
