MODEL 1
REMARK VINA RESULT:      -8.0      0.000      0.000
REMARK  Name = 
REMARK  10 active torsions:
REMARK  status: ('A' for Active; 'I' for Inactive)
REMARK    1  A    between atoms: C_1  and  C_2
REMARK    2  A    between atoms: C_2  and  O_3
REMARK    3  A    between atoms: O_3  and  C_4
REMARK    4  A    between atoms: C_7  and  N_8
REMARK    5  A    between atoms: C_9  and  C_11
REMARK    6  A    between atoms: C_11  and  C_12
REMARK    7  A    between atoms: N_15  and  C_16
REMARK    8  A    between atoms: C_20  and  O_21
REMARK    9  A    between atoms: O_21  and  C_22
REMARK   10  A    between atoms: N_26  and  C_27
REMARK                            x       y       z     vdW  Elec       q    Type
REMARK                         _______ _______ _______ _____ _____    ______ ____
ROOT
ATOM      1  C   UNL     1       1.120   9.365  20.578  0.00  0.00    +0.000 C 
ATOM      2  C   UNL     1       1.713   7.970  20.383  0.00  0.00    +0.000 C 
ATOM      3  O   UNL     1       1.889   7.197  21.317  0.00  0.00    +0.000 OA
ATOM      4  N   UNL     1       2.046   7.811  19.052  0.00  0.00    +0.000 N 
ATOM      5  C   UNL     1       1.842   8.999  18.374  0.00  0.00    +0.000 C 
ATOM      6  O   UNL     1       2.077   9.257  17.199  0.00  0.00    +0.000 OA
ATOM      7  N   UNL     1       1.282   9.923  19.253  0.00  0.00    +0.000 N 
ENDROOT
BRANCH   4   8
ATOM      8  C   UNL     1       2.568   6.625  18.481  0.00  0.00    +0.000 A 
ATOM      9  C   UNL     1       3.879   6.572  17.989  0.00  0.00    +0.000 A 
ATOM     10  C   UNL     1       4.381   5.405  17.408  0.00  0.00    +0.000 A 
ATOM     11  C   UNL     1       3.569   4.278  17.293  0.00  0.00    +0.000 A 
ATOM     12  C   UNL     1       2.264   4.301  17.783  0.00  0.00    +0.000 A 
ATOM     13  C   UNL     1       1.784   5.462  18.394  0.00  0.00    +0.000 A 
BRANCH  12  14
ATOM     14  O   UNL     1       1.548   3.149  17.594  0.00  0.00    +0.000 OA
ATOM     15  C   UNL     1       0.987   2.549  18.757  0.00  0.00    +0.000 C 
ENDBRANCH  12  14
ENDBRANCH   4   8
BRANCH   7  16
ATOM     16  C   UNL     1       0.958  11.308  18.920  0.00  0.00    +0.000 C 
ATOM     17  C   UNL     1       1.396  12.281  20.022  0.00  0.00    +0.000 C 
ATOM     18  C   UNL     1       1.210  13.722  19.564  0.00  0.00    +0.000 C 
ATOM     19  C   UNL     1      -0.235  13.993  19.151  0.00  0.00    +0.000 C 
ATOM     20  C   UNL     1      -0.760  12.969  18.143  0.00  0.00    +0.000 C 
ATOM     21  C   UNL     1      -0.528  11.530  18.609  0.00  0.00    +0.000 C 
ENDBRANCH   7  16
BRANCH   1  22
ATOM     22  C   UNL     1      -0.315   9.331  21.105  0.00  0.00    +0.000 C 
BRANCH  22  24
ATOM     23  N   UNL     1      -1.368  11.403  21.846  0.00  0.00    +0.000 N 
ATOM     24  C   UNL     1      -0.530  10.358  22.195  0.00  0.00    +0.000 C 
ATOM     25  O   UNL     1      -0.008  10.193  23.293  0.00  0.00    +0.000 OA
ATOM     26  H   UNL     1      -1.827  11.370  20.944  0.00  0.00    +0.000 HD
BRANCH  23  30
ATOM     27  C   UNL     1      -2.759  14.299  24.590  0.00  0.00    +0.000 A 
ATOM     28  C   UNL     1      -1.514  14.456  23.991  0.00  0.00    +0.000 A 
ATOM     29  C   UNL     1      -1.055  13.524  23.064  0.00  0.00    +0.000 A 
ATOM     30  C   UNL     1      -1.820  12.404  22.737  0.00  0.00    +0.000 A 
ATOM     31  C   UNL     1      -3.075  12.248  23.338  0.00  0.00    +0.000 A 
ATOM     32  C   UNL     1      -3.535  13.184  24.277  0.00  0.00    +0.000 A 
BRANCH  27  33
ATOM     33  O   UNL     1      -3.089  15.288  25.470  0.00  0.00    +0.000 OA
BRANCH  33  35
ATOM     34  C   UNL     1      -4.793  16.807  24.830  0.00  0.00    +0.000 C 
ATOM     35  C   UNL     1      -3.294  16.586  24.920  0.00  0.00    +0.000 C 
ENDBRANCH  33  35
ENDBRANCH  27  33
ENDBRANCH  23  30
ENDBRANCH  22  24
ENDBRANCH   1  22
TORSDOF 8
ENDMDL
MODEL 2
REMARK VINA RESULT:      -7.8      0.925      1.761
REMARK  Name = 
REMARK  10 active torsions:
REMARK  status: ('A' for Active; 'I' for Inactive)
REMARK    1  A    between atoms: C_1  and  C_2
REMARK    2  A    between atoms: C_2  and  O_3
REMARK    3  A    between atoms: O_3  and  C_4
REMARK    4  A    between atoms: C_7  and  N_8
REMARK    5  A    between atoms: C_9  and  C_11
REMARK    6  A    between atoms: C_11  and  C_12
REMARK    7  A    between atoms: N_15  and  C_16
REMARK    8  A    between atoms: C_20  and  O_21
REMARK    9  A    between atoms: O_21  and  C_22
REMARK   10  A    between atoms: N_26  and  C_27
REMARK                            x       y       z     vdW  Elec       q    Type
REMARK                         _______ _______ _______ _____ _____    ______ ____
ROOT
ATOM      1  C   UNL     1       1.115   9.261  20.611  0.00  0.00    +0.000 C 
ATOM      2  C   UNL     1       1.708   7.859  20.466  0.00  0.00    +0.000 C 
ATOM      3  O   UNL     1       1.876   7.117  21.427  0.00  0.00    +0.000 OA
ATOM      4  N   UNL     1       2.050   7.657  19.144  0.00  0.00    +0.000 N 
ATOM      5  C   UNL     1       1.852   8.822  18.426  0.00  0.00    +0.000 C 
ATOM      6  O   UNL     1       2.095   9.041  17.244  0.00  0.00    +0.000 OA
ATOM      7  N   UNL     1       1.287   9.775  19.269  0.00  0.00    +0.000 N 
ENDROOT
BRANCH   4   8
ATOM      8  C   UNL     1       2.574   6.452  18.616  0.00  0.00    +0.000 A 
ATOM      9  C   UNL     1       1.735   5.481  18.053  0.00  0.00    +0.000 A 
ATOM     10  C   UNL     1       2.256   4.285  17.553  0.00  0.00    +0.000 A 
ATOM     11  C   UNL     1       3.626   4.036  17.628  0.00  0.00    +0.000 A 
ATOM     12  C   UNL     1       4.483   4.988  18.175  0.00  0.00    +0.000 A 
ATOM     13  C   UNL     1       3.956   6.195  18.640  0.00  0.00    +0.000 A 
BRANCH  12  14
ATOM     14  O   UNL     1       5.803   4.628  18.222  0.00  0.00    +0.000 OA
ATOM     15  C   UNL     1       6.528   4.698  16.998  0.00  0.00    +0.000 C 
ENDBRANCH  12  14
ENDBRANCH   4   8
BRANCH   7  16
ATOM     16  C   UNL     1       0.967  11.149  18.889  0.00  0.00    +0.000 C 
ATOM     17  C   UNL     1       1.430  12.160  19.945  0.00  0.00    +0.000 C 
ATOM     18  C   UNL     1       1.247  13.584  19.435  0.00  0.00    +0.000 C 
ATOM     19  C   UNL     1      -0.203  13.850  19.036  0.00  0.00    +0.000 C 
ATOM     20  C   UNL     1      -0.752  12.792  18.077  0.00  0.00    +0.000 C 
ATOM     21  C   UNL     1      -0.522  11.370  18.594  0.00  0.00    +0.000 C 
ENDBRANCH   7  16
BRANCH   1  22
ATOM     22  C   UNL     1      -0.324   9.246  21.129  0.00  0.00    +0.000 C 
BRANCH  22  24
ATOM     23  N   UNL     1      -1.371  11.309  21.903  0.00  0.00    +0.000 N 
ATOM     24  C   UNL     1      -0.527  10.262  22.232  0.00  0.00    +0.000 C 
ATOM     25  O   UNL     1       0.009  10.087  23.321  0.00  0.00    +0.000 OA
ATOM     26  H   UNL     1      -1.840  11.284  21.007  0.00  0.00    +0.000 HD
BRANCH  23  30
ATOM     27  C   UNL     1      -2.653  14.362  24.528  0.00  0.00    +0.000 A 
ATOM     28  C   UNL     1      -3.466  13.257  24.303  0.00  0.00    +0.000 A 
ATOM     29  C   UNL     1      -3.044  12.230  23.461  0.00  0.00    +0.000 A 
ATOM     30  C   UNL     1      -1.813  12.301  22.809  0.00  0.00    +0.000 A 
ATOM     31  C   UNL     1      -0.993  13.411  23.039  0.00  0.00    +0.000 A 
ATOM     32  C   UNL     1      -1.420  14.449  23.882  0.00  0.00    +0.000 A 
BRANCH  27  33
ATOM     33  O   UNL     1      -3.182  15.287  25.379  0.00  0.00    +0.000 OA
BRANCH  33  35
ATOM     34  C   UNL     1      -4.921  16.734  24.670  0.00  0.00    +0.000 C 
ATOM     35  C   UNL     1      -3.420  16.584  24.840  0.00  0.00    +0.000 C 
ENDBRANCH  33  35
ENDBRANCH  27  33
ENDBRANCH  23  30
ENDBRANCH  22  24
ENDBRANCH   1  22
TORSDOF 8
ENDMDL
MODEL 3
REMARK VINA RESULT:      -7.5      0.583      1.290
REMARK  Name = 
REMARK  10 active torsions:
REMARK  status: ('A' for Active; 'I' for Inactive)
REMARK    1  A    between atoms: C_1  and  C_2
REMARK    2  A    between atoms: C_2  and  O_3
REMARK    3  A    between atoms: O_3  and  C_4
REMARK    4  A    between atoms: C_7  and  N_8
REMARK    5  A    between atoms: C_9  and  C_11
REMARK    6  A    between atoms: C_11  and  C_12
REMARK    7  A    between atoms: N_15  and  C_16
REMARK    8  A    between atoms: C_20  and  O_21
REMARK    9  A    between atoms: O_21  and  C_22
REMARK   10  A    between atoms: N_26  and  C_27
REMARK                            x       y       z     vdW  Elec       q    Type
REMARK                         _______ _______ _______ _____ _____    ______ ____
ROOT
ATOM      1  C   UNL     1       1.134   9.113  20.829  0.00  0.00    +0.000 C 
ATOM      2  C   UNL     1       1.820   7.793  20.475  0.00  0.00    +0.000 C 
ATOM      3  O   UNL     1       2.122   6.964  21.324  0.00  0.00    +0.000 OA
ATOM      4  N   UNL     1       2.069   7.774  19.116  0.00  0.00    +0.000 N 
ATOM      5  C   UNL     1       1.725   8.992  18.560  0.00  0.00    +0.000 C 
ATOM      6  O   UNL     1       1.855   9.365  17.399  0.00  0.00    +0.000 OA
ATOM      7  N   UNL     1       1.158   9.790  19.550  0.00  0.00    +0.000 N 
ENDROOT
BRANCH   4   8
ATOM      8  C   UNL     1       2.641   6.686  18.411  0.00  0.00    +0.000 A 
ATOM      9  C   UNL     1       3.889   6.804  17.784  0.00  0.00    +0.000 A 
ATOM     10  C   UNL     1       4.437   5.734  17.072  0.00  0.00    +0.000 A 
ATOM     11  C   UNL     1       3.734   4.536  16.962  0.00  0.00    +0.000 A 
ATOM     12  C   UNL     1       2.496   4.390  17.584  0.00  0.00    +0.000 A 
ATOM     13  C   UNL     1       1.972   5.454  18.322  0.00  0.00    +0.000 A 
BRANCH  12  14
ATOM     14  O   UNL     1       1.882   3.181  17.388  0.00  0.00    +0.000 OA
ATOM     15  C   UNL     1       2.440   2.064  18.074  0.00  0.00    +0.000 C 
ENDBRANCH  12  14
ENDBRANCH   4   8
BRANCH   7  16
ATOM     16  C   UNL     1       0.704  11.165  19.362  0.00  0.00    +0.000 C 
ATOM     17  C   UNL     1      -0.592  11.236  18.544  0.00  0.00    +0.000 C 
ATOM     18  C   UNL     1      -1.132  12.659  18.523  0.00  0.00    +0.000 C 
ATOM     19  C   UNL     1      -0.097  13.640  17.975  0.00  0.00    +0.000 C 
ATOM     20  C   UNL     1       1.256  13.520  18.678  0.00  0.00    +0.000 C 
ATOM     21  C   UNL     1       1.759  12.075  18.718  0.00  0.00    +0.000 C 
ENDBRANCH   7  16
BRANCH   1  22
ATOM     22  C   UNL     1      -0.253   8.915  21.441  0.00  0.00    +0.000 C 
BRANCH  22  24
ATOM     23  N   UNL     1      -1.260  11.057  22.032  0.00  0.00    +0.000 N 
ATOM     24  C   UNL     1      -0.549   9.962  22.493  0.00  0.00    +0.000 C 
ATOM     25  O   UNL     1      -0.197   9.771  23.652  0.00  0.00    +0.000 OA
ATOM     26  H   UNL     1      -1.589  11.048  21.075  0.00  0.00    +0.000 HD
BRANCH  23  30
ATOM     27  C   UNL     1      -2.727  14.235  24.399  0.00  0.00    +0.000 A 
ATOM     28  C   UNL     1      -3.496  13.089  24.226  0.00  0.00    +0.000 A 
ATOM     29  C   UNL     1      -3.013  12.023  23.472  0.00  0.00    +0.000 A 
ATOM     30  C   UNL     1      -1.764  12.092  22.854  0.00  0.00    +0.000 A 
ATOM     31  C   UNL     1      -0.989  13.244  23.031  0.00  0.00    +0.000 A 
ATOM     32  C   UNL     1      -1.478  14.322  23.786  0.00  0.00    +0.000 A 
BRANCH  27  33
ATOM     33  O   UNL     1      -3.315  15.197  25.167  0.00  0.00    +0.000 OA
BRANCH  33  35
ATOM     34  C   UNL     1      -5.187  16.455  24.437  0.00  0.00    +0.000 C 
ATOM     35  C   UNL     1      -3.672  16.408  24.507  0.00  0.00    +0.000 C 
ENDBRANCH  33  35
ENDBRANCH  27  33
ENDBRANCH  23  30
ENDBRANCH  22  24
ENDBRANCH   1  22
TORSDOF 8
ENDMDL
MODEL 4
REMARK VINA RESULT:      -7.4      1.044      1.820
REMARK  Name = 
REMARK  10 active torsions:
REMARK  status: ('A' for Active; 'I' for Inactive)
REMARK    1  A    between atoms: C_1  and  C_2
REMARK    2  A    between atoms: C_2  and  O_3
REMARK    3  A    between atoms: O_3  and  C_4
REMARK    4  A    between atoms: C_7  and  N_8
REMARK    5  A    between atoms: C_9  and  C_11
REMARK    6  A    between atoms: C_11  and  C_12
REMARK    7  A    between atoms: N_15  and  C_16
REMARK    8  A    between atoms: C_20  and  O_21
REMARK    9  A    between atoms: O_21  and  C_22
REMARK   10  A    between atoms: N_26  and  C_27
REMARK                            x       y       z     vdW  Elec       q    Type
REMARK                         _______ _______ _______ _____ _____    ______ ____
ROOT
ATOM      1  C   UNL     1       1.153   9.133  20.838  0.00  0.00    +0.000 C 
ATOM      2  C   UNL     1       1.788   7.786  20.493  0.00  0.00    +0.000 C 
ATOM      3  O   UNL     1       2.067   6.955  21.349  0.00  0.00    +0.000 OA
ATOM      4  N   UNL     1       2.025   7.743  19.133  0.00  0.00    +0.000 N 
ATOM      5  C   UNL     1       1.719   8.967  18.566  0.00  0.00    +0.000 C 
ATOM      6  O   UNL     1       1.853   9.323  17.400  0.00  0.00    +0.000 OA
ATOM      7  N   UNL     1       1.190   9.795  19.552  0.00  0.00    +0.000 N 
ENDROOT
BRANCH   4   8
ATOM      8  C   UNL     1       2.551   6.629  18.435  0.00  0.00    +0.000 A 
ATOM      9  C   UNL     1       1.806   5.452  18.278  0.00  0.00    +0.000 A 
ATOM     10  C   UNL     1       2.339   4.349  17.607  0.00  0.00    +0.000 A 
ATOM     11  C   UNL     1       3.636   4.402  17.099  0.00  0.00    +0.000 A 
ATOM     12  C   UNL     1       4.395   5.563  17.233  0.00  0.00    +0.000 A 
ATOM     13  C   UNL     1       3.840   6.672  17.875  0.00  0.00    +0.000 A 
BRANCH  12  14
ATOM     14  O   UNL     1       5.663   5.495  16.720  0.00  0.00    +0.000 OA
ATOM     15  C   UNL     1       5.899   4.498  15.731  0.00  0.00    +0.000 C 
ENDBRANCH  12  14
ENDBRANCH   4   8
BRANCH   7  16
ATOM     16  C   UNL     1       0.783  11.184  19.353  0.00  0.00    +0.000 C 
ATOM     17  C   UNL     1      -0.530  11.291  18.567  0.00  0.00    +0.000 C 
ATOM     18  C   UNL     1      -1.016  12.734  18.537  0.00  0.00    +0.000 C 
ATOM     19  C   UNL     1       0.040  13.665  17.946  0.00  0.00    +0.000 C 
ATOM     20  C   UNL     1       1.406  13.504  18.616  0.00  0.00    +0.000 C 
ATOM     21  C   UNL     1       1.855  12.042  18.667  0.00  0.00    +0.000 C 
ENDBRANCH   7  16
BRANCH   1  22
ATOM     22  C   UNL     1      -0.235   8.991  21.464  0.00  0.00    +0.000 C 
BRANCH  22  24
ATOM     23  N   UNL     1      -1.327  11.098  22.029  0.00  0.00    +0.000 N 
ATOM     24  C   UNL     1      -0.500  10.083  22.478  0.00  0.00    +0.000 C 
ATOM     25  O   UNL     1      -0.024   9.990  23.605  0.00  0.00    +0.000 OA
ATOM     26  H   UNL     1      -1.747  11.005  21.113  0.00  0.00    +0.000 HD
BRANCH  23  30
ATOM     27  C   UNL     1      -2.836  14.151  24.530  0.00  0.00    +0.000 A 
ATOM     28  C   UNL     1      -1.610  14.319  23.897  0.00  0.00    +0.000 A 
ATOM     29  C   UNL     1      -1.114  13.333  23.048  0.00  0.00    +0.000 A 
ATOM     30  C   UNL     1      -1.821  12.150  22.836  0.00  0.00    +0.000 A 
ATOM     31  C   UNL     1      -3.058  11.982  23.470  0.00  0.00    +0.000 A 
ATOM     32  C   UNL     1      -3.555  12.973  24.331  0.00  0.00    +0.000 A 
BRANCH  27  33
ATOM     33  O   UNL     1      -3.208  15.196  25.324  0.00  0.00    +0.000 OA
BRANCH  33  35
ATOM     34  C   UNL     1      -4.918  16.491  24.315  0.00  0.00    +0.000 C 
ATOM     35  C   UNL     1      -3.443  16.439  24.670  0.00  0.00    +0.000 C 
ENDBRANCH  33  35
ENDBRANCH  27  33
ENDBRANCH  23  30
ENDBRANCH  22  24
ENDBRANCH   1  22
TORSDOF 8
ENDMDL
MODEL 5
REMARK VINA RESULT:      -7.1      3.186      9.652
REMARK  Name = 
REMARK  10 active torsions:
REMARK  status: ('A' for Active; 'I' for Inactive)
REMARK    1  A    between atoms: C_1  and  C_2
REMARK    2  A    between atoms: C_2  and  O_3
REMARK    3  A    between atoms: O_3  and  C_4
REMARK    4  A    between atoms: C_7  and  N_8
REMARK    5  A    between atoms: C_9  and  C_11
REMARK    6  A    between atoms: C_11  and  C_12
REMARK    7  A    between atoms: N_15  and  C_16
REMARK    8  A    between atoms: C_20  and  O_21
REMARK    9  A    between atoms: O_21  and  C_22
REMARK   10  A    between atoms: N_26  and  C_27
REMARK                            x       y       z     vdW  Elec       q    Type
REMARK                         _______ _______ _______ _____ _____    ______ ____
ROOT
ATOM      1  C   UNL     1       0.337  10.717  18.305  0.00  0.00    +0.000 C 
ATOM      2  C   UNL     1      -1.172  10.565  18.109  0.00  0.00    +0.000 C 
ATOM      3  O   UNL     1      -1.661   9.621  17.501  0.00  0.00    +0.000 OA
ATOM      4  N   UNL     1      -1.803  11.665  18.655  0.00  0.00    +0.000 N 
ATOM      5  C   UNL     1      -0.860  12.580  19.086  0.00  0.00    +0.000 C 
ATOM      6  O   UNL     1      -1.040  13.691  19.570  0.00  0.00    +0.000 OA
ATOM      7  N   UNL     1       0.407  12.033  18.902  0.00  0.00    +0.000 N 
ENDROOT
BRANCH   4   8
ATOM      8  C   UNL     1      -3.206  11.849  18.716  0.00  0.00    +0.000 A 
ATOM      9  C   UNL     1      -4.014  11.651  17.588  0.00  0.00    +0.000 A 
ATOM     10  C   UNL     1      -5.395  11.855  17.650  0.00  0.00    +0.000 A 
ATOM     11  C   UNL     1      -5.985  12.279  18.839  0.00  0.00    +0.000 A 
ATOM     12  C   UNL     1      -5.206  12.475  19.978  0.00  0.00    +0.000 A 
ATOM     13  C   UNL     1      -3.831  12.235  19.915  0.00  0.00    +0.000 A 
BRANCH  12  14
ATOM     14  O   UNL     1      -5.885  12.918  21.082  0.00  0.00    +0.000 OA
ATOM     15  C   UNL     1      -7.304  12.969  20.980  0.00  0.00    +0.000 C 
ENDBRANCH  12  14
ENDBRANCH   4   8
BRANCH   7  16
ATOM     16  C   UNL     1       1.666  12.713  19.200  0.00  0.00    +0.000 C 
ATOM     17  C   UNL     1       1.696  13.265  20.630  0.00  0.00    +0.000 C 
ATOM     18  C   UNL     1       3.082  13.802  20.965  0.00  0.00    +0.000 C 
ATOM     19  C   UNL     1       3.521  14.871  19.967  0.00  0.00    +0.000 C 
ATOM     20  C   UNL     1       3.388  14.409  18.514  0.00  0.00    +0.000 C 
ATOM     21  C   UNL     1       2.000  13.841  18.214  0.00  0.00    +0.000 C 
ENDBRANCH   7  16
BRANCH   1  22
ATOM     22  C   UNL     1       0.944   9.586  19.135  0.00  0.00    +0.000 C 
BRANCH  22  24
ATOM     23  N   UNL     1       2.256   7.542  18.907  0.00  0.00    +0.000 N 
ATOM     24  C   UNL     1       1.884   8.735  18.310  0.00  0.00    +0.000 C 
ATOM     25  O   UNL     1       2.216   9.112  17.191  0.00  0.00    +0.000 OA
ATOM     26  H   UNL     1       1.826   7.292  19.788  0.00  0.00    +0.000 HD
BRANCH  23  30
ATOM     27  C   UNL     1       4.418   4.483  16.952  0.00  0.00    +0.000 A 
ATOM     28  C   UNL     1       4.987   5.743  17.105  0.00  0.00    +0.000 A 
ATOM     29  C   UNL     1       4.297   6.752  17.771  0.00  0.00    +0.000 A 
ATOM     30  C   UNL     1       3.015   6.529  18.275  0.00  0.00    +0.000 A 
ATOM     31  C   UNL     1       2.444   5.260  18.124  0.00  0.00    +0.000 A 
ATOM     32  C   UNL     1       3.137   4.244  17.447  0.00  0.00    +0.000 A 
BRANCH  27  33
ATOM     33  O   UNL     1       5.205   3.587  16.290  0.00  0.00    +0.000 OA
BRANCH  33  35
ATOM     34  C   UNL     1       6.104   3.905  14.119  0.00  0.00    +0.000 C 
ATOM     35  C   UNL     1       6.335   4.118  15.604  0.00  0.00    +0.000 C 
ENDBRANCH  33  35
ENDBRANCH  27  33
ENDBRANCH  23  30
ENDBRANCH  22  24
ENDBRANCH   1  22
TORSDOF 8
ENDMDL
MODEL 6
REMARK VINA RESULT:      -7.0      3.434      6.777
REMARK  Name = 
REMARK  10 active torsions:
REMARK  status: ('A' for Active; 'I' for Inactive)
REMARK    1  A    between atoms: C_1  and  C_2
REMARK    2  A    between atoms: C_2  and  O_3
REMARK    3  A    between atoms: O_3  and  C_4
REMARK    4  A    between atoms: C_7  and  N_8
REMARK    5  A    between atoms: C_9  and  C_11
REMARK    6  A    between atoms: C_11  and  C_12
REMARK    7  A    between atoms: N_15  and  C_16
REMARK    8  A    between atoms: C_20  and  O_21
REMARK    9  A    between atoms: O_21  and  C_22
REMARK   10  A    between atoms: N_26  and  C_27
REMARK                            x       y       z     vdW  Elec       q    Type
REMARK                         _______ _______ _______ _____ _____    ______ ____
ROOT
ATOM      1  C   UNL     1       3.122   5.726  18.080  0.00  0.00    +0.000 C 
ATOM      2  C   UNL     1       3.995   6.033  16.863  0.00  0.00    +0.000 C 
ATOM      3  O   UNL     1       3.979   7.124  16.304  0.00  0.00    +0.000 OA
ATOM      4  N   UNL     1       4.689   4.891  16.515  0.00  0.00    +0.000 N 
ATOM      5  C   UNL     1       4.276   3.834  17.306  0.00  0.00    +0.000 C 
ATOM      6  O   UNL     1       4.625   2.660  17.252  0.00  0.00    +0.000 OA
ATOM      7  N   UNL     1       3.364   4.309  18.244  0.00  0.00    +0.000 N 
ENDROOT
BRANCH   4   8
ATOM      8  C   UNL     1       5.643   4.806  15.471  0.00  0.00    +0.000 A 
ATOM      9  C   UNL     1       6.870   5.479  15.552  0.00  0.00    +0.000 A 
ATOM     10  C   UNL     1       7.797   5.408  14.510  0.00  0.00    +0.000 A 
ATOM     11  C   UNL     1       7.499   4.678  13.361  0.00  0.00    +0.000 A 
ATOM     12  C   UNL     1       6.291   3.992  13.258  0.00  0.00    +0.000 A 
ATOM     13  C   UNL     1       5.385   4.041  14.321  0.00  0.00    +0.000 A 
BRANCH  12  14
ATOM     14  O   UNL     1       6.092   3.330  12.076  0.00  0.00    +0.000 OA
ATOM     15  C   UNL     1       4.741   3.163  11.658  0.00  0.00    +0.000 C 
ENDBRANCH  12  14
ENDBRANCH   4   8
BRANCH   7  16
ATOM     16  C   UNL     1       2.672   3.486  19.232  0.00  0.00    +0.000 C 
ATOM     17  C   UNL     1       1.197   3.882  19.379  0.00  0.00    +0.000 C 
ATOM     18  C   UNL     1       0.466   2.892  20.276  0.00  0.00    +0.000 C 
ATOM     19  C   UNL     1       1.132   2.784  21.646  0.00  0.00    +0.000 C 
ATOM     20  C   UNL     1       2.634   2.513  21.549  0.00  0.00    +0.000 C 
ATOM     21  C   UNL     1       3.339   3.498  20.614  0.00  0.00    +0.000 C 
ENDBRANCH   7  16
BRANCH   1  22
ATOM     22  C   UNL     1       3.467   6.595  19.290  0.00  0.00    +0.000 C 
BRANCH  22  24
ATOM     23  N   UNL     1       2.102   8.595  18.990  0.00  0.00    +0.000 N 
ATOM     24  C   UNL     1       2.285   7.435  19.724  0.00  0.00    +0.000 C 
ATOM     25  O   UNL     1       1.562   7.040  20.632  0.00  0.00    +0.000 OA
ATOM     26  H   UNL     1       2.702   8.757  18.191  0.00  0.00    +0.000 HD
BRANCH  23  30
ATOM     27  C   UNL     1      -1.281  11.101  19.337  0.00  0.00    +0.000 A 
ATOM     28  C   UNL     1      -0.382  11.004  20.393  0.00  0.00    +0.000 A 
ATOM     29  C   UNL     1       0.752  10.203  20.281  0.00  0.00    +0.000 A 
ATOM     30  C   UNL     1       0.995   9.465  19.123  0.00  0.00    +0.000 A 
ATOM     31  C   UNL     1       0.091   9.566  18.059  0.00  0.00    +0.000 A 
ATOM     32  C   UNL     1      -1.055  10.368  18.173  0.00  0.00    +0.000 A 
BRANCH  27  33
ATOM     33  O   UNL     1      -2.341  11.926  19.575  0.00  0.00    +0.000 OA
BRANCH  33  35
ATOM     34  C   UNL     1      -4.683  12.250  19.392  0.00  0.00    +0.000 C 
ATOM     35  C   UNL     1      -3.421  11.858  18.647  0.00  0.00    +0.000 C 
ENDBRANCH  33  35
ENDBRANCH  27  33
ENDBRANCH  23  30
ENDBRANCH  22  24
ENDBRANCH   1  22
TORSDOF 8
ENDMDL
MODEL 7
REMARK VINA RESULT:      -6.9      2.192      9.797
REMARK  Name = 
REMARK  10 active torsions:
REMARK  status: ('A' for Active; 'I' for Inactive)
REMARK    1  A    between atoms: C_1  and  C_2
REMARK    2  A    between atoms: C_2  and  O_3
REMARK    3  A    between atoms: O_3  and  C_4
REMARK    4  A    between atoms: C_7  and  N_8
REMARK    5  A    between atoms: C_9  and  C_11
REMARK    6  A    between atoms: C_11  and  C_12
REMARK    7  A    between atoms: N_15  and  C_16
REMARK    8  A    between atoms: C_20  and  O_21
REMARK    9  A    between atoms: O_21  and  C_22
REMARK   10  A    between atoms: N_26  and  C_27
REMARK                            x       y       z     vdW  Elec       q    Type
REMARK                         _______ _______ _______ _____ _____    ______ ____
ROOT
ATOM      1  C   UNL     1      -0.898  10.936  20.705  0.00  0.00    +0.000 C 
ATOM      2  C   UNL     1      -0.940  11.521  22.117  0.00  0.00    +0.000 C 
ATOM      3  O   UNL     1      -0.328  11.019  23.052  0.00  0.00    +0.000 OA
ATOM      4  N   UNL     1      -1.801  12.601  22.124  0.00  0.00    +0.000 N 
ATOM      5  C   UNL     1      -2.418  12.715  20.892  0.00  0.00    +0.000 C 
ATOM      6  O   UNL     1      -3.281  13.513  20.542  0.00  0.00    +0.000 OA
ATOM      7  N   UNL     1      -1.889  11.752  20.037  0.00  0.00    +0.000 N 
ENDROOT
BRANCH   4   8
ATOM      8  C   UNL     1      -2.051  13.433  23.243  0.00  0.00    +0.000 A 
ATOM      9  C   UNL     1      -3.294  13.425  23.890  0.00  0.00    +0.000 A 
ATOM     10  C   UNL     1      -3.541  14.263  24.980  0.00  0.00    +0.000 A 
ATOM     11  C   UNL     1      -2.552  15.136  25.426  0.00  0.00    +0.000 A 
ATOM     12  C   UNL     1      -1.304  15.158  24.807  0.00  0.00    +0.000 A 
ATOM     13  C   UNL     1      -1.055  14.291  23.740  0.00  0.00    +0.000 A 
BRANCH  12  14
ATOM     14  O   UNL     1      -0.417  16.072  25.310  0.00  0.00    +0.000 OA
ATOM     15  C   UNL     1      -0.489  16.329  26.709  0.00  0.00    +0.000 C 
ENDBRANCH  12  14
ENDBRANCH   4   8
BRANCH   7  16
ATOM     16  C   UNL     1      -2.315  11.529  18.658  0.00  0.00    +0.000 C 
ATOM     17  C   UNL     1      -3.839  11.620  18.506  0.00  0.00    +0.000 C 
ATOM     18  C   UNL     1      -4.231  11.565  17.035  0.00  0.00    +0.000 C 
ATOM     19  C   UNL     1      -3.699  10.301  16.363  0.00  0.00    +0.000 C 
ATOM     20  C   UNL     1      -2.200  10.099  16.595  0.00  0.00    +0.000 C 
ATOM     21  C   UNL     1      -1.827  10.196  18.075  0.00  0.00    +0.000 C 
ENDBRANCH   7  16
BRANCH   1  22
ATOM     22  C   UNL     1       0.502  10.970  20.091  0.00  0.00    +0.000 C 
BRANCH  22  24
ATOM     23  N   UNL     1       1.565   9.136  18.884  0.00  0.00    +0.000 N 
ATOM     24  C   UNL     1       1.154   9.604  20.120  0.00  0.00    +0.000 C 
ATOM     25  O   UNL     1       1.312   9.033  21.194  0.00  0.00    +0.000 OA
ATOM     26  H   UNL     1       1.478   9.749  18.085  0.00  0.00    +0.000 HD
BRANCH  23  30
ATOM     27  C   UNL     1       3.903   5.674  18.252  0.00  0.00    +0.000 A 
ATOM     28  C   UNL     1       3.052   5.742  19.349  0.00  0.00    +0.000 A 
ATOM     29  C   UNL     1       2.255   6.865  19.554  0.00  0.00    +0.000 A 
ATOM     30  C   UNL     1       2.313   7.952  18.682  0.00  0.00    +0.000 A 
ATOM     31  C   UNL     1       3.168   7.882  17.575  0.00  0.00    +0.000 A 
ATOM     32  C   UNL     1       3.976   6.752  17.371  0.00  0.00    +0.000 A 
BRANCH  27  33
ATOM     33  O   UNL     1       4.619   4.516  18.165  0.00  0.00    +0.000 OA
BRANCH  33  35
ATOM     34  C   UNL     1       6.962   4.857  18.055  0.00  0.00    +0.000 C 
ATOM     35  C   UNL     1       5.807   4.442  18.948  0.00  0.00    +0.000 C 
ENDBRANCH  33  35
ENDBRANCH  27  33
ENDBRANCH  23  30
ENDBRANCH  22  24
ENDBRANCH   1  22
TORSDOF 8
ENDMDL
MODEL 8
REMARK VINA RESULT:      -6.7      2.962      8.695
REMARK  Name = 
REMARK  10 active torsions:
REMARK  status: ('A' for Active; 'I' for Inactive)
REMARK    1  A    between atoms: C_1  and  C_2
REMARK    2  A    between atoms: C_2  and  O_3
REMARK    3  A    between atoms: O_3  and  C_4
REMARK    4  A    between atoms: C_7  and  N_8
REMARK    5  A    between atoms: C_9  and  C_11
REMARK    6  A    between atoms: C_11  and  C_12
REMARK    7  A    between atoms: N_15  and  C_16
REMARK    8  A    between atoms: C_20  and  O_21
REMARK    9  A    between atoms: O_21  and  C_22
REMARK   10  A    between atoms: N_26  and  C_27
REMARK                            x       y       z     vdW  Elec       q    Type
REMARK                         _______ _______ _______ _____ _____    ______ ____
ROOT
ATOM      1  C   UNL     1      -1.164  12.539  21.347  0.00  0.00    +0.000 C 
ATOM      2  C   UNL     1       0.028  13.496  21.310  0.00  0.00    +0.000 C 
ATOM      3  O   UNL     1       0.516  13.975  22.328  0.00  0.00    +0.000 OA
ATOM      4  N   UNL     1       0.360  13.740  19.992  0.00  0.00    +0.000 N 
ATOM      5  C   UNL     1      -0.562  13.135  19.158  0.00  0.00    +0.000 C 
ATOM      6  O   UNL     1      -0.627  13.178  17.934  0.00  0.00    +0.000 OA
ATOM      7  N   UNL     1      -1.460  12.411  19.937  0.00  0.00    +0.000 N 
ENDROOT
BRANCH   4   8
ATOM      8  C   UNL     1       1.452  14.534  19.563  0.00  0.00    +0.000 A 
ATOM      9  C   UNL     1       2.770  14.066  19.655  0.00  0.00    +0.000 A 
ATOM     10  C   UNL     1       3.844  14.862  19.250  0.00  0.00    +0.000 A 
ATOM     11  C   UNL     1       3.614  16.148  18.764  0.00  0.00    +0.000 A 
ATOM     12  C   UNL     1       2.313  16.634  18.653  0.00  0.00    +0.000 A 
ATOM     13  C   UNL     1       1.244  15.817  19.029  0.00  0.00    +0.000 A 
BRANCH  12  14
ATOM     14  O   UNL     1       2.206  17.918  18.189  0.00  0.00    +0.000 OA
ATOM     15  C   UNL     1       1.459  18.103  16.991  0.00  0.00    +0.000 C 
ENDBRANCH  12  14
ENDBRANCH   4   8
BRANCH   7  16
ATOM     16  C   UNL     1      -2.606  11.665  19.423  0.00  0.00    +0.000 C 
ATOM     17  C   UNL     1      -2.285  10.958  18.100  0.00  0.00    +0.000 C 
ATOM     18  C   UNL     1      -3.435  10.048  17.690  0.00  0.00    +0.000 C 
ATOM     19  C   UNL     1      -4.747  10.824  17.580  0.00  0.00    +0.000 C 
ATOM     20  C   UNL     1      -5.048  11.648  18.833  0.00  0.00    +0.000 C 
ATOM     21  C   UNL     1      -3.865  12.525  19.245  0.00  0.00    +0.000 C 
ENDBRANCH   7  16
BRANCH   1  22
ATOM     22  C   UNL     1      -0.851  11.231  22.075  0.00  0.00    +0.000 C 
BRANCH  22  24
ATOM     23  N   UNL     1       0.067   9.579  20.533  0.00  0.00    +0.000 N 
ATOM     24  C   UNL     1       0.360  10.543  21.483  0.00  0.00    +0.000 C 
ATOM     25  O   UNL     1       1.484  10.891  21.830  0.00  0.00    +0.000 OA
ATOM     26  H   UNL     1      -0.897   9.459  20.251  0.00  0.00    +0.000 HD
BRANCH  23  30
ATOM     27  C   UNL     1       2.896   7.444  18.233  0.00  0.00    +0.000 A 
ATOM     28  C   UNL     1       2.299   8.585  17.709  0.00  0.00    +0.000 A 
ATOM     29  C   UNL     1       1.386   9.314  18.467  0.00  0.00    +0.000 A 
ATOM     30  C   UNL     1       1.033   8.902  19.751  0.00  0.00    +0.000 A 
ATOM     31  C   UNL     1       1.637   7.755  20.280  0.00  0.00    +0.000 A 
ATOM     32  C   UNL     1       2.553   7.016  19.514  0.00  0.00    +0.000 A 
BRANCH  27  33
ATOM     33  O   UNL     1       3.777   6.832  17.390  0.00  0.00    +0.000 OA
BRANCH  33  35
ATOM     34  C   UNL     1       5.389   5.218  18.037  0.00  0.00    +0.000 C 
ATOM     35  C   UNL     1       3.960   5.430  17.570  0.00  0.00    +0.000 C 
ENDBRANCH  33  35
ENDBRANCH  27  33
ENDBRANCH  23  30
ENDBRANCH  22  24
ENDBRANCH   1  22
TORSDOF 8
ENDMDL
MODEL 9
REMARK VINA RESULT:      -6.7      3.104      9.552
REMARK  Name = 
REMARK  10 active torsions:
REMARK  status: ('A' for Active; 'I' for Inactive)
REMARK    1  A    between atoms: C_1  and  C_2
REMARK    2  A    between atoms: C_2  and  O_3
REMARK    3  A    between atoms: O_3  and  C_4
REMARK    4  A    between atoms: C_7  and  N_8
REMARK    5  A    between atoms: C_9  and  C_11
REMARK    6  A    between atoms: C_11  and  C_12
REMARK    7  A    between atoms: N_15  and  C_16
REMARK    8  A    between atoms: C_20  and  O_21
REMARK    9  A    between atoms: O_21  and  C_22
REMARK   10  A    between atoms: N_26  and  C_27
REMARK                            x       y       z     vdW  Elec       q    Type
REMARK                         _______ _______ _______ _____ _____    ______ ____
ROOT
ATOM      1  C   UNL     1      -0.096  11.462  18.827  0.00  0.00    +0.000 C 
ATOM      2  C   UNL     1      -1.594  11.184  18.947  0.00  0.00    +0.000 C 
ATOM      3  O   UNL     1      -2.108  10.162  18.508  0.00  0.00    +0.000 OA
ATOM      4  N   UNL     1      -2.201  12.272  19.543  0.00  0.00    +0.000 N 
ATOM      5  C   UNL     1      -1.276  13.285  19.719  0.00  0.00    +0.000 C 
ATOM      6  O   UNL     1      -1.456  14.414  20.162  0.00  0.00    +0.000 OA
ATOM      7  N   UNL     1      -0.026  12.821  19.318  0.00  0.00    +0.000 N 
ENDROOT
BRANCH   4   8
ATOM      8  C   UNL     1      -3.576  12.356  19.873  0.00  0.00    +0.000 A 
ATOM      9  C   UNL     1      -3.995  12.511  21.201  0.00  0.00    +0.000 A 
ATOM     10  C   UNL     1      -5.353  12.572  21.522  0.00  0.00    +0.000 A 
ATOM     11  C   UNL     1      -6.313  12.457  20.518  0.00  0.00    +0.000 A 
ATOM     12  C   UNL     1      -5.923  12.311  19.189  0.00  0.00    +0.000 A 
ATOM     13  C   UNL     1      -4.562  12.287  18.874  0.00  0.00    +0.000 A 
BRANCH  12  14
ATOM     14  O   UNL     1      -6.948  12.182  18.289  0.00  0.00    +0.000 OA
ATOM     15  C   UNL     1      -6.800  12.868  17.050  0.00  0.00    +0.000 C 
ENDBRANCH  12  14
ENDBRANCH   4   8
BRANCH   7  16
ATOM     16  C   UNL     1       1.201  13.613  19.315  0.00  0.00    +0.000 C 
ATOM     17  C   UNL     1       2.089  13.295  18.105  0.00  0.00    +0.000 C 
ATOM     18  C   UNL     1       3.263  14.262  18.037  0.00  0.00    +0.000 C 
ATOM     19  C   UNL     1       4.083  14.235  19.325  0.00  0.00    +0.000 C 
ATOM     20  C   UNL     1       3.220  14.423  20.574  0.00  0.00    +0.000 C 
ATOM     21  C   UNL     1       2.026  13.466  20.601  0.00  0.00    +0.000 C 
ENDBRANCH   7  16
BRANCH   1  22
ATOM     22  C   UNL     1       0.759  10.446  19.585  0.00  0.00    +0.000 C 
BRANCH  22  24
ATOM     23  N   UNL     1       2.005   8.377  19.235  0.00  0.00    +0.000 N 
ATOM     24  C   UNL     1       1.481   9.512  18.638  0.00  0.00    +0.000 C 
ATOM     25  O   UNL     1       1.524   9.779  17.442  0.00  0.00    +0.000 OA
ATOM     26  H   UNL     1       1.807   8.216  20.214  0.00  0.00    +0.000 HD
BRANCH  23  30
ATOM     27  C   UNL     1       3.902   5.209  17.183  0.00  0.00    +0.000 A 
ATOM     28  C   UNL     1       2.746   4.964  17.915  0.00  0.00    +0.000 A 
ATOM     29  C   UNL     1       2.094   6.004  18.573  0.00  0.00    +0.000 A 
ATOM     30  C   UNL     1       2.601   7.303  18.534  0.00  0.00    +0.000 A 
ATOM     31  C   UNL     1       3.764   7.550  17.795  0.00  0.00    +0.000 A 
ATOM     32  C   UNL     1       4.424   6.501  17.136  0.00  0.00    +0.000 A 
BRANCH  27  33
ATOM     33  O   UNL     1       4.432   4.105  16.582  0.00  0.00    +0.000 OA
BRANCH  33  35
ATOM     34  C   UNL     1       5.972   4.054  14.779  0.00  0.00    +0.000 C 
ATOM     35  C   UNL     1       5.826   4.149  16.287  0.00  0.00    +0.000 C 
ENDBRANCH  33  35
ENDBRANCH  27  33
ENDBRANCH  23  30
ENDBRANCH  22  24
ENDBRANCH   1  22
TORSDOF 8
ENDMDL
