MODEL 1
REMARK VINA RESULT:      -9.0      0.000      0.000
REMARK  Name = 
REMARK  2 active torsions:
REMARK  status: ('A' for Active; 'I' for Inactive)
REMARK    1  A    between atoms: C_2  and  C_12
REMARK    2  A    between atoms: N_3  and  C_4
REMARK                            x       y       z     vdW  Elec       q    Type
REMARK                         _______ _______ _______ _____ _____    ______ ____
ROOT
ATOM      1  C   UNL     1       1.678   8.668  19.310  0.00  0.00    +0.000 A 
ATOM      2  C   UNL     1       1.673   8.074  20.580  0.00  0.00    +0.000 A 
ATOM      3  C   UNL     1       0.966   8.669  21.623  0.00  0.00    +0.000 A 
ATOM      4  C   UNL     1       0.263   9.855  21.387  0.00  0.00    +0.000 A 
ATOM      5  C   UNL     1      -0.476  10.528  22.467  0.00  0.00    +0.000 A 
ATOM      6  O   UNL     1      -0.504  10.013  23.582  0.00  0.00    +0.000 OA
ATOM      7  N   UNL     1      -1.094  11.733  22.135  0.00  0.00    +0.000 N 
ATOM      8  C   UNL     1      -1.066  12.216  20.841  0.00  0.00    +0.000 A 
ATOM      9  N   UNL     1      -0.448  11.629  19.866  0.00  0.00    +0.000 NA
ATOM     10  C   UNL     1       0.245  10.445  20.126  0.00  0.00    +0.000 A 
ATOM     11  C   UNL     1       0.950   9.841  19.082  0.00  0.00    +0.000 A 
ATOM     12  C   UNL     1      -1.811  13.499  20.524  0.00  0.00    +0.000 C 
ATOM     13  C   UNL     1      -3.321  13.331  20.651  0.00  0.00    +0.000 C 
ATOM     14  C   UNL     1      -3.829  13.468  22.082  0.00  0.00    +0.000 C 
ATOM     15  C   UNL     1      -3.304  12.402  23.041  0.00  0.00    +0.000 C 
ATOM     16  C   UNL     1      -1.787  12.443  23.207  0.00  0.00    +0.000 C 
ENDROOT
BRANCH   1  18
ATOM     17  O   UNL     1       2.392   8.483  17.102  0.00  0.00    +0.000 OA
ATOM     18  C   UNL     1       2.456   8.009  18.230  0.00  0.00    +0.000 C 
ATOM     19  N   UNL     1       3.131   6.861  18.599  0.00  0.00    +0.000 N 
ATOM     20  H   UNL     1       2.942   6.466  19.517  0.00  0.00    +0.000 HD
BRANCH  19  21
ATOM     21  C   UNL     1       3.906   6.043  17.751  0.00  0.00    +0.000 A 
ATOM     22  C   UNL     1       5.032   6.492  17.056  0.00  0.00    +0.000 A 
ATOM     23  C   UNL     1       5.715   5.631  16.194  0.00  0.00    +0.000 A 
ATOM     24  C   UNL     1       5.275   4.321  16.034  0.00  0.00    +0.000 A 
ATOM     25  F   UNL     1       5.923   3.509  15.187  0.00  0.00    +0.000 F 
ATOM     26  C   UNL     1       4.179   3.843  16.736  0.00  0.00    +0.000 A 
ATOM     27  C   UNL     1       3.511   4.706  17.596  0.00  0.00    +0.000 A 
ATOM     28  F   UNL     1       2.442   4.252  18.271  0.00  0.00    +0.000 F 
ENDBRANCH  19  21
ENDBRANCH   1  18
TORSDOF 2
ENDMDL
MODEL 2
REMARK VINA RESULT:      -8.8      0.896      1.288
REMARK  Name = 
REMARK  2 active torsions:
REMARK  status: ('A' for Active; 'I' for Inactive)
REMARK    1  A    between atoms: C_2  and  C_12
REMARK    2  A    between atoms: N_3  and  C_4
REMARK                            x       y       z     vdW  Elec       q    Type
REMARK                         _______ _______ _______ _____ _____    ______ ____
ROOT
ATOM      1  C   UNL     1       1.742   8.507  19.304  0.00  0.00    +0.000 A 
ATOM      2  C   UNL     1       1.847   8.008  20.609  0.00  0.00    +0.000 A 
ATOM      3  C   UNL     1       1.189   8.651  21.656  0.00  0.00    +0.000 A 
ATOM      4  C   UNL     1       0.423   9.791  21.387  0.00  0.00    +0.000 A 
ATOM      5  C   UNL     1      -0.267  10.514  22.467  0.00  0.00    +0.000 A 
ATOM      6  O   UNL     1      -0.199  10.081  23.615  0.00  0.00    +0.000 OA
ATOM      7  N   UNL     1      -0.955  11.668  22.096  0.00  0.00    +0.000 N 
ATOM      8  C   UNL     1      -1.034  12.057  20.772  0.00  0.00    +0.000 A 
ATOM      9  N   UNL     1      -0.460  11.423  19.800  0.00  0.00    +0.000 NA
ATOM     10  C   UNL     1       0.296  10.286  20.093  0.00  0.00    +0.000 A 
ATOM     11  C   UNL     1       0.952   9.634  19.047  0.00  0.00    +0.000 A 
ATOM     12  C   UNL     1      -1.851  13.286  20.420  0.00  0.00    +0.000 C 
ATOM     13  C   UNL     1      -3.341  13.073  20.664  0.00  0.00    +0.000 C 
ATOM     14  C   UNL     1      -3.755  13.296  22.115  0.00  0.00    +0.000 C 
ATOM     15  C   UNL     1      -3.124  12.322  23.106  0.00  0.00    +0.000 C 
ATOM     16  C   UNL     1      -1.602  12.430  23.162  0.00  0.00    +0.000 C 
ENDROOT
BRANCH   1  18
ATOM     17  O   UNL     1       2.391   8.249  17.083  0.00  0.00    +0.000 OA
ATOM     18  C   UNL     1       2.470   7.800  18.221  0.00  0.00    +0.000 C 
ATOM     19  N   UNL     1       3.120   6.640  18.600  0.00  0.00    +0.000 N 
ATOM     20  H   UNL     1       2.943   6.273  19.531  0.00  0.00    +0.000 HD
BRANCH  19  21
ATOM     21  C   UNL     1       3.847   5.779  17.752  0.00  0.00    +0.000 A 
ATOM     22  C   UNL     1       3.448   4.476  17.442  0.00  0.00    +0.000 A 
ATOM     23  C   UNL     1       4.253   3.669  16.634  0.00  0.00    +0.000 A 
ATOM     24  C   UNL     1       5.451   4.169  16.133  0.00  0.00    +0.000 A 
ATOM     25  F   UNL     1       6.227   3.378  15.379  0.00  0.00    +0.000 F 
ATOM     26  C   UNL     1       5.853   5.468  16.402  0.00  0.00    +0.000 A 
ATOM     27  C   UNL     1       5.042   6.265  17.200  0.00  0.00    +0.000 A 
ATOM     28  F   UNL     1       5.431   7.521  17.473  0.00  0.00    +0.000 F 
ENDBRANCH  19  21
ENDBRANCH   1  18
TORSDOF 2
ENDMDL
MODEL 3
REMARK VINA RESULT:      -8.5      3.704      9.186
REMARK  Name = 
REMARK  2 active torsions:
REMARK  status: ('A' for Active; 'I' for Inactive)
REMARK    1  A    between atoms: C_2  and  C_12
REMARK    2  A    between atoms: N_3  and  C_4
REMARK                            x       y       z     vdW  Elec       q    Type
REMARK                         _______ _______ _______ _____ _____    ______ ____
ROOT
ATOM      1  C   UNL     1       1.225   9.718  19.528  0.00  0.00    +0.000 A 
ATOM      2  C   UNL     1       1.905   9.686  18.303  0.00  0.00    +0.000 A 
ATOM      3  C   UNL     1       2.519   8.508  17.878  0.00  0.00    +0.000 A 
ATOM      4  C   UNL     1       2.443   7.366  18.683  0.00  0.00    +0.000 A 
ATOM      5  C   UNL     1       3.098   6.111  18.284  0.00  0.00    +0.000 A 
ATOM      6  O   UNL     1       3.685   6.060  17.206  0.00  0.00    +0.000 OA
ATOM      7  N   UNL     1       3.006   5.052  19.186  0.00  0.00    +0.000 N 
ATOM      8  C   UNL     1       2.276   5.171  20.353  0.00  0.00    +0.000 A 
ATOM      9  N   UNL     1       1.666   6.255  20.714  0.00  0.00    +0.000 NA
ATOM     10  C   UNL     1       1.755   7.381  19.893  0.00  0.00    +0.000 A 
ATOM     11  C   UNL     1       1.136   8.561  20.310  0.00  0.00    +0.000 A 
ATOM     12  C   UNL     1       2.157   3.965  21.266  0.00  0.00    +0.000 C 
ATOM     13  C   UNL     1       1.350   2.840  20.628  0.00  0.00    +0.000 C 
ATOM     14  C   UNL     1       2.170   1.963  19.687  0.00  0.00    +0.000 C 
ATOM     15  C   UNL     1       2.723   2.696  18.467  0.00  0.00    +0.000 C 
ATOM     16  C   UNL     1       3.695   3.814  18.832  0.00  0.00    +0.000 C 
ENDROOT
BRANCH   1  18
ATOM     17  O   UNL     1       1.209  12.037  19.737  0.00  0.00    +0.000 OA
ATOM     18  C   UNL     1       0.597  10.996  19.948  0.00  0.00    +0.000 C 
ATOM     19  N   UNL     1      -0.608  10.876  20.615  0.00  0.00    +0.000 N 
ATOM     20  H   UNL     1      -0.909   9.948  20.900  0.00  0.00    +0.000 HD
BRANCH  19  21
ATOM     21  C   UNL     1      -1.377  11.935  21.141  0.00  0.00    +0.000 A 
ATOM     22  C   UNL     1      -2.075  12.854  20.351  0.00  0.00    +0.000 A 
ATOM     23  C   UNL     1      -2.771  13.907  20.949  0.00  0.00    +0.000 A 
ATOM     24  C   UNL     1      -2.774  14.035  22.335  0.00  0.00    +0.000 A 
ATOM     25  F   UNL     1      -3.425  15.062  22.898  0.00  0.00    +0.000 F 
ATOM     26  C   UNL     1      -2.114  13.119  23.140  0.00  0.00    +0.000 A 
ATOM     27  C   UNL     1      -1.430  12.071  22.535  0.00  0.00    +0.000 A 
ATOM     28  F   UNL     1      -0.781  11.187  23.310  0.00  0.00    +0.000 F 
ENDBRANCH  19  21
ENDBRANCH   1  18
TORSDOF 2
ENDMDL
MODEL 4
REMARK VINA RESULT:      -8.5      3.747      9.680
REMARK  Name = 
REMARK  2 active torsions:
REMARK  status: ('A' for Active; 'I' for Inactive)
REMARK    1  A    between atoms: C_2  and  C_12
REMARK    2  A    between atoms: N_3  and  C_4
REMARK                            x       y       z     vdW  Elec       q    Type
REMARK                         _______ _______ _______ _____ _____    ______ ____
ROOT
ATOM      1  C   UNL     1       0.506   9.590  21.484  0.00  0.00    +0.000 A 
ATOM      2  C   UNL     1       0.842  10.201  20.268  0.00  0.00    +0.000 A 
ATOM      3  C   UNL     1       1.475   9.463  19.269  0.00  0.00    +0.000 A 
ATOM      4  C   UNL     1       1.765   8.112  19.494  0.00  0.00    +0.000 A 
ATOM      5  C   UNL     1       2.455   7.304  18.476  0.00  0.00    +0.000 A 
ATOM      6  O   UNL     1       2.742   7.819  17.398  0.00  0.00    +0.000 OA
ATOM      7  N   UNL     1       2.744   5.986  18.827  0.00  0.00    +0.000 N 
ATOM      8  C   UNL     1       2.334   5.464  20.039  0.00  0.00    +0.000 A 
ATOM      9  N   UNL     1       1.700   6.145  20.940  0.00  0.00    +0.000 NA
ATOM     10  C   UNL     1       1.421   7.490  20.690  0.00  0.00    +0.000 A 
ATOM     11  C   UNL     1       0.780   8.232  21.685  0.00  0.00    +0.000 A 
ATOM     12  C   UNL     1       2.620   4.004  20.339  0.00  0.00    +0.000 C 
ATOM     13  C   UNL     1       1.832   3.067  19.430  0.00  0.00    +0.000 C 
ATOM     14  C   UNL     1       2.488   2.847  18.070  0.00  0.00    +0.000 C 
ATOM     15  C   UNL     1       2.600   4.107  17.215  0.00  0.00    +0.000 C 
ATOM     16  C   UNL     1       3.476   5.183  17.850  0.00  0.00    +0.000 C 
ENDROOT
BRANCH   1  18
ATOM     17  O   UNL     1      -0.006  10.094  23.698  0.00  0.00    +0.000 OA
ATOM     18  C   UNL     1      -0.155  10.417  22.526  0.00  0.00    +0.000 C 
ATOM     19  N   UNL     1      -0.947  11.446  22.053  0.00  0.00    +0.000 N 
ATOM     20  H   UNL     1      -1.144  11.483  21.057  0.00  0.00    +0.000 HD
BRANCH  19  21
ATOM     21  C   UNL     1      -1.701  12.343  22.839  0.00  0.00    +0.000 A 
ATOM     22  C   UNL     1      -2.977  12.058  23.333  0.00  0.00    +0.000 A 
ATOM     23  C   UNL     1      -3.679  13.022  24.061  0.00  0.00    +0.000 A 
ATOM     24  C   UNL     1      -3.101  14.265  24.299  0.00  0.00    +0.000 A 
ATOM     25  F   UNL     1      -3.792  15.192  24.978  0.00  0.00    +0.000 F 
ATOM     26  C   UNL     1      -1.825  14.560  23.845  0.00  0.00    +0.000 A 
ATOM     27  C   UNL     1      -1.132  13.592  23.128  0.00  0.00    +0.000 A 
ATOM     28  F   UNL     1       0.100  13.876  22.676  0.00  0.00    +0.000 F 
ENDBRANCH  19  21
ENDBRANCH   1  18
TORSDOF 2
ENDMDL
MODEL 5
REMARK VINA RESULT:      -8.5      3.722      9.189
REMARK  Name = 
REMARK  2 active torsions:
REMARK  status: ('A' for Active; 'I' for Inactive)
REMARK    1  A    between atoms: C_2  and  C_12
REMARK    2  A    between atoms: N_3  and  C_4
REMARK                            x       y       z     vdW  Elec       q    Type
REMARK                         _______ _______ _______ _____ _____    ______ ____
ROOT
ATOM      1  C   UNL     1       1.245   9.719  19.526  0.00  0.00    +0.000 A 
ATOM      2  C   UNL     1       1.915   9.675  18.296  0.00  0.00    +0.000 A 
ATOM      3  C   UNL     1       2.517   8.491  17.872  0.00  0.00    +0.000 A 
ATOM      4  C   UNL     1       2.439   7.354  18.684  0.00  0.00    +0.000 A 
ATOM      5  C   UNL     1       3.081   6.091  18.286  0.00  0.00    +0.000 A 
ATOM      6  O   UNL     1       3.660   6.031  17.203  0.00  0.00    +0.000 OA
ATOM      7  N   UNL     1       2.989   5.038  19.195  0.00  0.00    +0.000 N 
ATOM      8  C   UNL     1       2.269   5.168  20.367  0.00  0.00    +0.000 A 
ATOM      9  N   UNL     1       1.670   6.259  20.727  0.00  0.00    +0.000 NA
ATOM     10  C   UNL     1       1.761   7.380  19.899  0.00  0.00    +0.000 A 
ATOM     11  C   UNL     1       1.154   8.567  20.315  0.00  0.00    +0.000 A 
ATOM     12  C   UNL     1       2.149   3.968  21.287  0.00  0.00    +0.000 C 
ATOM     13  C   UNL     1       1.328   2.846  20.661  0.00  0.00    +0.000 C 
ATOM     14  C   UNL     1       2.134   1.958  19.718  0.00  0.00    +0.000 C 
ATOM     15  C   UNL     1       2.683   2.680  18.490  0.00  0.00    +0.000 C 
ATOM     16  C   UNL     1       3.667   3.793  18.841  0.00  0.00    +0.000 C 
ENDROOT
BRANCH   1  18
ATOM     17  O   UNL     1       1.161  12.045  19.577  0.00  0.00    +0.000 OA
ATOM     18  C   UNL     1       0.630  11.004  19.945  0.00  0.00    +0.000 C 
ATOM     19  N   UNL     1      -0.462  10.894  20.785  0.00  0.00    +0.000 N 
ATOM     20  H   UNL     1      -0.681   9.981  21.173  0.00  0.00    +0.000 HD
BRANCH  19  21
ATOM     21  C   UNL     1      -1.193  11.964  21.343  0.00  0.00    +0.000 A 
ATOM     22  C   UNL     1      -0.962  12.477  22.623  0.00  0.00    +0.000 A 
ATOM     23  C   UNL     1      -1.765  13.505  23.122  0.00  0.00    +0.000 A 
ATOM     24  C   UNL     1      -2.792  14.023  22.338  0.00  0.00    +0.000 A 
ATOM     25  F   UNL     1      -3.572  14.993  22.835  0.00  0.00    +0.000 F 
ATOM     26  C   UNL     1      -3.020  13.551  21.055  0.00  0.00    +0.000 A 
ATOM     27  C   UNL     1      -2.211  12.533  20.565  0.00  0.00    +0.000 A 
ATOM     28  F   UNL     1      -2.434  12.065  19.326  0.00  0.00    +0.000 F 
ENDBRANCH  19  21
ENDBRANCH   1  18
TORSDOF 2
ENDMDL
MODEL 6
REMARK VINA RESULT:      -8.4      3.831      9.120
REMARK  Name = 
REMARK  2 active torsions:
REMARK  status: ('A' for Active; 'I' for Inactive)
REMARK    1  A    between atoms: C_2  and  C_12
REMARK    2  A    between atoms: N_3  and  C_4
REMARK                            x       y       z     vdW  Elec       q    Type
REMARK                         _______ _______ _______ _____ _____    ______ ____
ROOT
ATOM      1  C   UNL     1       1.200   9.724  19.429  0.00  0.00    +0.000 A 
ATOM      2  C   UNL     1       1.887   9.657  18.209  0.00  0.00    +0.000 A 
ATOM      3  C   UNL     1       2.506   8.470  17.823  0.00  0.00    +0.000 A 
ATOM      4  C   UNL     1       2.429   7.351  18.660  0.00  0.00    +0.000 A 
ATOM      5  C   UNL     1       3.089   6.086  18.301  0.00  0.00    +0.000 A 
ATOM      6  O   UNL     1       3.682   6.006  17.228  0.00  0.00    +0.000 OA
ATOM      7  N   UNL     1       2.995   5.054  19.233  0.00  0.00    +0.000 N 
ATOM      8  C   UNL     1       2.258   5.205  20.393  0.00  0.00    +0.000 A 
ATOM      9  N   UNL     1       1.643   6.298  20.718  0.00  0.00    +0.000 NA
ATOM     10  C   UNL     1       1.734   7.399  19.865  0.00  0.00    +0.000 A 
ATOM     11  C   UNL     1       1.109   8.589  20.245  0.00  0.00    +0.000 A 
ATOM     12  C   UNL     1       2.137   4.026  21.340  0.00  0.00    +0.000 C 
ATOM     13  C   UNL     1       1.336   2.881  20.730  0.00  0.00    +0.000 C 
ATOM     14  C   UNL     1       2.163   1.979  19.819  0.00  0.00    +0.000 C 
ATOM     15  C   UNL     1       2.721   2.677  18.581  0.00  0.00    +0.000 C 
ATOM     16  C   UNL     1       3.689   3.808  18.919  0.00  0.00    +0.000 C 
ENDROOT
BRANCH   1  18
ATOM     17  O   UNL     1       0.160  11.741  18.912  0.00  0.00    +0.000 OA
ATOM     18  C   UNL     1       0.567  11.012  19.809  0.00  0.00    +0.000 C 
ATOM     19  N   UNL     1       0.564  11.297  21.162  0.00  0.00    +0.000 N 
ATOM     20  H   UNL     1       1.109  10.701  21.779  0.00  0.00    +0.000 HD
BRANCH  19  21
ATOM     21  C   UNL     1       0.055  12.466  21.764  0.00  0.00    +0.000 A 
ATOM     22  C   UNL     1       0.562  13.747  21.523  0.00  0.00    +0.000 A 
ATOM     23  C   UNL     1       0.035  14.849  22.200  0.00  0.00    +0.000 A 
ATOM     24  C   UNL     1      -1.002  14.670  23.111  0.00  0.00    +0.000 A 
ATOM     25  F   UNL     1      -1.485  15.730  23.774  0.00  0.00    +0.000 F 
ATOM     26  C   UNL     1      -1.541  13.414  23.344  0.00  0.00    +0.000 A 
ATOM     27  C   UNL     1      -1.014  12.325  22.660  0.00  0.00    +0.000 A 
ATOM     28  F   UNL     1      -1.525  11.104  22.889  0.00  0.00    +0.000 F 
ENDBRANCH  19  21
ENDBRANCH   1  18
TORSDOF 2
ENDMDL
MODEL 7
REMARK VINA RESULT:      -8.3      3.697      9.371
REMARK  Name = 
REMARK  2 active torsions:
REMARK  status: ('A' for Active; 'I' for Inactive)
REMARK    1  A    between atoms: C_2  and  C_12
REMARK    2  A    between atoms: N_3  and  C_4
REMARK                            x       y       z     vdW  Elec       q    Type
REMARK                         _______ _______ _______ _____ _____    ______ ____
ROOT
ATOM      1  C   UNL     1       0.761  10.427  20.259  0.00  0.00    +0.000 A 
ATOM      2  C   UNL     1       1.301  10.645  18.984  0.00  0.00    +0.000 A 
ATOM      3  C   UNL     1       1.925   9.601  18.304  0.00  0.00    +0.000 A 
ATOM      4  C   UNL     1       2.000   8.339  18.905  0.00  0.00    +0.000 A 
ATOM      5  C   UNL     1       2.672   7.216  18.231  0.00  0.00    +0.000 A 
ATOM      6  O   UNL     1       3.137   7.386  17.107  0.00  0.00    +0.000 OA
ATOM      7  N   UNL     1       2.739   6.020  18.943  0.00  0.00    +0.000 N 
ATOM      8  C   UNL     1       2.138   5.892  20.181  0.00  0.00    +0.000 A 
ATOM      9  N   UNL     1       1.515   6.856  20.783  0.00  0.00    +0.000 NA
ATOM     10  C   UNL     1       1.452   8.105  20.162  0.00  0.00    +0.000 A 
ATOM     11  C   UNL     1       0.821   9.153  20.836  0.00  0.00    +0.000 A 
ATOM     12  C   UNL     1       2.186   4.547  20.881  0.00  0.00    +0.000 C 
ATOM     13  C   UNL     1       1.373   3.488  20.144  0.00  0.00    +0.000 C 
ATOM     14  C   UNL     1       2.129   2.839  18.989  0.00  0.00    +0.000 C 
ATOM     15  C   UNL     1       2.502   3.800  17.863  0.00  0.00    +0.000 C 
ATOM     16  C   UNL     1       3.449   4.909  18.314  0.00  0.00    +0.000 C 
ENDROOT
BRANCH   1  18
ATOM     17  O   UNL     1       0.841  12.409  21.477  0.00  0.00    +0.000 OA
ATOM     18  C   UNL     1       0.117  11.570  20.954  0.00  0.00    +0.000 C 
ATOM     19  N   UNL     1      -1.264  11.534  21.004  0.00  0.00    +0.000 N 
ATOM     20  H   UNL     1      -1.734  10.684  20.705  0.00  0.00    +0.000 HD
BRANCH  19  21
ATOM     21  C   UNL     1      -2.098  12.481  21.634  0.00  0.00    +0.000 A 
ATOM     22  C   UNL     1      -2.520  13.668  21.028  0.00  0.00    +0.000 A 
ATOM     23  C   UNL     1      -3.304  14.580  21.739  0.00  0.00    +0.000 A 
ATOM     24  C   UNL     1      -3.670  14.299  23.052  0.00  0.00    +0.000 A 
ATOM     25  F   UNL     1      -4.402  15.190  23.735  0.00  0.00    +0.000 F 
ATOM     26  C   UNL     1      -3.289  13.115  23.664  0.00  0.00    +0.000 A 
ATOM     27  C   UNL     1      -2.515  12.212  22.945  0.00  0.00    +0.000 A 
ATOM     28  F   UNL     1      -2.135  11.067  23.536  0.00  0.00    +0.000 F 
ENDBRANCH  19  21
ENDBRANCH   1  18
TORSDOF 2
ENDMDL
MODEL 8
REMARK VINA RESULT:      -8.3      3.884      9.599
REMARK  Name = 
REMARK  2 active torsions:
REMARK  status: ('A' for Active; 'I' for Inactive)
REMARK    1  A    between atoms: C_2  and  C_12
REMARK    2  A    between atoms: N_3  and  C_4
REMARK                            x       y       z     vdW  Elec       q    Type
REMARK                         _______ _______ _______ _____ _____    ______ ____
ROOT
ATOM      1  C   UNL     1       0.295  10.880  20.641  0.00  0.00    +0.000 A 
ATOM      2  C   UNL     1       0.748  11.218  19.358  0.00  0.00    +0.000 A 
ATOM      3  C   UNL     1       1.400  10.265  18.577  0.00  0.00    +0.000 A 
ATOM      4  C   UNL     1       1.591   8.975  19.085  0.00  0.00    +0.000 A 
ATOM      5  C   UNL     1       2.296   7.948  18.302  0.00  0.00    +0.000 A 
ATOM      6  O   UNL     1       2.685   8.222  17.170  0.00  0.00    +0.000 OA
ATOM      7  N   UNL     1       2.480   6.715  18.927  0.00  0.00    +0.000 N 
ATOM      8  C   UNL     1       1.959   6.466  20.182  0.00  0.00    +0.000 A 
ATOM      9  N   UNL     1       1.309   7.343  20.880  0.00  0.00    +0.000 NA
ATOM     10  C   UNL     1       1.130   8.623  20.350  0.00  0.00    +0.000 A 
ATOM     11  C   UNL     1       0.471   9.579  21.126  0.00  0.00    +0.000 A 
ATOM     12  C   UNL     1       2.134   5.085  20.785  0.00  0.00    +0.000 C 
ATOM     13  C   UNL     1       1.352   4.023  20.020  0.00  0.00    +0.000 C 
ATOM     14  C   UNL     1       2.083   3.503  18.785  0.00  0.00    +0.000 C 
ATOM     15  C   UNL     1       2.328   4.559  17.710  0.00  0.00    +0.000 C 
ATOM     16  C   UNL     1       3.225   5.699  18.187  0.00  0.00    +0.000 C 
ENDROOT
BRANCH   1  18
ATOM     17  O   UNL     1       0.314  12.779  21.988  0.00  0.00    +0.000 OA
ATOM     18  C   UNL     1      -0.382  11.929  21.445  0.00  0.00    +0.000 C 
ATOM     19  N   UNL     1      -1.753  11.796  21.562  0.00  0.00    +0.000 N 
ATOM     20  H   UNL     1      -2.183  10.937  21.228  0.00  0.00    +0.000 HD
BRANCH  19  21
ATOM     21  C   UNL     1      -2.611  12.641  22.297  0.00  0.00    +0.000 A 
ATOM     22  C   UNL     1      -3.088  12.339  23.575  0.00  0.00    +0.000 A 
ATOM     23  C   UNL     1      -3.977  13.207  24.216  0.00  0.00    +0.000 A 
ATOM     24  C   UNL     1      -4.380  14.377  23.579  0.00  0.00    +0.000 A 
ATOM     25  F   UNL     1      -5.252  15.190  24.191  0.00  0.00    +0.000 F 
ATOM     26  C   UNL     1      -3.897  14.711  22.323  0.00  0.00    +0.000 A 
ATOM     27  C   UNL     1      -3.008  13.845  21.698  0.00  0.00    +0.000 A 
ATOM     28  F   UNL     1      -2.544  14.160  20.478  0.00  0.00    +0.000 F 
ENDBRANCH  19  21
ENDBRANCH   1  18
TORSDOF 2
ENDMDL
MODEL 9
REMARK VINA RESULT:      -8.2      4.169      8.927
REMARK  Name = 
REMARK  2 active torsions:
REMARK  status: ('A' for Active; 'I' for Inactive)
REMARK    1  A    between atoms: C_2  and  C_12
REMARK    2  A    between atoms: N_3  and  C_4
REMARK                            x       y       z     vdW  Elec       q    Type
REMARK                         _______ _______ _______ _____ _____    ______ ____
ROOT
ATOM      1  C   UNL     1       1.529   9.602  19.156  0.00  0.00    +0.000 A 
ATOM      2  C   UNL     1       2.212   9.424  17.945  0.00  0.00    +0.000 A 
ATOM      3  C   UNL     1       2.759   8.182  17.629  0.00  0.00    +0.000 A 
ATOM      4  C   UNL     1       2.615   7.121  18.529  0.00  0.00    +0.000 A 
ATOM      5  C   UNL     1       3.199   5.800  18.245  0.00  0.00    +0.000 A 
ATOM      6  O   UNL     1       3.787   5.623  17.181  0.00  0.00    +0.000 OA
ATOM      7  N   UNL     1       3.044   4.831  19.235  0.00  0.00    +0.000 N 
ATOM      8  C   UNL     1       2.317   5.092  20.381  0.00  0.00    +0.000 A 
ATOM      9  N   UNL     1       1.768   6.236  20.642  0.00  0.00    +0.000 NA
ATOM     10  C   UNL     1       1.924   7.279  19.727  0.00  0.00    +0.000 A 
ATOM     11  C   UNL     1       1.372   8.524  20.035  0.00  0.00    +0.000 A 
ATOM     12  C   UNL     1       2.127   3.978  21.394  0.00  0.00    +0.000 C 
ATOM     13  C   UNL     1       1.259   2.849  20.849  0.00  0.00    +0.000 C 
ATOM     14  C   UNL     1       2.032   1.849  19.995  0.00  0.00    +0.000 C 
ATOM     15  C   UNL     1       2.630   2.440  18.720  0.00  0.00    +0.000 C 
ATOM     16  C   UNL     1       3.663   3.530  18.996  0.00  0.00    +0.000 C 
ENDROOT
BRANCH   1  18
ATOM     17  O   UNL     1      -0.003  11.012  20.196  0.00  0.00    +0.000 OA
ATOM     18  C   UNL     1       0.974  10.945  19.459  0.00  0.00    +0.000 C 
ATOM     19  N   UNL     1       1.583  12.001  18.808  0.00  0.00    +0.000 N 
ATOM     20  H   UNL     1       2.252  11.790  18.073  0.00  0.00    +0.000 HD
BRANCH  19  21
ATOM     21  C   UNL     1       1.217  13.360  18.904  0.00  0.00    +0.000 A 
ATOM     22  C   UNL     1      -0.066  13.839  18.625  0.00  0.00    +0.000 A 
ATOM     23  C   UNL     1      -0.334  15.209  18.694  0.00  0.00    +0.000 A 
ATOM     24  C   UNL     1       0.679  16.094  19.049  0.00  0.00    +0.000 A 
ATOM     25  F   UNL     1       0.418  17.408  19.089  0.00  0.00    +0.000 F 
ATOM     26  C   UNL     1       1.951  15.639  19.359  0.00  0.00    +0.000 A 
ATOM     27  C   UNL     1       2.206  14.274  19.294  0.00  0.00    +0.000 A 
ATOM     28  F   UNL     1       3.439  13.829  19.584  0.00  0.00    +0.000 F 
ENDBRANCH  19  21
ENDBRANCH   1  18
TORSDOF 2
ENDMDL
