MODEL 1
REMARK VINA RESULT:      -8.2      0.000      0.000
REMARK  Name = 
REMARK  4 active torsions:
REMARK  status: ('A' for Active; 'I' for Inactive)
REMARK    1  A    between atoms: C_1  and  C_2
REMARK    2  A    between atoms: C_3  and  N_4
REMARK    3  A    between atoms: N_20  and  C_21
REMARK    4  A    between atoms: N_27  and  C_28
REMARK                            x       y       z     vdW  Elec       q    Type
REMARK                         _______ _______ _______ _____ _____    ______ ____
ROOT
ATOM      1  C   UNL     1      -1.074   9.936  17.810  0.00  0.00    +0.000 C 
ATOM      2  C   UNL     1      -0.489  10.393  19.113  0.00  0.00    +0.000 A 
ATOM      3  C   UNL     1       0.602   9.911  19.742  0.00  0.00    +0.000 A 
ATOM      4  C   UNL     1       0.887  10.917  20.835  0.00  0.00    +0.000 A 
ATOM      5  O   UNL     1       1.700  10.766  21.731  0.00  0.00    +0.000 OA
ATOM      6  N   UNL     1      -0.049  11.949  20.678  0.00  0.00    +0.000 N 
ATOM      7  N   UNL     1      -1.010  11.541  19.734  0.00  0.00    +0.000 N 
ATOM      8  C   UNL     1      -1.735  12.579  19.001  0.00  0.00    +0.000 C 
ENDROOT
BRANCH   3   9
ATOM      9  N   UNL     1       1.356   8.775  19.525  0.00  0.00    +0.000 N 
ATOM     10  C   UNL     1       1.400   7.677  20.405  0.00  0.00    +0.000 C 
ATOM     11  O   UNL     1       0.919   7.532  21.518  0.00  0.00    +0.000 OA
ATOM     12  C   UNL     1       2.473   6.793  19.847  0.00  0.00    +0.000 C 
ATOM     13  C   UNL     1       2.742   5.286  20.035  0.00  0.00    +0.000 C 
ATOM     14  C   UNL     1       4.232   5.255  19.637  0.00  0.00    +0.000 C 
ATOM     15  C   UNL     1       4.472   5.731  18.393  0.00  0.00    +0.000 C 
ATOM     16  C   UNL     1       3.210   6.083  17.578  0.00  0.00    +0.000 C 
ATOM     17  C   UNL     1       2.312   4.811  17.535  0.00  0.00    +0.000 C 
ATOM     18  C   UNL     1       2.609   3.429  18.073  0.00  0.00    +0.000 C 
ATOM     19  C   UNL     1       1.950   4.439  18.989  0.00  0.00    +0.000 C 
ATOM     20  C   UNL     1       2.272   7.037  18.362  0.00  0.00    +0.000 C 
ATOM     21  C   UNL     1       2.069   8.515  18.338  0.00  0.00    +0.000 C 
ATOM     22  O   UNL     1       2.269   9.217  17.364  0.00  0.00    +0.000 OA
ENDBRANCH   3   9
BRANCH   6  23
ATOM     23  C   UNL     1      -0.315  12.918  21.670  0.00  0.00    +0.000 A 
ATOM     24  C   UNL     1       0.334  14.157  21.596  0.00  0.00    +0.000 A 
ATOM     25  C   UNL     1       0.002  15.186  22.480  0.00  0.00    +0.000 A 
ATOM     26  C   UNL     1      -0.950  14.972  23.475  0.00  0.00    +0.000 A 
ATOM     27  C   UNL     1      -1.570  13.728  23.587  0.00  0.00    +0.000 A 
ATOM     28  C   UNL     1      -1.263  12.709  22.683  0.00  0.00    +0.000 A 
ENDBRANCH   6  23
TORSDOF 2
ENDMDL
MODEL 2
REMARK VINA RESULT:      -7.5      2.158      8.263
REMARK  Name = 
REMARK  4 active torsions:
REMARK  status: ('A' for Active; 'I' for Inactive)
REMARK    1  A    between atoms: C_1  and  C_2
REMARK    2  A    between atoms: C_3  and  N_4
REMARK    3  A    between atoms: N_20  and  C_21
REMARK    4  A    between atoms: N_27  and  C_28
REMARK                            x       y       z     vdW  Elec       q    Type
REMARK                         _______ _______ _______ _____ _____    ______ ____
ROOT
ATOM      1  C   UNL     1       1.184   5.154  20.514  0.00  0.00    +0.000 C 
ATOM      2  C   UNL     1       2.197   5.655  19.527  0.00  0.00    +0.000 A 
ATOM      3  C   UNL     1       2.437   6.933  19.168  0.00  0.00    +0.000 A 
ATOM      4  C   UNL     1       3.729   6.871  18.384  0.00  0.00    +0.000 A 
ATOM      5  O   UNL     1       4.207   7.795  17.746  0.00  0.00    +0.000 OA
ATOM      6  N   UNL     1       4.161   5.538  18.434  0.00  0.00    +0.000 N 
ATOM      7  N   UNL     1       3.128   4.755  18.982  0.00  0.00    +0.000 N 
ATOM      8  C   UNL     1       3.494   3.498  19.637  0.00  0.00    +0.000 C 
ENDROOT
BRANCH   3   9
ATOM      9  N   UNL     1       1.733   8.097  19.401  0.00  0.00    +0.000 N 
ATOM     10  C   UNL     1       1.509   8.642  20.679  0.00  0.00    +0.000 C 
ATOM     11  O   UNL     1       1.760   8.194  21.787  0.00  0.00    +0.000 OA
ATOM     12  C   UNL     1       0.561   9.777  20.442  0.00  0.00    +0.000 C 
ATOM     13  C   UNL     1       0.249  11.029  21.287  0.00  0.00    +0.000 C 
ATOM     14  C   UNL     1      -1.133  11.380  20.698  0.00  0.00    +0.000 C 
ATOM     15  C   UNL     1      -1.119  11.578  19.359  0.00  0.00    +0.000 C 
ATOM     16  C   UNL     1       0.282  11.546  18.713  0.00  0.00    +0.000 C 
ATOM     17  C   UNL     1       1.161  12.598  19.451  0.00  0.00    +0.000 C 
ATOM     18  C   UNL     1       0.754  13.577  20.530  0.00  0.00    +0.000 C 
ATOM     19  C   UNL     1       1.226  12.197  20.941  0.00  0.00    +0.000 C 
ATOM     20  C   UNL     1       1.053  10.254  19.087  0.00  0.00    +0.000 C 
ATOM     21  C   UNL     1       1.267   8.955  18.385  0.00  0.00    +0.000 C 
ATOM     22  O   UNL     1       1.269   8.824  17.175  0.00  0.00    +0.000 OA
ENDBRANCH   3   9
BRANCH   6  23
ATOM     23  C   UNL     1       5.153   5.007  17.581  0.00  0.00    +0.000 A 
ATOM     24  C   UNL     1       4.779   4.552  16.310  0.00  0.00    +0.000 A 
ATOM     25  C   UNL     1       5.747   4.142  15.390  0.00  0.00    +0.000 A 
ATOM     26  C   UNL     1       7.094   4.141  15.747  0.00  0.00    +0.000 A 
ATOM     27  C   UNL     1       7.474   4.549  17.024  0.00  0.00    +0.000 A 
ATOM     28  C   UNL     1       6.510   4.991  17.934  0.00  0.00    +0.000 A 
ENDBRANCH   6  23
TORSDOF 2
ENDMDL
MODEL 3
REMARK VINA RESULT:      -7.1      1.509      2.124
REMARK  Name = 
REMARK  4 active torsions:
REMARK  status: ('A' for Active; 'I' for Inactive)
REMARK    1  A    between atoms: C_1  and  C_2
REMARK    2  A    between atoms: C_3  and  N_4
REMARK    3  A    between atoms: N_20  and  C_21
REMARK    4  A    between atoms: N_27  and  C_28
REMARK                            x       y       z     vdW  Elec       q    Type
REMARK                         _______ _______ _______ _____ _____    ______ ____
ROOT
ATOM      1  C   UNL     1       2.361  11.967  18.499  0.00  0.00    +0.000 C 
ATOM      2  C   UNL     1       1.098  11.463  19.132  0.00  0.00    +0.000 A 
ATOM      3  C   UNL     1       0.835  10.214  19.567  0.00  0.00    +0.000 A 
ATOM      4  C   UNL     1      -0.445  10.349  20.362  0.00  0.00    +0.000 A 
ATOM      5  O   UNL     1      -1.106   9.418  20.790  0.00  0.00    +0.000 OA
ATOM      6  N   UNL     1      -0.764  11.715  20.372  0.00  0.00    +0.000 N 
ATOM      7  N   UNL     1       0.084  12.378  19.465  0.00  0.00    +0.000 N 
ATOM      8  C   UNL     1       0.340  13.802  19.681  0.00  0.00    +0.000 C 
ENDROOT
BRANCH   3   9
ATOM      9  N   UNL     1       1.504   9.021  19.383  0.00  0.00    +0.000 N 
ATOM     10  C   UNL     1       1.682   8.052  20.389  0.00  0.00    +0.000 C 
ATOM     11  O   UNL     1       1.413   8.086  21.580  0.00  0.00    +0.000 OA
ATOM     12  C   UNL     1       2.608   7.045  19.780  0.00  0.00    +0.000 C 
ATOM     13  C   UNL     1       2.867   5.565  20.131  0.00  0.00    +0.000 C 
ATOM     14  C   UNL     1       4.255   5.401  19.478  0.00  0.00    +0.000 C 
ATOM     15  C   UNL     1       4.271   5.690  18.155  0.00  0.00    +0.000 C 
ATOM     16  C   UNL     1       2.888   5.994  17.541  0.00  0.00    +0.000 C 
ATOM     17  C   UNL     1       1.965   4.777  17.844  0.00  0.00    +0.000 C 
ATOM     18  C   UNL     1       2.320   3.467  18.512  0.00  0.00    +0.000 C 
ATOM     19  C   UNL     1       1.871   4.627  19.378  0.00  0.00    +0.000 C 
ATOM     20  C   UNL     1       2.139   7.094  18.336  0.00  0.00    +0.000 C 
ATOM     21  C   UNL     1       1.975   8.563  18.137  0.00  0.00    +0.000 C 
ATOM     22  O   UNL     1       2.008   9.114  17.052  0.00  0.00    +0.000 OA
ENDBRANCH   3   9
BRANCH   6  23
ATOM     23  C   UNL     1      -2.030  12.217  20.742  0.00  0.00    +0.000 A 
ATOM     24  C   UNL     1      -3.009  12.378  19.754  0.00  0.00    +0.000 A 
ATOM     25  C   UNL     1      -4.311  12.748  20.097  0.00  0.00    +0.000 A 
ATOM     26  C   UNL     1      -4.636  13.002  21.428  0.00  0.00    +0.000 A 
ATOM     27  C   UNL     1      -3.659  12.889  22.416  0.00  0.00    +0.000 A 
ATOM     28  C   UNL     1      -2.365  12.488  22.077  0.00  0.00    +0.000 A 
ENDBRANCH   6  23
TORSDOF 2
ENDMDL
MODEL 4
REMARK VINA RESULT:      -7.1      2.154      8.366
REMARK  Name = 
REMARK  4 active torsions:
REMARK  status: ('A' for Active; 'I' for Inactive)
REMARK    1  A    between atoms: C_1  and  C_2
REMARK    2  A    between atoms: C_3  and  N_4
REMARK    3  A    between atoms: N_20  and  C_21
REMARK    4  A    between atoms: N_27  and  C_28
REMARK                            x       y       z     vdW  Elec       q    Type
REMARK                         _______ _______ _______ _____ _____    ______ ____
ROOT
ATOM      1  C   UNL     1       1.135   5.342  20.411  0.00  0.00    +0.000 C 
ATOM      2  C   UNL     1       2.193   5.791  19.447  0.00  0.00    +0.000 A 
ATOM      3  C   UNL     1       2.532   7.056  19.125  0.00  0.00    +0.000 A 
ATOM      4  C   UNL     1       3.824   6.919  18.351  0.00  0.00    +0.000 A 
ATOM      5  O   UNL     1       4.376   7.820  17.743  0.00  0.00    +0.000 OA
ATOM      6  N   UNL     1       4.154   5.556  18.368  0.00  0.00    +0.000 N 
ATOM      7  N   UNL     1       3.060   4.838  18.886  0.00  0.00    +0.000 N 
ATOM      8  C   UNL     1       3.324   3.541  19.509  0.00  0.00    +0.000 C 
ENDROOT
BRANCH   3   9
ATOM      9  N   UNL     1       1.914   8.263  19.383  0.00  0.00    +0.000 N 
ATOM     10  C   UNL     1       1.460   9.148  18.386  0.00  0.00    +0.000 C 
ATOM     11  O   UNL     1       1.599   9.114  17.174  0.00  0.00    +0.000 OA
ATOM     12  C   UNL     1       1.041  10.374  19.136  0.00  0.00    +0.000 C 
ATOM     13  C   UNL     1       0.082  11.519  18.750  0.00  0.00    +0.000 C 
ATOM     14  C   UNL     1       0.585  12.598  19.730  0.00  0.00    +0.000 C 
ATOM     15  C   UNL     1       0.534  12.219  21.029  0.00  0.00    +0.000 C 
ATOM     16  C   UNL     1      -0.133  10.850  21.279  0.00  0.00    +0.000 C 
ATOM     17  C   UNL     1      -1.555  10.901  20.647  0.00  0.00    +0.000 C 
ATOM     18  C   UNL     1      -2.255  12.072  19.995  0.00  0.00    +0.000 C 
ATOM     19  C   UNL     1      -1.391  11.172  19.136  0.00  0.00    +0.000 C 
ATOM     20  C   UNL     1       0.501   9.738  20.404  0.00  0.00    +0.000 C 
ATOM     21  C   UNL     1       1.539   8.699  20.669  0.00  0.00    +0.000 C 
ATOM     22  O   UNL     1       1.759   8.216  21.765  0.00  0.00    +0.000 OA
ENDBRANCH   3   9
BRANCH   6  23
ATOM     23  C   UNL     1       5.113   4.975  17.510  0.00  0.00    +0.000 A 
ATOM     24  C   UNL     1       4.696   4.481  16.268  0.00  0.00    +0.000 A 
ATOM     25  C   UNL     1       5.631   4.018  15.338  0.00  0.00    +0.000 A 
ATOM     26  C   UNL     1       6.986   4.005  15.659  0.00  0.00    +0.000 A 
ATOM     27  C   UNL     1       7.409   4.452  16.909  0.00  0.00    +0.000 A 
ATOM     28  C   UNL     1       6.479   4.946  17.827  0.00  0.00    +0.000 A 
ENDBRANCH   6  23
TORSDOF 2
ENDMDL
MODEL 5
REMARK VINA RESULT:      -7.0      2.103      8.904
REMARK  Name = 
REMARK  4 active torsions:
REMARK  status: ('A' for Active; 'I' for Inactive)
REMARK    1  A    between atoms: C_1  and  C_2
REMARK    2  A    between atoms: C_3  and  N_4
REMARK    3  A    between atoms: N_20  and  C_21
REMARK    4  A    between atoms: N_27  and  C_28
REMARK                            x       y       z     vdW  Elec       q    Type
REMARK                         _______ _______ _______ _____ _____    ______ ____
ROOT
ATOM      1  C   UNL     1      -3.088  12.427  19.563  0.00  0.00    +0.000 C 
ATOM      2  C   UNL     1      -1.763  11.871  19.995  0.00  0.00    +0.000 A 
ATOM      3  C   UNL     1      -1.123  12.079  21.164  0.00  0.00    +0.000 A 
ATOM      4  C   UNL     1      -0.003  11.063  21.171  0.00  0.00    +0.000 A 
ATOM      5  O   UNL     1       0.906  11.027  21.983  0.00  0.00    +0.000 OA
ATOM      6  N   UNL     1      -0.156  10.295  20.008  0.00  0.00    +0.000 N 
ATOM      7  N   UNL     1      -1.128  10.907  19.194  0.00  0.00    +0.000 N 
ATOM      8  C   UNL     1      -1.853  10.066  18.241  0.00  0.00    +0.000 C 
ENDROOT
BRANCH   3   9
ATOM      9  N   UNL     1      -1.349  12.983  22.183  0.00  0.00    +0.000 N 
ATOM     10  C   UNL     1      -0.781  14.270  22.238  0.00  0.00    +0.000 C 
ATOM     11  O   UNL     1       0.058  14.797  21.524  0.00  0.00    +0.000 OA
ATOM     12  C   UNL     1      -1.162  14.791  23.589  0.00  0.00    +0.000 C 
ATOM     13  C   UNL     1      -1.254  16.233  24.129  0.00  0.00    +0.000 C 
ATOM     14  C   UNL     1      -1.159  15.932  25.639  0.00  0.00    +0.000 C 
ATOM     15  C   UNL     1      -2.119  15.087  26.087  0.00  0.00    +0.000 C 
ATOM     16  C   UNL     1      -3.184  14.702  25.038  0.00  0.00    +0.000 C 
ATOM     17  C   UNL     1      -3.801  16.024  24.492  0.00  0.00    +0.000 C 
ATOM     18  C   UNL     1      -3.533  17.444  24.938  0.00  0.00    +0.000 C 
ATOM     19  C   UNL     1      -2.662  16.847  23.852  0.00  0.00    +0.000 C 
ATOM     20  C   UNL     1      -2.535  14.161  23.738  0.00  0.00    +0.000 C 
ATOM     21  C   UNL     1      -2.278  12.784  23.223  0.00  0.00    +0.000 C 
ATOM     22  O   UNL     1      -2.949  11.810  23.511  0.00  0.00    +0.000 OA
ENDBRANCH   3   9
BRANCH   6  23
ATOM     23  C   UNL     1       0.851   9.451  19.493  0.00  0.00    +0.000 A 
ATOM     24  C   UNL     1       1.256   8.344  20.248  0.00  0.00    +0.000 A 
ATOM     25  C   UNL     1       2.154   7.413  19.720  0.00  0.00    +0.000 A 
ATOM     26  C   UNL     1       2.688   7.604  18.447  0.00  0.00    +0.000 A 
ATOM     27  C   UNL     1       2.327   8.726  17.703  0.00  0.00    +0.000 A 
ATOM     28  C   UNL     1       1.404   9.640  18.218  0.00  0.00    +0.000 A 
ENDBRANCH   6  23
TORSDOF 2
ENDMDL
MODEL 6
REMARK VINA RESULT:      -7.0      0.486      2.091
REMARK  Name = 
REMARK  4 active torsions:
REMARK  status: ('A' for Active; 'I' for Inactive)
REMARK    1  A    between atoms: C_1  and  C_2
REMARK    2  A    between atoms: C_3  and  N_4
REMARK    3  A    between atoms: N_20  and  C_21
REMARK    4  A    between atoms: N_27  and  C_28
REMARK                            x       y       z     vdW  Elec       q    Type
REMARK                         _______ _______ _______ _____ _____    ______ ____
ROOT
ATOM      1  C   UNL     1      -1.079   9.971  17.536  0.00  0.00    +0.000 C 
ATOM      2  C   UNL     1      -0.497  10.315  18.875  0.00  0.00    +0.000 A 
ATOM      3  C   UNL     1       0.558   9.742  19.488  0.00  0.00    +0.000 A 
ATOM      4  C   UNL     1       0.871  10.661  20.648  0.00  0.00    +0.000 A 
ATOM      5  O   UNL     1       1.659  10.414  21.545  0.00  0.00    +0.000 OA
ATOM      6  N   UNL     1      -0.012  11.746  20.543  0.00  0.00    +0.000 N 
ATOM      7  N   UNL     1      -0.973  11.446  19.560  0.00  0.00    +0.000 N 
ATOM      8  C   UNL     1      -1.634  12.563  18.885  0.00  0.00    +0.000 C 
ENDROOT
BRANCH   3   9
ATOM      9  N   UNL     1       1.260   8.586  19.211  0.00  0.00    +0.000 N 
ATOM     10  C   UNL     1       2.052   8.399  18.062  0.00  0.00    +0.000 C 
ATOM     11  O   UNL     1       2.196   9.104  17.075  0.00  0.00    +0.000 OA
ATOM     12  C   UNL     1       2.451   6.957  18.112  0.00  0.00    +0.000 C 
ATOM     13  C   UNL     1       3.624   6.207  17.446  0.00  0.00    +0.000 C 
ATOM     14  C   UNL     1       3.061   4.773  17.511  0.00  0.00    +0.000 C 
ATOM     15  C   UNL     1       2.755   4.364  18.765  0.00  0.00    +0.000 C 
ATOM     16  C   UNL     1       3.149   5.353  19.883  0.00  0.00    +0.000 C 
ATOM     17  C   UNL     1       4.672   5.641  19.736  0.00  0.00    +0.000 C 
ATOM     18  C   UNL     1       5.661   5.021  18.773  0.00  0.00    +0.000 C 
ATOM     19  C   UNL     1       4.903   6.260  18.340  0.00  0.00    +0.000 C 
ATOM     20  C   UNL     1       2.588   6.773  19.613  0.00  0.00    +0.000 C 
ATOM     21  C   UNL     1       1.383   7.503  20.103  0.00  0.00    +0.000 C 
ATOM     22  O   UNL     1       0.850   7.298  21.179  0.00  0.00    +0.000 OA
ENDBRANCH   3   9
BRANCH   6  23
ATOM     23  C   UNL     1      -0.249  12.662  21.591  0.00  0.00    +0.000 A 
ATOM     24  C   UNL     1       0.402  13.902  21.566  0.00  0.00    +0.000 A 
ATOM     25  C   UNL     1       0.096  14.884  22.511  0.00  0.00    +0.000 A 
ATOM     26  C   UNL     1      -0.831  14.620  23.517  0.00  0.00    +0.000 A 
ATOM     27  C   UNL     1      -1.452  13.373  23.580  0.00  0.00    +0.000 A 
ATOM     28  C   UNL     1      -1.171  12.402  22.615  0.00  0.00    +0.000 A 
ENDBRANCH   6  23
TORSDOF 2
ENDMDL
MODEL 7
REMARK VINA RESULT:      -6.8      2.290      8.807
REMARK  Name = 
REMARK  4 active torsions:
REMARK  status: ('A' for Active; 'I' for Inactive)
REMARK    1  A    between atoms: C_1  and  C_2
REMARK    2  A    between atoms: C_3  and  N_4
REMARK    3  A    between atoms: N_20  and  C_21
REMARK    4  A    between atoms: N_27  and  C_28
REMARK                            x       y       z     vdW  Elec       q    Type
REMARK                         _______ _______ _______ _____ _____    ______ ____
ROOT
ATOM      1  C   UNL     1      -3.527  12.312  19.281  0.00  0.00    +0.000 C 
ATOM      2  C   UNL     1      -2.167  11.899  19.762  0.00  0.00    +0.000 A 
ATOM      3  C   UNL     1      -1.545  12.273  20.899  0.00  0.00    +0.000 A 
ATOM      4  C   UNL     1      -0.357  11.344  21.007  0.00  0.00    +0.000 A 
ATOM      5  O   UNL     1       0.551  11.458  21.813  0.00  0.00    +0.000 OA
ATOM      6  N   UNL     1      -0.454  10.448  19.932  0.00  0.00    +0.000 N 
ATOM      7  N   UNL     1      -1.466  10.902  19.064  0.00  0.00    +0.000 N 
ATOM      8  C   UNL     1      -2.128   9.916  18.209  0.00  0.00    +0.000 C 
ENDROOT
BRANCH   3   9
ATOM      9  N   UNL     1      -1.835  13.262  21.818  0.00  0.00    +0.000 N 
ATOM     10  C   UNL     1      -2.402  13.021  23.084  0.00  0.00    +0.000 C 
ATOM     11  O   UNL     1      -2.837  11.992  23.576  0.00  0.00    +0.000 OA
ATOM     12  C   UNL     1      -2.695  14.386  23.628  0.00  0.00    +0.000 C 
ATOM     13  C   UNL     1      -2.900  14.875  25.077  0.00  0.00    +0.000 C 
ATOM     14  C   UNL     1      -3.665  16.182  24.784  0.00  0.00    +0.000 C 
ATOM     15  C   UNL     1      -2.992  17.037  23.978  0.00  0.00    +0.000 C 
ATOM     16  C   UNL     1      -1.556  16.599  23.623  0.00  0.00    +0.000 C 
ATOM     17  C   UNL     1      -0.795  16.364  24.962  0.00  0.00    +0.000 C 
ATOM     18  C   UNL     1      -1.277  16.607  26.375  0.00  0.00    +0.000 C 
ATOM     19  C   UNL     1      -1.538  15.256  25.739  0.00  0.00    +0.000 C 
ATOM     20  C   UNL     1      -1.523  15.159  23.049  0.00  0.00    +0.000 C 
ATOM     21  C   UNL     1      -1.478  14.615  21.661  0.00  0.00    +0.000 C 
ATOM     22  O   UNL     1      -0.985  15.200  20.713  0.00  0.00    +0.000 OA
ENDBRANCH   3   9
BRANCH   6  23
ATOM     23  C   UNL     1       0.610   9.626  19.503  0.00  0.00    +0.000 A 
ATOM     24  C   UNL     1       1.016   8.564  20.321  0.00  0.00    +0.000 A 
ATOM     25  C   UNL     1       1.975   7.651  19.876  0.00  0.00    +0.000 A 
ATOM     26  C   UNL     1       2.569   7.816  18.627  0.00  0.00    +0.000 A 
ATOM     27  C   UNL     1       2.206   8.896  17.822  0.00  0.00    +0.000 A 
ATOM     28  C   UNL     1       1.224   9.791  18.253  0.00  0.00    +0.000 A 
ENDBRANCH   6  23
TORSDOF 2
ENDMDL
MODEL 8
REMARK VINA RESULT:      -6.8      5.381      9.606
REMARK  Name = 
REMARK  4 active torsions:
REMARK  status: ('A' for Active; 'I' for Inactive)
REMARK    1  A    between atoms: C_1  and  C_2
REMARK    2  A    between atoms: C_3  and  N_4
REMARK    3  A    between atoms: N_20  and  C_21
REMARK    4  A    between atoms: N_27  and  C_28
REMARK                            x       y       z     vdW  Elec       q    Type
REMARK                         _______ _______ _______ _____ _____    ______ ____
ROOT
ATOM      1  C   UNL     1      -7.094  12.683  20.924  0.00  0.00    +0.000 C 
ATOM      2  C   UNL     1      -5.789  12.526  20.200  0.00  0.00    +0.000 A 
ATOM      3  C   UNL     1      -4.571  12.950  20.594  0.00  0.00    +0.000 A 
ATOM      4  C   UNL     1      -3.607  12.276  19.643  0.00  0.00    +0.000 A 
ATOM      5  O   UNL     1      -2.416  12.523  19.561  0.00  0.00    +0.000 OA
ATOM      6  N   UNL     1      -4.379  11.445  18.818  0.00  0.00    +0.000 N 
ATOM      7  N   UNL     1      -5.739  11.735  19.040  0.00  0.00    +0.000 N 
ATOM      8  C   UNL     1      -6.719  10.689  18.749  0.00  0.00    +0.000 C 
ENDROOT
BRANCH   3   9
ATOM      9  N   UNL     1      -4.182  13.802  21.608  0.00  0.00    +0.000 N 
ATOM     10  C   UNL     1      -3.967  13.399  22.940  0.00  0.00    +0.000 C 
ATOM     11  O   UNL     1      -4.167  12.325  23.486  0.00  0.00    +0.000 OA
ATOM     12  C   UNL     1      -3.747  14.678  23.687  0.00  0.00    +0.000 C 
ATOM     13  C   UNL     1      -3.050  14.956  25.035  0.00  0.00    +0.000 C 
ATOM     14  C   UNL     1      -3.693  16.319  25.363  0.00  0.00    +0.000 C 
ATOM     15  C   UNL     1      -3.494  17.258  24.408  0.00  0.00    +0.000 C 
ATOM     16  C   UNL     1      -2.562  16.824  23.257  0.00  0.00    +0.000 C 
ATOM     17  C   UNL     1      -1.216  16.367  23.892  0.00  0.00    +0.000 C 
ATOM     18  C   UNL     1      -0.794  16.416  25.343  0.00  0.00    +0.000 C 
ATOM     19  C   UNL     1      -1.518  15.185  24.838  0.00  0.00    +0.000 C 
ATOM     20  C   UNL     1      -3.021  15.484  22.626  0.00  0.00    +0.000 C 
ATOM     21  C   UNL     1      -3.822  15.150  21.412  0.00  0.00    +0.000 C 
ATOM     22  O   UNL     1      -3.880  15.849  20.417  0.00  0.00    +0.000 OA
ENDBRANCH   3   9
BRANCH   6  23
ATOM     23  C   UNL     1      -3.903  10.884  17.613  0.00  0.00    +0.000 A 
ATOM     24  C   UNL     1      -4.267  11.480  16.400  0.00  0.00    +0.000 A 
ATOM     25  C   UNL     1      -3.714  11.035  15.196  0.00  0.00    +0.000 A 
ATOM     26  C   UNL     1      -2.827   9.962  15.190  0.00  0.00    +0.000 A 
ATOM     27  C   UNL     1      -2.492   9.331  16.387  0.00  0.00    +0.000 A 
ATOM     28  C   UNL     1      -3.019   9.796  17.595  0.00  0.00    +0.000 A 
ENDBRANCH   6  23
TORSDOF 2
ENDMDL
MODEL 9
REMARK VINA RESULT:      -6.8      2.498      8.447
REMARK  Name = 
REMARK  4 active torsions:
REMARK  status: ('A' for Active; 'I' for Inactive)
REMARK    1  A    between atoms: C_1  and  C_2
REMARK    2  A    between atoms: C_3  and  N_4
REMARK    3  A    between atoms: N_20  and  C_21
REMARK    4  A    between atoms: N_27  and  C_28
REMARK                            x       y       z     vdW  Elec       q    Type
REMARK                         _______ _______ _______ _____ _____    ______ ____
ROOT
ATOM      1  C   UNL     1       0.577  13.691  19.548  0.00  0.00    +0.000 C 
ATOM      2  C   UNL     1       0.468  12.220  19.821  0.00  0.00    +0.000 A 
ATOM      3  C   UNL     1      -0.535  11.569  20.445  0.00  0.00    +0.000 A 
ATOM      4  C   UNL     1      -0.260  10.105  20.182  0.00  0.00    +0.000 A 
ATOM      5  O   UNL     1      -0.848   9.176  20.710  0.00  0.00    +0.000 OA
ATOM      6  N   UNL     1       0.863  10.056  19.344  0.00  0.00    +0.000 N 
ATOM      7  N   UNL     1       1.420  11.347  19.269  0.00  0.00    +0.000 N 
ATOM      8  C   UNL     1       2.214  11.683  18.086  0.00  0.00    +0.000 C 
ENDROOT
BRANCH   3   9
ATOM      9  N   UNL     1      -1.606  12.031  21.184  0.00  0.00    +0.000 N 
ATOM     10  C   UNL     1      -1.572  12.243  22.575  0.00  0.00    +0.000 C 
ATOM     11  O   UNL     1      -0.707  11.983  23.397  0.00  0.00    +0.000 OA
ATOM     12  C   UNL     1      -2.990  12.559  22.940  0.00  0.00    +0.000 C 
ATOM     13  C   UNL     1      -3.582  13.297  24.158  0.00  0.00    +0.000 C 
ATOM     14  C   UNL     1      -5.023  12.751  24.096  0.00  0.00    +0.000 C 
ATOM     15  C   UNL     1      -5.646  12.994  22.918  0.00  0.00    +0.000 C 
ATOM     16  C   UNL     1      -4.849  13.874  21.932  0.00  0.00    +0.000 C 
ATOM     17  C   UNL     1      -4.494  15.198  22.670  0.00  0.00    +0.000 C 
ATOM     18  C   UNL     1      -4.914  15.650  24.052  0.00  0.00    +0.000 C 
ATOM     19  C   UNL     1      -3.643  14.837  23.907  0.00  0.00    +0.000 C 
ATOM     20  C   UNL     1      -3.421  13.317  21.697  0.00  0.00    +0.000 C 
ATOM     21  C   UNL     1      -2.819  12.474  20.623  0.00  0.00    +0.000 C 
ATOM     22  O   UNL     1      -3.219  12.443  19.473  0.00  0.00    +0.000 OA
ENDBRANCH   3   9
BRANCH   6  23
ATOM     23  C   UNL     1       1.616   8.884  19.117  0.00  0.00    +0.000 A 
ATOM     24  C   UNL     1       1.801   7.984  20.174  0.00  0.00    +0.000 A 
ATOM     25  C   UNL     1       2.426   6.754  19.958  0.00  0.00    +0.000 A 
ATOM     26  C   UNL     1       2.911   6.430  18.693  0.00  0.00    +0.000 A 
ATOM     27  C   UNL     1       2.773   7.336  17.642  0.00  0.00    +0.000 A 
ATOM     28  C   UNL     1       2.119   8.553  17.850  0.00  0.00    +0.000 A 
ENDBRANCH   6  23
TORSDOF 2
ENDMDL
