MODEL 1
REMARK VINA RESULT:      -8.5      0.000      0.000
REMARK  Name = 
REMARK  5 active torsions:
REMARK  status: ('A' for Active; 'I' for Inactive)
REMARK    1  A    between atoms: C_2  and  O_3
REMARK    2  A    between atoms: C_2  and  C_13
REMARK    3  A    between atoms: O_3  and  C_4
REMARK    4  A    between atoms: C_4  and  C_5
REMARK    5  A    between atoms: C_18  and  C_19
REMARK                            x       y       z     vdW  Elec       q    Type
REMARK                         _______ _______ _______ _____ _____    ______ ____
ROOT
ATOM      1  C   UNL     1       6.989   5.566  17.985  0.00  0.00    +0.000 A 
ATOM      2  C   UNL     1       7.635   6.723  17.576  0.00  0.00    +0.000 A 
ATOM      3  N   UNL     1       7.654   6.756  16.207  0.00  0.00    +0.000 N 
ATOM      4  C   UNL     1       7.038   5.638  15.697  0.00  0.00    +0.000 A 
ATOM      5  C   UNL     1       6.815   5.262  14.364  0.00  0.00    +0.000 A 
ATOM      6  C   UNL     1       6.150   4.047  14.116  0.00  0.00    +0.000 A 
ATOM      7  C   UNL     1       5.731   3.255  15.192  0.00  0.00    +0.000 A 
ATOM      8  C   UNL     1       5.957   3.652  16.516  0.00  0.00    +0.000 A 
ATOM      9  C   UNL     1       6.622   4.867  16.783  0.00  0.00    +0.000 A 
ATOM     10  H   UNL     1       8.048   7.500  15.647  0.00  0.00    +0.000 HD
ENDROOT
BRANCH   6  11
ATOM     11  C   UNL     1       5.883   3.587  12.702  0.00  0.00    +0.000 C 
ATOM     12  F   UNL     1       6.691   4.175  11.775  0.00  0.00    +0.000 F 
ATOM     13  F   UNL     1       6.057   2.245  12.549  0.00  0.00    +0.000 F 
ATOM     14  F   UNL     1       4.607   3.847  12.300  0.00  0.00    +0.000 F 
ENDBRANCH   6  11
BRANCH   1  16
ATOM     15  O   UNL     1       7.443   5.442  20.305  0.00  0.00    +0.000 OA
ATOM     16  C   UNL     1       6.704   5.174  19.364  0.00  0.00    +0.000 C 
BRANCH  16  17
ATOM     17  O   UNL     1       5.563   4.429  19.477  0.00  0.00    +0.000 OA
BRANCH  17  18
ATOM     18  C   UNL     1       4.337   5.160  19.645  0.00  0.00    +0.000 C 
BRANCH  18  19
ATOM     19  C   UNL     1       3.098   4.374  19.192  0.00  0.00    +0.000 C 
ATOM     20  C   UNL     1       2.465   4.962  17.912  0.00  0.00    +0.000 C 
ATOM     21  C   UNL     1       1.265   4.102  17.482  0.00  0.00    +0.000 C 
ATOM     22  N   UNL     1       1.042   2.967  18.400  0.00  0.00    +0.000 NA
ATOM     23  C   UNL     1       0.807   3.490  19.762  0.00  0.00    +0.000 C 
ATOM     24  C   UNL     1       1.991   4.333  20.267  0.00  0.00    +0.000 C 
ATOM     25  C   UNL     1       2.251   2.121  18.417  0.00  0.00    +0.000 C 
ATOM     26  C   UNL     1       3.485   2.907  18.883  0.00  0.00    +0.000 C 
ENDBRANCH  18  19
ENDBRANCH  17  18
ENDBRANCH  16  17
ENDBRANCH   1  16
TORSDOF 5
ENDMDL
MODEL 2
REMARK VINA RESULT:      -8.5      0.610      1.547
REMARK  Name = 
REMARK  5 active torsions:
REMARK  status: ('A' for Active; 'I' for Inactive)
REMARK    1  A    between atoms: C_2  and  O_3
REMARK    2  A    between atoms: C_2  and  C_13
REMARK    3  A    between atoms: O_3  and  C_4
REMARK    4  A    between atoms: C_4  and  C_5
REMARK    5  A    between atoms: C_18  and  C_19
REMARK                            x       y       z     vdW  Elec       q    Type
REMARK                         _______ _______ _______ _____ _____    ______ ____
ROOT
ATOM      1  C   UNL     1       6.495   5.591  17.796  0.00  0.00    +0.000 A 
ATOM      2  C   UNL     1       7.473   6.523  17.484  0.00  0.00    +0.000 A 
ATOM      3  N   UNL     1       7.753   6.434  16.146  0.00  0.00    +0.000 N 
ATOM      4  C   UNL     1       6.984   5.455  15.564  0.00  0.00    +0.000 A 
ATOM      5  C   UNL     1       6.927   5.030  14.228  0.00  0.00    +0.000 A 
ATOM      6  C   UNL     1       6.038   3.991  13.896  0.00  0.00    +0.000 A 
ATOM      7  C   UNL     1       5.242   3.415  14.894  0.00  0.00    +0.000 A 
ATOM      8  C   UNL     1       5.309   3.858  16.221  0.00  0.00    +0.000 A 
ATOM      9  C   UNL     1       6.195   4.899  16.572  0.00  0.00    +0.000 A 
ATOM     10  H   UNL     1       8.418   7.013  15.649  0.00  0.00    +0.000 HD
ENDROOT
BRANCH   6  11
ATOM     11  C   UNL     1       5.933   3.489  12.476  0.00  0.00    +0.000 C 
ATOM     12  F   UNL     1       6.137   2.146  12.354  0.00  0.00    +0.000 F 
ATOM     13  F   UNL     1       4.709   3.728  11.927  0.00  0.00    +0.000 F 
ATOM     14  F   UNL     1       6.837   4.078  11.644  0.00  0.00    +0.000 F 
ENDBRANCH   6  11
BRANCH   1  16
ATOM     15  O   UNL     1       6.425   4.827  20.036  0.00  0.00    +0.000 OA
ATOM     16  C   UNL     1       5.869   5.397  19.103  0.00  0.00    +0.000 C 
BRANCH  16  17
ATOM     17  O   UNL     1       4.584   5.863  19.149  0.00  0.00    +0.000 OA
BRANCH  17  18
ATOM     18  C   UNL     1       3.706   5.221  20.089  0.00  0.00    +0.000 C 
BRANCH  18  19
ATOM     19  C   UNL     1       2.735   4.231  19.429  0.00  0.00    +0.000 C 
ATOM     20  C   UNL     1       1.511   3.927  20.319  0.00  0.00    +0.000 C 
ATOM     21  C   UNL     1       0.554   2.974  19.583  0.00  0.00    +0.000 C 
ATOM     22  N   UNL     1       1.062   2.608  18.245  0.00  0.00    +0.000 NA
ATOM     23  C   UNL     1       2.382   1.960  18.395  0.00  0.00    +0.000 C 
ATOM     24  C   UNL     1       3.399   2.878  19.095  0.00  0.00    +0.000 C 
ATOM     25  C   UNL     1       1.222   3.835  17.442  0.00  0.00    +0.000 C 
ATOM     26  C   UNL     1       2.203   4.817  18.098  0.00  0.00    +0.000 C 
ENDBRANCH  18  19
ENDBRANCH  17  18
ENDBRANCH  16  17
ENDBRANCH   1  16
TORSDOF 5
ENDMDL
MODEL 3
REMARK VINA RESULT:      -8.3      0.968      1.833
REMARK  Name = 
REMARK  5 active torsions:
REMARK  status: ('A' for Active; 'I' for Inactive)
REMARK    1  A    between atoms: C_2  and  O_3
REMARK    2  A    between atoms: C_2  and  C_13
REMARK    3  A    between atoms: O_3  and  C_4
REMARK    4  A    between atoms: C_4  and  C_5
REMARK    5  A    between atoms: C_18  and  C_19
REMARK                            x       y       z     vdW  Elec       q    Type
REMARK                         _______ _______ _______ _____ _____    ______ ____
ROOT
ATOM      1  C   UNL     1       6.786   5.584  17.857  0.00  0.00    +0.000 A 
ATOM      2  C   UNL     1       7.586   6.649  17.473  0.00  0.00    +0.000 A 
ATOM      3  N   UNL     1       7.724   6.627  16.111  0.00  0.00    +0.000 N 
ATOM      4  C   UNL     1       7.036   5.561  15.582  0.00  0.00    +0.000 A 
ATOM      5  C   UNL     1       6.888   5.159  14.246  0.00  0.00    +0.000 A 
ATOM      6  C   UNL     1       6.118   4.013  13.976  0.00  0.00    +0.000 A 
ATOM      7  C   UNL     1       5.525   3.311  15.034  0.00  0.00    +0.000 A 
ATOM      8  C   UNL     1       5.680   3.733  16.361  0.00  0.00    +0.000 A 
ATOM      9  C   UNL     1       6.448   4.881  16.649  0.00  0.00    +0.000 A 
ATOM     10  H   UNL     1       8.243   7.303  15.566  0.00  0.00    +0.000 HD
ENDROOT
BRANCH   6  11
ATOM     11  C   UNL     1       5.923   3.529  12.559  0.00  0.00    +0.000 C 
ATOM     12  F   UNL     1       4.671   3.756  12.071  0.00  0.00    +0.000 F 
ATOM     13  F   UNL     1       6.777   4.126  11.681  0.00  0.00    +0.000 F 
ATOM     14  F   UNL     1       6.133   2.188  12.430  0.00  0.00    +0.000 F 
ENDBRANCH   6  11
BRANCH   1  16
ATOM     15  O   UNL     1       7.104   5.242  20.178  0.00  0.00    +0.000 OA
ATOM     16  C   UNL     1       6.344   5.278  19.217  0.00  0.00    +0.000 C 
BRANCH  16  17
ATOM     17  O   UNL     1       5.012   4.978  19.285  0.00  0.00    +0.000 OA
BRANCH  17  18
ATOM     18  C   UNL     1       4.679   3.636  19.678  0.00  0.00    +0.000 C 
BRANCH  18  19
ATOM     19  C   UNL     1       3.184   3.444  19.968  0.00  0.00    +0.000 C 
ATOM     20  C   UNL     1       2.933   2.656  21.272  0.00  0.00    +0.000 C 
ATOM     21  C   UNL     1       1.422   2.544  21.532  0.00  0.00    +0.000 C 
ATOM     22  N   UNL     1       0.630   3.206  20.476  0.00  0.00    +0.000 NA
ATOM     23  C   UNL     1       0.951   2.584  19.175  0.00  0.00    +0.000 C 
ATOM     24  C   UNL     1       2.448   2.694  18.837  0.00  0.00    +0.000 C 
ATOM     25  C   UNL     1       0.999   4.634  20.425  0.00  0.00    +0.000 C 
ATOM     26  C   UNL     1       2.493   4.822  20.123  0.00  0.00    +0.000 C 
ENDBRANCH  18  19
ENDBRANCH  17  18
ENDBRANCH  16  17
ENDBRANCH   1  16
TORSDOF 5
ENDMDL
MODEL 4
REMARK VINA RESULT:      -8.3      0.507      1.501
REMARK  Name = 
REMARK  5 active torsions:
REMARK  status: ('A' for Active; 'I' for Inactive)
REMARK    1  A    between atoms: C_2  and  O_3
REMARK    2  A    between atoms: C_2  and  C_13
REMARK    3  A    between atoms: O_3  and  C_4
REMARK    4  A    between atoms: C_4  and  C_5
REMARK    5  A    between atoms: C_18  and  C_19
REMARK                            x       y       z     vdW  Elec       q    Type
REMARK                         _______ _______ _______ _____ _____    ______ ____
ROOT
ATOM      1  C   UNL     1       6.903   5.717  17.946  0.00  0.00    +0.000 A 
ATOM      2  C   UNL     1       7.601   6.842  17.534  0.00  0.00    +0.000 A 
ATOM      3  N   UNL     1       7.689   6.829  16.168  0.00  0.00    +0.000 N 
ATOM      4  C   UNL     1       7.070   5.711  15.663  0.00  0.00    +0.000 A 
ATOM      5  C   UNL     1       6.904   5.296  14.333  0.00  0.00    +0.000 A 
ATOM      6  C   UNL     1       6.219   4.091  14.091  0.00  0.00    +0.000 A 
ATOM      7  C   UNL     1       5.724   3.346  15.169  0.00  0.00    +0.000 A 
ATOM      8  C   UNL     1       5.894   3.782  16.489  0.00  0.00    +0.000 A 
ATOM      9  C   UNL     1       6.578   4.987  16.751  0.00  0.00    +0.000 A 
ATOM     10  H   UNL     1       8.132   7.544  15.605  0.00  0.00    +0.000 HD
ENDROOT
BRANCH   6  11
ATOM     11  C   UNL     1       6.011   3.591  12.681  0.00  0.00    +0.000 C 
ATOM     12  F   UNL     1       4.756   3.817  12.200  0.00  0.00    +0.000 F 
ATOM     13  F   UNL     1       6.861   4.174  11.789  0.00  0.00    +0.000 F 
ATOM     14  F   UNL     1       6.215   2.248  12.566  0.00  0.00    +0.000 F 
ENDBRANCH   6  11
BRANCH   1  16
ATOM     15  O   UNL     1       7.362   5.206  20.212  0.00  0.00    +0.000 OA
ATOM     16  C   UNL     1       6.538   5.380  19.321  0.00  0.00    +0.000 C 
BRANCH  16  17
ATOM     17  O   UNL     1       5.190   5.219  19.486  0.00  0.00    +0.000 OA
BRANCH  17  18
ATOM     18  C   UNL     1       4.736   3.884  19.768  0.00  0.00    +0.000 C 
BRANCH  18  19
ATOM     19  C   UNL     1       3.273   3.646  19.368  0.00  0.00    +0.000 C 
ATOM     20  C   UNL     1       2.986   2.165  19.042  0.00  0.00    +0.000 C 
ATOM     21  C   UNL     1       1.498   1.984  18.701  0.00  0.00    +0.000 C 
ATOM     22  N   UNL     1       0.757   3.260  18.770  0.00  0.00    +0.000 NA
ATOM     23  C   UNL     1       1.365   4.219  17.823  0.00  0.00    +0.000 C 
ATOM     24  C   UNL     1       2.851   4.471  18.133  0.00  0.00    +0.000 C 
ATOM     25  C   UNL     1       0.869   3.804  20.136  0.00  0.00    +0.000 C 
ATOM     26  C   UNL     1       2.333   4.053  20.529  0.00  0.00    +0.000 C 
ENDBRANCH  18  19
ENDBRANCH  17  18
ENDBRANCH  16  17
ENDBRANCH   1  16
TORSDOF 5
ENDMDL
MODEL 5
REMARK VINA RESULT:      -8.1      0.849      1.516
REMARK  Name = 
REMARK  5 active torsions:
REMARK  status: ('A' for Active; 'I' for Inactive)
REMARK    1  A    between atoms: C_2  and  O_3
REMARK    2  A    between atoms: C_2  and  C_13
REMARK    3  A    between atoms: O_3  and  C_4
REMARK    4  A    between atoms: C_4  and  C_5
REMARK    5  A    between atoms: C_18  and  C_19
REMARK                            x       y       z     vdW  Elec       q    Type
REMARK                         _______ _______ _______ _____ _____    ______ ____
ROOT
ATOM      1  C   UNL     1       6.394   5.546  17.811  0.00  0.00    +0.000 A 
ATOM      2  C   UNL     1       7.318   6.558  17.601  0.00  0.00    +0.000 A 
ATOM      3  N   UNL     1       7.694   6.545  16.285  0.00  0.00    +0.000 N 
ATOM      4  C   UNL     1       7.044   5.536  15.616  0.00  0.00    +0.000 A 
ATOM      5  C   UNL     1       7.109   5.163  14.265  0.00  0.00    +0.000 A 
ATOM      6  C   UNL     1       6.327   4.075  13.835  0.00  0.00    +0.000 A 
ATOM      7  C   UNL     1       5.511   3.402  14.753  0.00  0.00    +0.000 A 
ATOM      8  C   UNL     1       5.454   3.795  16.096  0.00  0.00    +0.000 A 
ATOM      9  C   UNL     1       6.232   4.883  16.545  0.00  0.00    +0.000 A 
ATOM     10  H   UNL     1       8.345   7.191  15.857  0.00  0.00    +0.000 HD
ENDROOT
BRANCH   6  11
ATOM     11  C   UNL     1       6.356   3.624  12.393  0.00  0.00    +0.000 C 
ATOM     12  F   UNL     1       7.176   4.375  11.603  0.00  0.00    +0.000 F 
ATOM     13  F   UNL     1       6.786   2.339  12.257  0.00  0.00    +0.000 F 
ATOM     14  F   UNL     1       5.129   3.672  11.804  0.00  0.00    +0.000 F 
ENDBRANCH   6  11
BRANCH   1  16
ATOM     15  O   UNL     1       6.138   4.487  19.913  0.00  0.00    +0.000 OA
ATOM     16  C   UNL     1       5.699   5.253  19.063  0.00  0.00    +0.000 C 
BRANCH  16  17
ATOM     17  O   UNL     1       4.484   5.877  19.151  0.00  0.00    +0.000 OA
BRANCH  17  18
ATOM     18  C   UNL     1       3.448   5.379  18.287  0.00  0.00    +0.000 C 
BRANCH  18  19
ATOM     19  C   UNL     1       2.651   4.222  18.904  0.00  0.00    +0.000 C 
ATOM     20  C   UNL     1       2.267   4.491  20.376  0.00  0.00    +0.000 C 
ATOM     21  C   UNL     1       1.428   3.322  20.919  0.00  0.00    +0.000 C 
ATOM     22  N   UNL     1       1.225   2.270  19.902  0.00  0.00    +0.000 NA
ATOM     23  C   UNL     1       2.544   1.766  19.464  0.00  0.00    +0.000 C 
ATOM     24  C   UNL     1       3.421   2.885  18.876  0.00  0.00    +0.000 C 
ATOM     25  C   UNL     1       0.529   2.856  18.740  0.00  0.00    +0.000 C 
ATOM     26  C   UNL     1       1.335   4.005  18.117  0.00  0.00    +0.000 C 
ENDBRANCH  18  19
ENDBRANCH  17  18
ENDBRANCH  16  17
ENDBRANCH   1  16
TORSDOF 5
ENDMDL
MODEL 6
REMARK VINA RESULT:      -8.1      0.870      1.603
REMARK  Name = 
REMARK  5 active torsions:
REMARK  status: ('A' for Active; 'I' for Inactive)
REMARK    1  A    between atoms: C_2  and  O_3
REMARK    2  A    between atoms: C_2  and  C_13
REMARK    3  A    between atoms: O_3  and  C_4
REMARK    4  A    between atoms: C_4  and  C_5
REMARK    5  A    between atoms: C_18  and  C_19
REMARK                            x       y       z     vdW  Elec       q    Type
REMARK                         _______ _______ _______ _____ _____    ______ ____
ROOT
ATOM      1  C   UNL     1       6.417   5.693  17.613  0.00  0.00    +0.000 A 
ATOM      2  C   UNL     1       7.435   6.580  17.298  0.00  0.00    +0.000 A 
ATOM      3  N   UNL     1       7.751   6.433  15.974  0.00  0.00    +0.000 N 
ATOM      4  C   UNL     1       6.968   5.459  15.404  0.00  0.00    +0.000 A 
ATOM      5  C   UNL     1       6.935   4.988  14.083  0.00  0.00    +0.000 A 
ATOM      6  C   UNL     1       6.022   3.966  13.761  0.00  0.00    +0.000 A 
ATOM      7  C   UNL     1       5.178   3.454  14.754  0.00  0.00    +0.000 A 
ATOM      8  C   UNL     1       5.221   3.943  16.066  0.00  0.00    +0.000 A 
ATOM      9  C   UNL     1       6.130   4.966  16.406  0.00  0.00    +0.000 A 
ATOM     10  H   UNL     1       8.449   6.972  15.477  0.00  0.00    +0.000 HD
ENDROOT
BRANCH   6  11
ATOM     11  C   UNL     1       5.941   3.416  12.357  0.00  0.00    +0.000 C 
ATOM     12  F   UNL     1       6.114   2.065  12.288  0.00  0.00    +0.000 F 
ATOM     13  F   UNL     1       4.739   3.666  11.766  0.00  0.00    +0.000 F 
ATOM     14  F   UNL     1       6.882   3.952  11.530  0.00  0.00    +0.000 F 
ENDBRANCH   6  11
BRANCH   1  16
ATOM     15  O   UNL     1       6.311   5.162  19.918  0.00  0.00    +0.000 OA
ATOM     16  C   UNL     1       5.748   5.567  18.907  0.00  0.00    +0.000 C 
BRANCH  16  17
ATOM     17  O   UNL     1       4.420   5.889  18.849  0.00  0.00    +0.000 OA
BRANCH  17  18
ATOM     18  C   UNL     1       3.611   5.466  19.960  0.00  0.00    +0.000 C 
BRANCH  18  19
ATOM     19  C   UNL     1       2.782   4.210  19.660  0.00  0.00    +0.000 C 
ATOM     20  C   UNL     1       3.663   2.994  19.302  0.00  0.00    +0.000 C 
ATOM     21  C   UNL     1       2.779   1.759  19.065  0.00  0.00    +0.000 C 
ATOM     22  N   UNL     1       1.344   2.068  19.234  0.00  0.00    +0.000 NA
ATOM     23  C   UNL     1       0.967   3.133  18.281  0.00  0.00    +0.000 C 
ATOM     24  C   UNL     1       1.795   4.413  18.490  0.00  0.00    +0.000 C 
ATOM     25  C   UNL     1       1.119   2.557  20.607  0.00  0.00    +0.000 C 
ATOM     26  C   UNL     1       1.941   3.821  20.900  0.00  0.00    +0.000 C 
ENDBRANCH  18  19
ENDBRANCH  17  18
ENDBRANCH  16  17
ENDBRANCH   1  16
TORSDOF 5
ENDMDL
MODEL 7
REMARK VINA RESULT:      -8.1      0.847      1.493
REMARK  Name = 
REMARK  5 active torsions:
REMARK  status: ('A' for Active; 'I' for Inactive)
REMARK    1  A    between atoms: C_2  and  O_3
REMARK    2  A    between atoms: C_2  and  C_13
REMARK    3  A    between atoms: O_3  and  C_4
REMARK    4  A    between atoms: C_4  and  C_5
REMARK    5  A    between atoms: C_18  and  C_19
REMARK                            x       y       z     vdW  Elec       q    Type
REMARK                         _______ _______ _______ _____ _____    ______ ____
ROOT
ATOM      1  C   UNL     1       6.387   5.542  17.834  0.00  0.00    +0.000 A 
ATOM      2  C   UNL     1       7.313   6.552  17.626  0.00  0.00    +0.000 A 
ATOM      3  N   UNL     1       7.690   6.538  16.310  0.00  0.00    +0.000 N 
ATOM      4  C   UNL     1       7.037   5.532  15.639  0.00  0.00    +0.000 A 
ATOM      5  C   UNL     1       7.103   5.160  14.288  0.00  0.00    +0.000 A 
ATOM      6  C   UNL     1       6.317   4.075  13.857  0.00  0.00    +0.000 A 
ATOM      7  C   UNL     1       5.498   3.404  14.774  0.00  0.00    +0.000 A 
ATOM      8  C   UNL     1       5.442   3.796  16.118  0.00  0.00    +0.000 A 
ATOM      9  C   UNL     1       6.223   4.881  16.567  0.00  0.00    +0.000 A 
ATOM     10  H   UNL     1       8.344   7.182  15.883  0.00  0.00    +0.000 HD
ENDROOT
BRANCH   6  11
ATOM     11  C   UNL     1       6.346   3.625  12.415  0.00  0.00    +0.000 C 
ATOM     12  F   UNL     1       7.161   4.379  11.624  0.00  0.00    +0.000 F 
ATOM     13  F   UNL     1       6.780   2.341  12.277  0.00  0.00    +0.000 F 
ATOM     14  F   UNL     1       5.117   3.669  11.828  0.00  0.00    +0.000 F 
ENDBRANCH   6  11
BRANCH   1  16
ATOM     15  O   UNL     1       6.122   4.476  19.932  0.00  0.00    +0.000 OA
ATOM     16  C   UNL     1       5.689   5.250  19.086  0.00  0.00    +0.000 C 
BRANCH  16  17
ATOM     17  O   UNL     1       4.481   5.885  19.177  0.00  0.00    +0.000 OA
BRANCH  17  18
ATOM     18  C   UNL     1       3.449   5.423  18.289  0.00  0.00    +0.000 C 
BRANCH  18  19
ATOM     19  C   UNL     1       2.626   4.265  18.870  0.00  0.00    +0.000 C 
ATOM     20  C   UNL     1       3.419   2.941  18.909  0.00  0.00    +0.000 C 
ATOM     21  C   UNL     1       2.561   1.836  19.548  0.00  0.00    +0.000 C 
ATOM     22  N   UNL     1       1.226   2.332  19.939  0.00  0.00    +0.000 NA
ATOM     23  C   UNL     1       0.539   2.856  18.741  0.00  0.00    +0.000 C 
ATOM     24  C   UNL     1       1.332   3.993  18.073  0.00  0.00    +0.000 C 
ATOM     25  C   UNL     1       1.390   3.429  20.912  0.00  0.00    +0.000 C 
ATOM     26  C   UNL     1       2.203   4.592  20.323  0.00  0.00    +0.000 C 
ENDBRANCH  18  19
ENDBRANCH  17  18
ENDBRANCH  16  17
ENDBRANCH   1  16
TORSDOF 5
ENDMDL
MODEL 8
REMARK VINA RESULT:      -8.1      0.855      1.279
REMARK  Name = 
REMARK  5 active torsions:
REMARK  status: ('A' for Active; 'I' for Inactive)
REMARK    1  A    between atoms: C_2  and  O_3
REMARK    2  A    between atoms: C_2  and  C_13
REMARK    3  A    between atoms: O_3  and  C_4
REMARK    4  A    between atoms: C_4  and  C_5
REMARK    5  A    between atoms: C_18  and  C_19
REMARK                            x       y       z     vdW  Elec       q    Type
REMARK                         _______ _______ _______ _____ _____    ______ ____
ROOT
ATOM      1  C   UNL     1       6.421   5.576  17.776  0.00  0.00    +0.000 A 
ATOM      2  C   UNL     1       7.329   6.599  17.551  0.00  0.00    +0.000 A 
ATOM      3  N   UNL     1       7.693   6.581  16.231  0.00  0.00    +0.000 N 
ATOM      4  C   UNL     1       7.050   5.559  15.575  0.00  0.00    +0.000 A 
ATOM      5  C   UNL     1       7.108   5.177  14.226  0.00  0.00    +0.000 A 
ATOM      6  C   UNL     1       6.335   4.076  13.811  0.00  0.00    +0.000 A 
ATOM      7  C   UNL     1       5.537   3.399  14.742  0.00  0.00    +0.000 A 
ATOM      8  C   UNL     1       5.488   3.801  16.083  0.00  0.00    +0.000 A 
ATOM      9  C   UNL     1       6.255   4.903  16.516  0.00  0.00    +0.000 A 
ATOM     10  H   UNL     1       8.332   7.232  15.792  0.00  0.00    +0.000 HD
ENDROOT
BRANCH   6  11
ATOM     11  C   UNL     1       6.357   3.615  12.373  0.00  0.00    +0.000 C 
ATOM     12  F   UNL     1       5.137   3.656  11.767  0.00  0.00    +0.000 F 
ATOM     13  F   UNL     1       7.182   4.371  11.595  0.00  0.00    +0.000 F 
ATOM     14  F   UNL     1       6.793   2.331  12.242  0.00  0.00    +0.000 F 
ENDBRANCH   6  11
BRANCH   1  16
ATOM     15  O   UNL     1       6.206   4.543  19.896  0.00  0.00    +0.000 OA
ATOM     16  C   UNL     1       5.741   5.284  19.037  0.00  0.00    +0.000 C 
BRANCH  16  17
ATOM     17  O   UNL     1       4.510   5.874  19.123  0.00  0.00    +0.000 OA
BRANCH  17  18
ATOM     18  C   UNL     1       3.492   5.357  18.249  0.00  0.00    +0.000 C 
BRANCH  18  19
ATOM     19  C   UNL     1       2.665   4.231  18.885  0.00  0.00    +0.000 C 
ATOM     20  C   UNL     1       1.341   3.977  18.133  0.00  0.00    +0.000 C 
ATOM     21  C   UNL     1       0.586   2.807  18.785  0.00  0.00    +0.000 C 
ATOM     22  N   UNL     1       1.320   2.255  19.943  0.00  0.00    +0.000 NA
ATOM     23  C   UNL     1       1.518   3.327  20.940  0.00  0.00    +0.000 C 
ATOM     24  C   UNL     1       2.301   4.517  20.358  0.00  0.00    +0.000 C 
ATOM     25  C   UNL     1       2.639   1.776  19.489  0.00  0.00    +0.000 C 
ATOM     26  C   UNL     1       3.468   2.907  18.865  0.00  0.00    +0.000 C 
ENDBRANCH  18  19
ENDBRANCH  17  18
ENDBRANCH  16  17
ENDBRANCH   1  16
TORSDOF 5
ENDMDL
MODEL 9
REMARK VINA RESULT:      -7.9      0.835      1.580
REMARK  Name = 
REMARK  5 active torsions:
REMARK  status: ('A' for Active; 'I' for Inactive)
REMARK    1  A    between atoms: C_2  and  O_3
REMARK    2  A    between atoms: C_2  and  C_13
REMARK    3  A    between atoms: O_3  and  C_4
REMARK    4  A    between atoms: C_4  and  C_5
REMARK    5  A    between atoms: C_18  and  C_19
REMARK                            x       y       z     vdW  Elec       q    Type
REMARK                         _______ _______ _______ _____ _____    ______ ____
ROOT
ATOM      1  C   UNL     1       6.123   5.789  17.724  0.00  0.00    +0.000 A 
ATOM      2  C   UNL     1       5.695   7.063  17.387  0.00  0.00    +0.000 A 
ATOM      3  N   UNL     1       5.408   7.092  16.049  0.00  0.00    +0.000 N 
ATOM      4  C   UNL     1       5.644   5.860  15.487  0.00  0.00    +0.000 A 
ATOM      5  C   UNL     1       5.477   5.427  14.163  0.00  0.00    +0.000 A 
ATOM      6  C   UNL     1       5.799   4.093  13.852  0.00  0.00    +0.000 A 
ATOM      7  C   UNL     1       6.270   3.241  14.859  0.00  0.00    +0.000 A 
ATOM      8  C   UNL     1       6.423   3.690  16.176  0.00  0.00    +0.000 A 
ATOM      9  C   UNL     1       6.105   5.025  16.506  0.00  0.00    +0.000 A 
ATOM     10  H   UNL     1       5.058   7.895  15.544  0.00  0.00    +0.000 HD
ENDROOT
BRANCH   6  11
ATOM     11  C   UNL     1       5.643   3.569  12.444  0.00  0.00    +0.000 C 
ATOM     12  F   UNL     1       5.818   2.221  12.340  0.00  0.00    +0.000 F 
ATOM     13  F   UNL     1       4.409   3.823  11.926  0.00  0.00    +0.000 F 
ATOM     14  F   UNL     1       6.534   4.126  11.576  0.00  0.00    +0.000 F 
ENDBRANCH   6  11
BRANCH   1  16
ATOM     15  O   UNL     1       7.519   5.619  19.629  0.00  0.00    +0.000 OA
ATOM     16  C   UNL     1       6.474   5.318  19.064  0.00  0.00    +0.000 C 
BRANCH  16  17
ATOM     17  O   UNL     1       5.542   4.462  19.583  0.00  0.00    +0.000 OA
BRANCH  17  18
ATOM     18  C   UNL     1       4.240   5.015  19.839  0.00  0.00    +0.000 C 
BRANCH  18  19
ATOM     19  C   UNL     1       3.106   4.225  19.171  0.00  0.00    +0.000 C 
ATOM     20  C   UNL     1       3.604   2.910  18.532  0.00  0.00    +0.000 C 
ATOM     21  C   UNL     1       2.417   2.142  17.927  0.00  0.00    +0.000 C 
ATOM     22  N   UNL     1       1.141   2.862  18.114  0.00  0.00    +0.000 NA
ATOM     23  C   UNL     1       1.243   4.191  17.473  0.00  0.00    +0.000 C 
ATOM     24  C   UNL     1       2.394   5.026  18.060  0.00  0.00    +0.000 C 
ATOM     25  C   UNL     1       0.902   3.047  19.557  0.00  0.00    +0.000 C 
ATOM     26  C   UNL     1       2.031   3.849  20.221  0.00  0.00    +0.000 C 
ENDBRANCH  18  19
ENDBRANCH  17  18
ENDBRANCH  16  17
ENDBRANCH   1  16
TORSDOF 5
ENDMDL
