MODEL 1
REMARK VINA RESULT:      -9.0      0.000      0.000
REMARK  Name = 
REMARK  10 active torsions:
REMARK  status: ('A' for Active; 'I' for Inactive)
REMARK    1  A    between atoms: C_2  and  C_3
REMARK    2  A    between atoms: C_2  and  O_13
REMARK    3  A    between atoms: C_3  and  N_4
REMARK    4  A    between atoms: C_5  and  C_7
REMARK    5  A    between atoms: O_13  and  C_14
REMARK    6  A    between atoms: C_14  and  C_15
REMARK    7  A    between atoms: C_18  and  C_19
REMARK    8  A    between atoms: C_20  and  C_21
REMARK    9  A    between atoms: C_24  and  O_25
REMARK   10  A    between atoms: C_26  and  O_27
REMARK                            x       y       z     vdW  Elec       q    Type
REMARK                         _______ _______ _______ _____ _____    ______ ____
ROOT
ATOM      1  C   UNL     1       5.953   4.918  16.937  0.00  0.00    +0.000 A 
ATOM      2  C   UNL     1       6.979   4.639  17.844  0.00  0.00    +0.000 A 
ATOM      3  C   UNL     1       7.764   5.675  18.362  0.00  0.00    +0.000 A 
ATOM      4  C   UNL     1       7.543   7.006  17.979  0.00  0.00    +0.000 A 
ATOM      5  C   UNL     1       6.496   7.284  17.095  0.00  0.00    +0.000 A 
ATOM      6  C   UNL     1       5.717   6.250  16.569  0.00  0.00    +0.000 A 
ENDROOT
BRANCH   4   7
ATOM      7  C   UNL     1       8.416   8.047  18.535  0.00  0.00    +0.000 C 
ATOM      8  C   UNL     1       8.411   9.334  18.146  0.00  0.00    +0.000 C 
BRANCH   8   9
ATOM      9  C   UNL     1       9.386  10.326  18.623  0.00  0.00    +0.000 A 
ATOM     10  C   UNL     1       9.338  10.754  19.960  0.00  0.00    +0.000 A 
ATOM     11  C   UNL     1      10.215  11.740  20.430  0.00  0.00    +0.000 A 
ATOM     12  C   UNL     1      11.133  12.305  19.553  0.00  0.00    +0.000 A 
ATOM     13  C   UNL     1      11.173  11.898  18.224  0.00  0.00    +0.000 A 
ATOM     14  C   UNL     1      10.306  10.923  17.750  0.00  0.00    +0.000 A 
BRANCH  12  15
ATOM     15  O   UNL     1      12.017  13.270  19.948  0.00  0.00    +0.000 OA
ATOM     16  H   UNL     1      11.806  13.514  20.865  0.00  0.00    +0.000 HD
ENDBRANCH  12  15
BRANCH  13  17
ATOM     17  O   UNL     1      12.063  12.466  17.359  0.00  0.00    +0.000 OA
ATOM     18  H   UNL     1      11.508  12.827  16.640  0.00  0.00    +0.000 HD
ENDBRANCH  13  17
ENDBRANCH   8   9
ENDBRANCH   4   7
BRANCH   1  19
ATOM     19  C   UNL     1       5.105   3.816  16.357  0.00  0.00    +0.000 C 
BRANCH  19  20
ATOM     20  O   UNL     1       3.811   3.905  16.962  0.00  0.00    +0.000 OA
BRANCH  20  22
ATOM     21  O   UNL     1       3.516   1.843  17.936  0.00  0.00    +0.000 OA
ATOM     22  C   UNL     1       3.556   3.066  17.998  0.00  0.00    +0.000 C 
BRANCH  22  23
ATOM     23  C   UNL     1       3.405   3.851  19.290  0.00  0.00    +0.000 C 
BRANCH  23  24
ATOM     24  N   UNL     1       3.080   5.236  19.017  0.00  0.00    +0.000 N 
ATOM     25  C   UNL     1       2.332   5.973  19.909  0.00  0.00    +0.000 C 
ATOM     26  O   UNL     1       1.963   5.545  20.996  0.00  0.00    +0.000 OA
ATOM     27  H   UNL     1       3.385   5.636  18.140  0.00  0.00    +0.000 HD
BRANCH  25  28
ATOM     28  C   UNL     1       2.014   7.367  19.507  0.00  0.00    +0.000 A 
ATOM     29  C   UNL     1       1.372   8.260  20.376  0.00  0.00    +0.000 A 
ATOM     30  C   UNL     1       1.068   9.552  19.945  0.00  0.00    +0.000 A 
ATOM     31  C   UNL     1       1.413   9.958  18.655  0.00  0.00    +0.000 A 
ATOM     32  C   UNL     1       2.076   9.082  17.797  0.00  0.00    +0.000 A 
ATOM     33  C   UNL     1       2.383   7.789  18.224  0.00  0.00    +0.000 A 
ENDBRANCH  25  28
ENDBRANCH  23  24
ENDBRANCH  22  23
ENDBRANCH  20  22
ENDBRANCH  19  20
ENDBRANCH   1  19
TORSDOF 10
ENDMDL
MODEL 2
REMARK VINA RESULT:      -8.6      1.005      1.343
REMARK  Name = 
REMARK  10 active torsions:
REMARK  status: ('A' for Active; 'I' for Inactive)
REMARK    1  A    between atoms: C_2  and  C_3
REMARK    2  A    between atoms: C_2  and  O_13
REMARK    3  A    between atoms: C_3  and  N_4
REMARK    4  A    between atoms: C_5  and  C_7
REMARK    5  A    between atoms: O_13  and  C_14
REMARK    6  A    between atoms: C_14  and  C_15
REMARK    7  A    between atoms: C_18  and  C_19
REMARK    8  A    between atoms: C_20  and  C_21
REMARK    9  A    between atoms: C_24  and  O_25
REMARK   10  A    between atoms: C_26  and  O_27
REMARK                            x       y       z     vdW  Elec       q    Type
REMARK                         _______ _______ _______ _____ _____    ______ ____
ROOT
ATOM      1  C   UNL     1       5.749   4.788  17.075  0.00  0.00    +0.000 A 
ATOM      2  C   UNL     1       6.829   4.930  17.951  0.00  0.00    +0.000 A 
ATOM      3  C   UNL     1       7.437   6.178  18.126  0.00  0.00    +0.000 A 
ATOM      4  C   UNL     1       6.983   7.304  17.425  0.00  0.00    +0.000 A 
ATOM      5  C   UNL     1       5.883   7.164  16.572  0.00  0.00    +0.000 A 
ATOM      6  C   UNL     1       5.281   5.917  16.388  0.00  0.00    +0.000 A 
ENDROOT
BRANCH   4   7
ATOM      7  C   UNL     1       7.678   8.581  17.629  0.00  0.00    +0.000 C 
ATOM      8  C   UNL     1       8.534   8.831  18.634  0.00  0.00    +0.000 C 
BRANCH   8   9
ATOM      9  C   UNL     1       9.113  10.158  18.893  0.00  0.00    +0.000 A 
ATOM     10  C   UNL     1       9.580  10.469  20.181  0.00  0.00    +0.000 A 
ATOM     11  C   UNL     1      10.084  11.742  20.474  0.00  0.00    +0.000 A 
ATOM     12  C   UNL     1      10.107  12.708  19.475  0.00  0.00    +0.000 A 
ATOM     13  C   UNL     1       9.630  12.411  18.203  0.00  0.00    +0.000 A 
ATOM     14  C   UNL     1       9.128  11.152  17.906  0.00  0.00    +0.000 A 
BRANCH  12  15
ATOM     15  O   UNL     1      10.586  13.969  19.695  0.00  0.00    +0.000 OA
ATOM     16  H   UNL     1      10.827  14.354  18.836  0.00  0.00    +0.000 HD
ENDBRANCH  12  15
BRANCH  13  17
ATOM     17  O   UNL     1       9.638  13.366  17.228  0.00  0.00    +0.000 OA
ATOM     18  H   UNL     1       8.719  13.380  16.893  0.00  0.00    +0.000 HD
ENDBRANCH  13  17
ENDBRANCH   8   9
ENDBRANCH   4   7
BRANCH   1  19
ATOM     19  C   UNL     1       5.089   3.451  16.862  0.00  0.00    +0.000 C 
BRANCH  19  20
ATOM     20  O   UNL     1       3.776   3.525  17.426  0.00  0.00    +0.000 OA
BRANCH  20  22
ATOM     21  O   UNL     1       3.655   1.380  18.246  0.00  0.00    +0.000 OA
ATOM     22  C   UNL     1       3.447   2.583  18.346  0.00  0.00    +0.000 C 
BRANCH  22  23
ATOM     23  C   UNL     1       2.851   3.237  19.581  0.00  0.00    +0.000 C 
BRANCH  23  24
ATOM     24  N   UNL     1       2.351   4.561  19.274  0.00  0.00    +0.000 N 
ATOM     25  C   UNL     1       3.079   5.683  19.606  0.00  0.00    +0.000 C 
ATOM     26  O   UNL     1       4.199   5.639  20.102  0.00  0.00    +0.000 OA
ATOM     27  H   UNL     1       1.441   4.642  18.842  0.00  0.00    +0.000 HD
BRANCH  25  28
ATOM     28  C   UNL     1       2.452   6.992  19.290  0.00  0.00    +0.000 A 
ATOM     29  C   UNL     1       2.481   7.535  17.998  0.00  0.00    +0.000 A 
ATOM     30  C   UNL     1       1.902   8.781  17.754  0.00  0.00    +0.000 A 
ATOM     31  C   UNL     1       1.287   9.482  18.793  0.00  0.00    +0.000 A 
ATOM     32  C   UNL     1       1.233   8.933  20.074  0.00  0.00    +0.000 A 
ATOM     33  C   UNL     1       1.808   7.686  20.321  0.00  0.00    +0.000 A 
ENDBRANCH  25  28
ENDBRANCH  23  24
ENDBRANCH  22  23
ENDBRANCH  20  22
ENDBRANCH  19  20
ENDBRANCH   1  19
TORSDOF 10
ENDMDL
MODEL 3
REMARK VINA RESULT:      -8.6      0.728      1.614
REMARK  Name = 
REMARK  10 active torsions:
REMARK  status: ('A' for Active; 'I' for Inactive)
REMARK    1  A    between atoms: C_2  and  C_3
REMARK    2  A    between atoms: C_2  and  O_13
REMARK    3  A    between atoms: C_3  and  N_4
REMARK    4  A    between atoms: C_5  and  C_7
REMARK    5  A    between atoms: O_13  and  C_14
REMARK    6  A    between atoms: C_14  and  C_15
REMARK    7  A    between atoms: C_18  and  C_19
REMARK    8  A    between atoms: C_20  and  C_21
REMARK    9  A    between atoms: C_24  and  O_25
REMARK   10  A    between atoms: C_26  and  O_27
REMARK                            x       y       z     vdW  Elec       q    Type
REMARK                         _______ _______ _______ _____ _____    ______ ____
ROOT
ATOM      1  C   UNL     1       5.884   4.847  16.817  0.00  0.00    +0.000 A 
ATOM      2  C   UNL     1       5.707   6.187  16.462  0.00  0.00    +0.000 A 
ATOM      3  C   UNL     1       6.540   7.175  16.996  0.00  0.00    +0.000 A 
ATOM      4  C   UNL     1       7.561   6.844  17.899  0.00  0.00    +0.000 A 
ATOM      5  C   UNL     1       7.755   5.499  18.229  0.00  0.00    +0.000 A 
ATOM      6  C   UNL     1       6.917   4.512  17.704  0.00  0.00    +0.000 A 
ENDROOT
BRANCH   4   7
ATOM      7  C   UNL     1       8.387   7.928  18.448  0.00  0.00    +0.000 C 
ATOM      8  C   UNL     1       8.230   9.230  18.152  0.00  0.00    +0.000 C 
BRANCH   8   9
ATOM      9  C   UNL     1       9.153  10.279  18.610  0.00  0.00    +0.000 A 
ATOM     10  C   UNL     1      10.046  10.861  17.694  0.00  0.00    +0.000 A 
ATOM     11  C   UNL     1      10.976  11.822  18.110  0.00  0.00    +0.000 A 
ATOM     12  C   UNL     1      11.018  12.190  19.449  0.00  0.00    +0.000 A 
ATOM     13  C   UNL     1      10.149  11.604  20.363  0.00  0.00    +0.000 A 
ATOM     14  C   UNL     1       9.226  10.651  19.959  0.00  0.00    +0.000 A 
BRANCH  12  15
ATOM     15  O   UNL     1      11.901  13.121  19.919  0.00  0.00    +0.000 OA
ATOM     16  H   UNL     1      11.963  13.017  20.884  0.00  0.00    +0.000 HD
ENDBRANCH  12  15
BRANCH  13  17
ATOM     17  O   UNL     1      10.203  11.954  21.682  0.00  0.00    +0.000 OA
ATOM     18  H   UNL     1      10.975  12.550  21.744  0.00  0.00    +0.000 HD
ENDBRANCH  13  17
ENDBRANCH   8   9
ENDBRANCH   4   7
BRANCH   1  19
ATOM     19  C   UNL     1       4.989   3.769  16.264  0.00  0.00    +0.000 C 
BRANCH  19  20
ATOM     20  O   UNL     1       4.404   3.083  17.375  0.00  0.00    +0.000 OA
BRANCH  20  22
ATOM     21  O   UNL     1       2.131   3.430  17.432  0.00  0.00    +0.000 OA
ATOM     22  C   UNL     1       3.257   3.601  17.883  0.00  0.00    +0.000 C 
BRANCH  22  23
ATOM     23  C   UNL     1       3.546   4.370  19.161  0.00  0.00    +0.000 C 
BRANCH  23  24
ATOM     24  N   UNL     1       3.189   5.766  19.015  0.00  0.00    +0.000 N 
ATOM     25  C   UNL     1       2.175   6.316  19.769  0.00  0.00    +0.000 C 
ATOM     26  O   UNL     1       1.573   5.702  20.642  0.00  0.00    +0.000 OA
ATOM     27  H   UNL     1       3.677   6.316  18.322  0.00  0.00    +0.000 HD
BRANCH  25  28
ATOM     28  C   UNL     1       1.857   7.743  19.504  0.00  0.00    +0.000 A 
ATOM     29  C   UNL     1       1.282   8.568  20.480  0.00  0.00    +0.000 A 
ATOM     30  C   UNL     1       0.976   9.895  20.176  0.00  0.00    +0.000 A 
ATOM     31  C   UNL     1       1.250  10.403  18.906  0.00  0.00    +0.000 A 
ATOM     32  C   UNL     1       1.847   9.594  17.940  0.00  0.00    +0.000 A 
ATOM     33  C   UNL     1       2.157   8.267  18.240  0.00  0.00    +0.000 A 
ENDBRANCH  25  28
ENDBRANCH  23  24
ENDBRANCH  22  23
ENDBRANCH  20  22
ENDBRANCH  19  20
ENDBRANCH   1  19
TORSDOF 10
ENDMDL
MODEL 4
REMARK VINA RESULT:      -8.5      1.146      1.482
REMARK  Name = 
REMARK  10 active torsions:
REMARK  status: ('A' for Active; 'I' for Inactive)
REMARK    1  A    between atoms: C_2  and  C_3
REMARK    2  A    between atoms: C_2  and  O_13
REMARK    3  A    between atoms: C_3  and  N_4
REMARK    4  A    between atoms: C_5  and  C_7
REMARK    5  A    between atoms: O_13  and  C_14
REMARK    6  A    between atoms: C_14  and  C_15
REMARK    7  A    between atoms: C_18  and  C_19
REMARK    8  A    between atoms: C_20  and  C_21
REMARK    9  A    between atoms: C_24  and  O_25
REMARK   10  A    between atoms: C_26  and  O_27
REMARK                            x       y       z     vdW  Elec       q    Type
REMARK                         _______ _______ _______ _____ _____    ______ ____
ROOT
ATOM      1  C   UNL     1       5.638   4.698  16.931  0.00  0.00    +0.000 A 
ATOM      2  C   UNL     1       5.078   5.879  16.433  0.00  0.00    +0.000 A 
ATOM      3  C   UNL     1       5.722   7.104  16.631  0.00  0.00    +0.000 A 
ATOM      4  C   UNL     1       6.933   7.174  17.335  0.00  0.00    +0.000 A 
ATOM      5  C   UNL     1       7.506   5.988  17.805  0.00  0.00    +0.000 A 
ATOM      6  C   UNL     1       6.859   4.765  17.616  0.00  0.00    +0.000 A 
ENDROOT
BRANCH   4   7
ATOM      7  C   UNL     1       7.550   8.492  17.534  0.00  0.00    +0.000 C 
ATOM      8  C   UNL     1       8.499   8.759  18.448  0.00  0.00    +0.000 C 
BRANCH   8   9
ATOM      9  C   UNL     1       9.003  10.114  18.718  0.00  0.00    +0.000 A 
ATOM     10  C   UNL     1       9.708  10.365  19.907  0.00  0.00    +0.000 A 
ATOM     11  C   UNL     1      10.151  11.655  20.220  0.00  0.00    +0.000 A 
ATOM     12  C   UNL     1       9.876  12.698  19.344  0.00  0.00    +0.000 A 
ATOM     13  C   UNL     1       9.163  12.459  18.174  0.00  0.00    +0.000 A 
ATOM     14  C   UNL     1       8.719  11.183  17.858  0.00  0.00    +0.000 A 
BRANCH  12  15
ATOM     15  O   UNL     1      10.280  13.980  19.590  0.00  0.00    +0.000 OA
ATOM     16  H   UNL     1      10.533  14.042  20.527  0.00  0.00    +0.000 HD
ENDBRANCH  12  15
BRANCH  13  17
ATOM     17  O   UNL     1       8.877  13.488  17.323  0.00  0.00    +0.000 OA
ATOM     18  H   UNL     1       8.028  13.846  17.649  0.00  0.00    +0.000 HD
ENDBRANCH  13  17
ENDBRANCH   8   9
ENDBRANCH   4   7
BRANCH   1  19
ATOM     19  C   UNL     1       4.953   3.370  16.740  0.00  0.00    +0.000 C 
BRANCH  19  20
ATOM     20  O   UNL     1       3.784   3.366  17.564  0.00  0.00    +0.000 OA
BRANCH  20  22
ATOM     21  O   UNL     1       3.710   1.225  18.399  0.00  0.00    +0.000 OA
ATOM     22  C   UNL     1       3.731   2.440  18.555  0.00  0.00    +0.000 C 
BRANCH  22  23
ATOM     23  C   UNL     1       3.787   3.117  19.914  0.00  0.00    +0.000 C 
BRANCH  23  24
ATOM     24  N   UNL     1       3.489   4.530  19.799  0.00  0.00    +0.000 N 
ATOM     25  C   UNL     1       2.196   4.989  19.925  0.00  0.00    +0.000 C 
ATOM     26  O   UNL     1       1.247   4.267  20.207  0.00  0.00    +0.000 OA
ATOM     27  H   UNL     1       4.247   5.164  19.590  0.00  0.00    +0.000 HD
BRANCH  25  28
ATOM     28  C   UNL     1       1.996   6.449  19.741  0.00  0.00    +0.000 A 
ATOM     29  C   UNL     1       1.420   7.250  20.736  0.00  0.00    +0.000 A 
ATOM     30  C   UNL     1       1.226   8.613  20.508  0.00  0.00    +0.000 A 
ATOM     31  C   UNL     1       1.614   9.180  19.293  0.00  0.00    +0.000 A 
ATOM     32  C   UNL     1       2.211   8.392  18.309  0.00  0.00    +0.000 A 
ATOM     33  C   UNL     1       2.409   7.029  18.535  0.00  0.00    +0.000 A 
ENDBRANCH  25  28
ENDBRANCH  23  24
ENDBRANCH  22  23
ENDBRANCH  20  22
ENDBRANCH  19  20
ENDBRANCH   1  19
TORSDOF 10
ENDMDL
MODEL 5
REMARK VINA RESULT:      -8.3      0.699      1.124
REMARK  Name = 
REMARK  10 active torsions:
REMARK  status: ('A' for Active; 'I' for Inactive)
REMARK    1  A    between atoms: C_2  and  C_3
REMARK    2  A    between atoms: C_2  and  O_13
REMARK    3  A    between atoms: C_3  and  N_4
REMARK    4  A    between atoms: C_5  and  C_7
REMARK    5  A    between atoms: O_13  and  C_14
REMARK    6  A    between atoms: C_14  and  C_15
REMARK    7  A    between atoms: C_18  and  C_19
REMARK    8  A    between atoms: C_20  and  C_21
REMARK    9  A    between atoms: C_24  and  O_25
REMARK   10  A    between atoms: C_26  and  O_27
REMARK                            x       y       z     vdW  Elec       q    Type
REMARK                         _______ _______ _______ _____ _____    ______ ____
ROOT
ATOM      1  C   UNL     1       6.204   5.080  17.265  0.00  0.00    +0.000 A 
ATOM      2  C   UNL     1       6.276   6.301  16.588  0.00  0.00    +0.000 A 
ATOM      3  C   UNL     1       7.094   7.328  17.071  0.00  0.00    +0.000 A 
ATOM      4  C   UNL     1       7.847   7.158  18.242  0.00  0.00    +0.000 A 
ATOM      5  C   UNL     1       7.796   5.925  18.899  0.00  0.00    +0.000 A 
ATOM      6  C   UNL     1       6.972   4.901  18.423  0.00  0.00    +0.000 A 
ENDROOT
BRANCH   4   7
ATOM      7  C   UNL     1       8.666   8.281  18.715  0.00  0.00    +0.000 C 
ATOM      8  C   UNL     1       8.583   9.537  18.244  0.00  0.00    +0.000 C 
BRANCH   8   9
ATOM      9  C   UNL     1       9.505  10.612  18.640  0.00  0.00    +0.000 A 
ATOM     10  C   UNL     1       9.365  11.212  19.903  0.00  0.00    +0.000 A 
ATOM     11  C   UNL     1      10.190  12.276  20.287  0.00  0.00    +0.000 A 
ATOM     12  C   UNL     1      11.149  12.746  19.398  0.00  0.00    +0.000 A 
ATOM     13  C   UNL     1      11.280  12.168  18.140  0.00  0.00    +0.000 A 
ATOM     14  C   UNL     1      10.465  11.115  17.751  0.00  0.00    +0.000 A 
BRANCH  12  15
ATOM     15  O   UNL     1      11.985  13.781  19.711  0.00  0.00    +0.000 OA
ATOM     16  H   UNL     1      12.469  13.543  20.520  0.00  0.00    +0.000 HD
ENDBRANCH  12  15
BRANCH  13  17
ATOM     17  O   UNL     1      12.210  12.643  17.261  0.00  0.00    +0.000 OA
ATOM     18  H   UNL     1      12.202  13.611  17.396  0.00  0.00    +0.000 HD
ENDBRANCH  13  17
ENDBRANCH   8   9
ENDBRANCH   4   7
BRANCH   1  19
ATOM     19  C   UNL     1       5.320   3.966  16.769  0.00  0.00    +0.000 C 
BRANCH  19  20
ATOM     20  O   UNL     1       3.993   4.489  16.651  0.00  0.00    +0.000 OA
BRANCH  20  22
ATOM     21  O   UNL     1       2.252   3.091  17.200  0.00  0.00    +0.000 OA
ATOM     22  C   UNL     1       3.052   3.974  17.482  0.00  0.00    +0.000 C 
BRANCH  22  23
ATOM     23  C   UNL     1       3.175   4.590  18.866  0.00  0.00    +0.000 C 
BRANCH  23  24
ATOM     24  N   UNL     1       2.818   5.994  18.839  0.00  0.00    +0.000 N 
ATOM     25  C   UNL     1       2.035   6.540  19.834  0.00  0.00    +0.000 C 
ATOM     26  O   UNL     1       1.660   5.914  20.818  0.00  0.00    +0.000 OA
ATOM     27  H   UNL     1       3.126   6.552  18.056  0.00  0.00    +0.000 HD
BRANCH  25  28
ATOM     28  C   UNL     1       1.687   7.976  19.683  0.00  0.00    +0.000 A 
ATOM     29  C   UNL     1       1.167   8.727  20.744  0.00  0.00    +0.000 A 
ATOM     30  C   UNL     1       0.828  10.067  20.548  0.00  0.00    +0.000 A 
ATOM     31  C   UNL     1       1.016  10.660  19.299  0.00  0.00    +0.000 A 
ATOM     32  C   UNL     1       1.558   9.923  18.247  0.00  0.00    +0.000 A 
ATOM     33  C   UNL     1       1.901   8.584  18.440  0.00  0.00    +0.000 A 
ENDBRANCH  25  28
ENDBRANCH  23  24
ENDBRANCH  22  23
ENDBRANCH  20  22
ENDBRANCH  19  20
ENDBRANCH   1  19
TORSDOF 10
ENDMDL
MODEL 6
REMARK VINA RESULT:      -8.2      1.314      1.869
REMARK  Name = 
REMARK  10 active torsions:
REMARK  status: ('A' for Active; 'I' for Inactive)
REMARK    1  A    between atoms: C_2  and  C_3
REMARK    2  A    between atoms: C_2  and  O_13
REMARK    3  A    between atoms: C_3  and  N_4
REMARK    4  A    between atoms: C_5  and  C_7
REMARK    5  A    between atoms: O_13  and  C_14
REMARK    6  A    between atoms: C_14  and  C_15
REMARK    7  A    between atoms: C_18  and  C_19
REMARK    8  A    between atoms: C_20  and  C_21
REMARK    9  A    between atoms: C_24  and  O_25
REMARK   10  A    between atoms: C_26  and  O_27
REMARK                            x       y       z     vdW  Elec       q    Type
REMARK                         _______ _______ _______ _____ _____    ______ ____
ROOT
ATOM      1  C   UNL     1       6.303   5.337  17.965  0.00  0.00    +0.000 A 
ATOM      2  C   UNL     1       5.859   6.403  17.177  0.00  0.00    +0.000 A 
ATOM      3  C   UNL     1       6.538   7.626  17.196  0.00  0.00    +0.000 A 
ATOM      4  C   UNL     1       7.667   7.809  18.007  0.00  0.00    +0.000 A 
ATOM      5  C   UNL     1       8.126   6.731  18.771  0.00  0.00    +0.000 A 
ATOM      6  C   UNL     1       7.444   5.512  18.760  0.00  0.00    +0.000 A 
ENDROOT
BRANCH   4   7
ATOM      7  C   UNL     1       8.322   9.124  18.007  0.00  0.00    +0.000 C 
ATOM      8  C   UNL     1       9.130   9.573  18.983  0.00  0.00    +0.000 C 
BRANCH   8   9
ATOM      9  C   UNL     1       9.666  10.942  19.023  0.00  0.00    +0.000 A 
ATOM     10  C   UNL     1      10.313  11.397  20.184  0.00  0.00    +0.000 A 
ATOM     11  C   UNL     1      10.782  12.713  20.275  0.00  0.00    +0.000 A 
ATOM     12  C   UNL     1      10.592  13.576  19.202  0.00  0.00    +0.000 A 
ATOM     13  C   UNL     1       9.937  13.136  18.057  0.00  0.00    +0.000 A 
ATOM     14  C   UNL     1       9.467  11.835  17.961  0.00  0.00    +0.000 A 
BRANCH  12  15
ATOM     15  O   UNL     1      11.027  14.872  19.227  0.00  0.00    +0.000 OA
ATOM     16  H   UNL     1      11.890  14.908  18.781  0.00  0.00    +0.000 HD
ENDBRANCH  12  15
BRANCH  13  17
ATOM     17  O   UNL     1       9.735  13.990  17.012  0.00  0.00    +0.000 OA
ATOM     18  H   UNL     1       9.052  14.612  17.333  0.00  0.00    +0.000 HD
ENDBRANCH  13  17
ENDBRANCH   8   9
ENDBRANCH   4   7
BRANCH   1  19
ATOM     19  C   UNL     1       5.579   4.016  17.968  0.00  0.00    +0.000 C 
BRANCH  19  20
ATOM     20  O   UNL     1       5.238   3.716  19.325  0.00  0.00    +0.000 OA
BRANCH  20  22
ATOM     21  O   UNL     1       3.954   1.844  18.960  0.00  0.00    +0.000 OA
ATOM     22  C   UNL     1       4.166   2.910  19.526  0.00  0.00    +0.000 C 
BRANCH  22  23
ATOM     23  C   UNL     1       3.283   3.469  20.629  0.00  0.00    +0.000 C 
BRANCH  23  24
ATOM     24  N   UNL     1       2.996   4.870  20.399  0.00  0.00    +0.000 N 
ATOM     25  C   UNL     1       2.289   5.270  19.286  0.00  0.00    +0.000 C 
ATOM     26  O   UNL     1       1.805   4.488  18.476  0.00  0.00    +0.000 OA
ATOM     27  H   UNL     1       3.358   5.548  21.055  0.00  0.00    +0.000 HD
BRANCH  25  28
ATOM     28  C   UNL     1       2.094   6.734  19.121  0.00  0.00    +0.000 A 
ATOM     29  C   UNL     1       2.337   7.381  17.902  0.00  0.00    +0.000 A 
ATOM     30  C   UNL     1       2.166   8.762  17.802  0.00  0.00    +0.000 A 
ATOM     31  C   UNL     1       1.745   9.497  18.911  0.00  0.00    +0.000 A 
ATOM     32  C   UNL     1       1.476   8.854  20.118  0.00  0.00    +0.000 A 
ATOM     33  C   UNL     1       1.643   7.472  20.222  0.00  0.00    +0.000 A 
ENDBRANCH  25  28
ENDBRANCH  23  24
ENDBRANCH  22  23
ENDBRANCH  20  22
ENDBRANCH  19  20
ENDBRANCH   1  19
TORSDOF 10
ENDMDL
MODEL 7
REMARK VINA RESULT:      -8.2      0.930      1.676
REMARK  Name = 
REMARK  10 active torsions:
REMARK  status: ('A' for Active; 'I' for Inactive)
REMARK    1  A    between atoms: C_2  and  C_3
REMARK    2  A    between atoms: C_2  and  O_13
REMARK    3  A    between atoms: C_3  and  N_4
REMARK    4  A    between atoms: C_5  and  C_7
REMARK    5  A    between atoms: O_13  and  C_14
REMARK    6  A    between atoms: C_14  and  C_15
REMARK    7  A    between atoms: C_18  and  C_19
REMARK    8  A    between atoms: C_20  and  C_21
REMARK    9  A    between atoms: C_24  and  O_25
REMARK   10  A    between atoms: C_26  and  O_27
REMARK                            x       y       z     vdW  Elec       q    Type
REMARK                         _______ _______ _______ _____ _____    ______ ____
ROOT
ATOM      1  C   UNL     1       5.879   4.624  17.014  0.00  0.00    +0.000 A 
ATOM      2  C   UNL     1       5.430   5.777  16.363  0.00  0.00    +0.000 A 
ATOM      3  C   UNL     1       6.066   7.004  16.582  0.00  0.00    +0.000 A 
ATOM      4  C   UNL     1       7.155   7.103  17.459  0.00  0.00    +0.000 A 
ATOM      5  C   UNL     1       7.621   5.942  18.085  0.00  0.00    +0.000 A 
ATOM      6  C   UNL     1       6.981   4.718  17.875  0.00  0.00    +0.000 A 
ENDROOT
BRANCH   4   7
ATOM      7  C   UNL     1       7.765   8.422  17.670  0.00  0.00    +0.000 C 
ATOM      8  C   UNL     1       8.604   8.722  18.676  0.00  0.00    +0.000 C 
BRANCH   8   9
ATOM      9  C   UNL     1       9.094  10.083  18.941  0.00  0.00    +0.000 A 
ATOM     10  C   UNL     1       9.396  10.932  17.862  0.00  0.00    +0.000 A 
ATOM     11  C   UNL     1       9.919  12.212  18.081  0.00  0.00    +0.000 A 
ATOM     12  C   UNL     1      10.149  12.637  19.383  0.00  0.00    +0.000 A 
ATOM     13  C   UNL     1       9.869  11.796  20.454  0.00  0.00    +0.000 A 
ATOM     14  C   UNL     1       9.353  10.525  20.246  0.00  0.00    +0.000 A 
BRANCH  12  15
ATOM     15  O   UNL     1      10.656  13.875  19.665  0.00  0.00    +0.000 OA
ATOM     16  H   UNL     1      11.613  13.855  19.493  0.00  0.00    +0.000 HD
ENDBRANCH  12  15
BRANCH  13  17
ATOM     17  O   UNL     1      10.112  12.208  21.733  0.00  0.00    +0.000 OA
ATOM     18  H   UNL     1      10.635  11.482  22.128  0.00  0.00    +0.000 HD
ENDBRANCH  13  17
ENDBRANCH   8   9
ENDBRANCH   4   7
BRANCH   1  19
ATOM     19  C   UNL     1       5.200   3.296  16.803  0.00  0.00    +0.000 C 
BRANCH  19  20
ATOM     20  O   UNL     1       3.860   3.414  17.290  0.00  0.00    +0.000 OA
BRANCH  20  22
ATOM     21  O   UNL     1       4.328   2.084  19.105  0.00  0.00    +0.000 OA
ATOM     22  C   UNL     1       3.587   2.839  18.488  0.00  0.00    +0.000 C 
BRANCH  22  23
ATOM     23  C   UNL     1       2.249   3.328  19.017  0.00  0.00    +0.000 C 
BRANCH  23  24
ATOM     24  N   UNL     1       2.079   4.743  18.758  0.00  0.00    +0.000 N 
ATOM     25  C   UNL     1       2.314   5.672  19.748  0.00  0.00    +0.000 C 
ATOM     26  O   UNL     1       2.742   5.383  20.859  0.00  0.00    +0.000 OA
ATOM     27  H   UNL     1       1.748   5.027  17.847  0.00  0.00    +0.000 HD
BRANCH  25  28
ATOM     28  C   UNL     1       2.060   7.092  19.391  0.00  0.00    +0.000 A 
ATOM     29  C   UNL     1       1.447   7.982  20.282  0.00  0.00    +0.000 A 
ATOM     30  C   UNL     1       1.204   9.300  19.893  0.00  0.00    +0.000 A 
ATOM     31  C   UNL     1       1.579   9.734  18.621  0.00  0.00    +0.000 A 
ATOM     32  C   UNL     1       2.214   8.859  17.740  0.00  0.00    +0.000 A 
ATOM     33  C   UNL     1       2.462   7.541  18.126  0.00  0.00    +0.000 A 
ENDBRANCH  25  28
ENDBRANCH  23  24
ENDBRANCH  22  23
ENDBRANCH  20  22
ENDBRANCH  19  20
ENDBRANCH   1  19
TORSDOF 10
ENDMDL
MODEL 8
REMARK VINA RESULT:      -8.2      1.259      1.586
REMARK  Name = 
REMARK  10 active torsions:
REMARK  status: ('A' for Active; 'I' for Inactive)
REMARK    1  A    between atoms: C_2  and  C_3
REMARK    2  A    between atoms: C_2  and  O_13
REMARK    3  A    between atoms: C_3  and  N_4
REMARK    4  A    between atoms: C_5  and  C_7
REMARK    5  A    between atoms: O_13  and  C_14
REMARK    6  A    between atoms: C_14  and  C_15
REMARK    7  A    between atoms: C_18  and  C_19
REMARK    8  A    between atoms: C_20  and  C_21
REMARK    9  A    between atoms: C_24  and  O_25
REMARK   10  A    between atoms: C_26  and  O_27
REMARK                            x       y       z     vdW  Elec       q    Type
REMARK                         _______ _______ _______ _____ _____    ______ ____
ROOT
ATOM      1  C   UNL     1       6.078   5.179  17.841  0.00  0.00    +0.000 A 
ATOM      2  C   UNL     1       7.177   5.345  18.689  0.00  0.00    +0.000 A 
ATOM      3  C   UNL     1       7.916   6.532  18.665  0.00  0.00    +0.000 A 
ATOM      4  C   UNL     1       7.575   7.573  17.788  0.00  0.00    +0.000 A 
ATOM      5  C   UNL     1       6.458   7.416  16.962  0.00  0.00    +0.000 A 
ATOM      6  C   UNL     1       5.725   6.227  16.979  0.00  0.00    +0.000 A 
ENDROOT
BRANCH   4   7
ATOM      7  C   UNL     1       8.404   8.785  17.788  0.00  0.00    +0.000 C 
ATOM      8  C   UNL     1       8.728   9.487  18.888  0.00  0.00    +0.000 C 
BRANCH   8   9
ATOM      9  C   UNL     1       9.446  10.770  18.845  0.00  0.00    +0.000 A 
ATOM     10  C   UNL     1      10.499  11.003  19.747  0.00  0.00    +0.000 A 
ATOM     11  C   UNL     1      11.164  12.234  19.771  0.00  0.00    +0.000 A 
ATOM     12  C   UNL     1      10.765  13.237  18.896  0.00  0.00    +0.000 A 
ATOM     13  C   UNL     1       9.713  13.019  18.013  0.00  0.00    +0.000 A 
ATOM     14  C   UNL     1       9.048  11.801  17.985  0.00  0.00    +0.000 A 
BRANCH  12  15
ATOM     15  O   UNL     1      11.374  14.461  18.867  0.00  0.00    +0.000 OA
ATOM     16  H   UNL     1      12.125  14.438  19.484  0.00  0.00    +0.000 HD
ENDBRANCH  12  15
BRANCH  13  17
ATOM     17  O   UNL     1       9.311  14.011  17.166  0.00  0.00    +0.000 OA
ATOM     18  H   UNL     1       8.452  13.700  16.817  0.00  0.00    +0.000 HD
ENDBRANCH  13  17
ENDBRANCH   8   9
ENDBRANCH   4   7
BRANCH   1  19
ATOM     19  C   UNL     1       5.278   3.903  17.842  0.00  0.00    +0.000 C 
BRANCH  19  20
ATOM     20  O   UNL     1       5.330   3.364  19.166  0.00  0.00    +0.000 OA
BRANCH  20  22
ATOM     21  O   UNL     1       4.028   1.470  19.230  0.00  0.00    +0.000 OA
ATOM     22  C   UNL     1       4.269   2.622  19.571  0.00  0.00    +0.000 C 
BRANCH  22  23
ATOM     23  C   UNL     1       3.443   3.390  20.589  0.00  0.00    +0.000 C 
BRANCH  23  24
ATOM     24  N   UNL     1       3.263   4.766  20.174  0.00  0.00    +0.000 N 
ATOM     25  C   UNL     1       2.018   5.356  20.214  0.00  0.00    +0.000 C 
ATOM     26  O   UNL     1       1.021   4.800  20.659  0.00  0.00    +0.000 OA
ATOM     27  H   UNL     1       4.065   5.269  19.821  0.00  0.00    +0.000 HD
BRANCH  25  28
ATOM     28  C   UNL     1       1.936   6.754  19.718  0.00  0.00    +0.000 A 
ATOM     29  C   UNL     1       2.464   7.132  18.477  0.00  0.00    +0.000 A 
ATOM     30  C   UNL     1       2.389   8.463  18.065  0.00  0.00    +0.000 A 
ATOM     31  C   UNL     1       1.779   9.415  18.884  0.00  0.00    +0.000 A 
ATOM     32  C   UNL     1       1.229   9.038  20.108  0.00  0.00    +0.000 A 
ATOM     33  C   UNL     1       1.300   7.708  20.522  0.00  0.00    +0.000 A 
ENDBRANCH  25  28
ENDBRANCH  23  24
ENDBRANCH  22  23
ENDBRANCH  20  22
ENDBRANCH  19  20
ENDBRANCH   1  19
TORSDOF 10
ENDMDL
MODEL 9
REMARK VINA RESULT:      -8.2      5.068      8.859
REMARK  Name = 
REMARK  10 active torsions:
REMARK  status: ('A' for Active; 'I' for Inactive)
REMARK    1  A    between atoms: C_2  and  C_3
REMARK    2  A    between atoms: C_2  and  O_13
REMARK    3  A    between atoms: C_3  and  N_4
REMARK    4  A    between atoms: C_5  and  C_7
REMARK    5  A    between atoms: O_13  and  C_14
REMARK    6  A    between atoms: C_14  and  C_15
REMARK    7  A    between atoms: C_18  and  C_19
REMARK    8  A    between atoms: C_20  and  C_21
REMARK    9  A    between atoms: C_24  and  O_25
REMARK   10  A    between atoms: C_26  and  O_27
REMARK                            x       y       z     vdW  Elec       q    Type
REMARK                         _______ _______ _______ _____ _____    ______ ____
ROOT
ATOM      1  C   UNL     1      -0.137  10.059  21.930  0.00  0.00    +0.000 A 
ATOM      2  C   UNL     1       0.367   8.774  22.153  0.00  0.00    +0.000 A 
ATOM      3  C   UNL     1       1.103   8.122  21.158  0.00  0.00    +0.000 A 
ATOM      4  C   UNL     1       1.342   8.737  19.921  0.00  0.00    +0.000 A 
ATOM      5  C   UNL     1       0.863  10.034  19.712  0.00  0.00    +0.000 A 
ATOM      6  C   UNL     1       0.119  10.683  20.701  0.00  0.00    +0.000 A 
ENDROOT
BRANCH   4   7
ATOM      7  C   UNL     1       2.098   7.992  18.905  0.00  0.00    +0.000 C 
ATOM      8  C   UNL     1       2.444   6.697  19.009  0.00  0.00    +0.000 C 
BRANCH   8   9
ATOM      9  C   UNL     1       3.313   6.012  18.042  0.00  0.00    +0.000 A 
ATOM     10  C   UNL     1       3.152   4.634  17.822  0.00  0.00    +0.000 A 
ATOM     11  C   UNL     1       4.001   3.942  16.951  0.00  0.00    +0.000 A 
ATOM     12  C   UNL     1       5.021   4.632  16.307  0.00  0.00    +0.000 A 
ATOM     13  C   UNL     1       5.197   5.993  16.533  0.00  0.00    +0.000 A 
ATOM     14  C   UNL     1       4.360   6.685  17.397  0.00  0.00    +0.000 A 
BRANCH  12  15
ATOM     15  O   UNL     1       5.883   4.016  15.444  0.00  0.00    +0.000 OA
ATOM     16  H   UNL     1       6.693   3.794  15.934  0.00  0.00    +0.000 HD
ENDBRANCH  12  15
BRANCH  13  17
ATOM     17  O   UNL     1       6.210   6.666  15.914  0.00  0.00    +0.000 OA
ATOM     18  H   UNL     1       6.005   7.610  16.068  0.00  0.00    +0.000 HD
ENDBRANCH  13  17
ENDBRANCH   8   9
ENDBRANCH   4   7
BRANCH   1  19
ATOM     19  C   UNL     1      -0.942  10.774  22.983  0.00  0.00    +0.000 C 
BRANCH  19  20
ATOM     20  O   UNL     1      -1.349  12.031  22.434  0.00  0.00    +0.000 OA
BRANCH  20  22
ATOM     21  O   UNL     1      -3.426  12.033  23.421  0.00  0.00    +0.000 OA
ATOM     22  C   UNL     1      -2.669  12.337  22.507  0.00  0.00    +0.000 C 
BRANCH  22  23
ATOM     23  C   UNL     1      -3.079  13.195  21.321  0.00  0.00    +0.000 C 
BRANCH  23  24
ATOM     24  N   UNL     1      -2.808  12.512  20.073  0.00  0.00    +0.000 N 
ATOM     25  C   UNL     1      -3.840  12.043  19.289  0.00  0.00    +0.000 C 
ATOM     26  O   UNL     1      -5.023  12.229  19.548  0.00  0.00    +0.000 OA
ATOM     27  H   UNL     1      -1.845  12.358  19.810  0.00  0.00    +0.000 HD
BRANCH  25  28
ATOM     28  C   UNL     1      -3.450  11.315  18.055  0.00  0.00    +0.000 A 
ATOM     29  C   UNL     1      -2.345  10.454  18.020  0.00  0.00    +0.000 A 
ATOM     30  C   UNL     1      -2.000   9.812  16.830  0.00  0.00    +0.000 A 
ATOM     31  C   UNL     1      -2.760  10.019  15.678  0.00  0.00    +0.000 A 
ATOM     32  C   UNL     1      -3.876  10.853  15.715  0.00  0.00    +0.000 A 
ATOM     33  C   UNL     1      -4.226  11.495  16.904  0.00  0.00    +0.000 A 
ENDBRANCH  25  28
ENDBRANCH  23  24
ENDBRANCH  22  23
ENDBRANCH  20  22
ENDBRANCH  19  20
ENDBRANCH   1  19
TORSDOF 10
ENDMDL
