MODEL 1
REMARK VINA RESULT:      -9.2      0.000      0.000
REMARK  Name = 
REMARK  3 active torsions:
REMARK  status: ('A' for Active; 'I' for Inactive)
REMARK    1  A    between atoms: C_1  and  N_2
REMARK    2  A    between atoms: C_11  and  O_12
REMARK    3  A    between atoms: O_12  and  C_13
REMARK                            x       y       z     vdW  Elec       q    Type
REMARK                         _______ _______ _______ _____ _____    ______ ____
ROOT
ATOM      1  C   UNL     1       0.909   4.512  20.447  0.00  0.00    +0.000 C 
ATOM      2  N   UNL     1       0.970   3.275  19.677  0.00  0.00    +0.000 NA
ATOM      3  C   UNL     1       1.398   3.522  18.290  0.00  0.00    +0.000 C 
ATOM      4  C   UNL     1       2.561   2.577  17.995  0.00  0.00    +0.000 C 
ATOM      5  C   UNL     1       3.747   3.241  17.292  0.00  0.00    +0.000 C 
ATOM      6  N   UNL     1       4.737   3.427  18.344  0.00  0.00    +0.000 N 
ATOM      7  C   UNL     1       5.705   4.384  18.175  0.00  0.00    +0.000 A 
ATOM      8  N   UNL     1       6.349   4.875  19.245  0.00  0.00    +0.000 NA
ATOM      9  C   UNL     1       7.325   5.777  19.025  0.00  0.00    +0.000 A 
ATOM     10  C   UNL     1       7.709   6.190  17.776  0.00  0.00    +0.000 A 
ATOM     11  C   UNL     1       7.016   5.607  16.749  0.00  0.00    +0.000 A 
ATOM     12  N   UNL     1       5.999   4.749  16.926  0.00  0.00    +0.000 NA
ATOM     13  C   UNL     1       4.195   3.173  19.659  0.00  0.00    +0.000 C 
ATOM     14  C   UNL     1       3.082   2.171  19.365  0.00  0.00    +0.000 C 
ATOM     15  C   UNL     1       1.874   2.280  20.272  0.00  0.00    +0.000 C 
ENDROOT
BRANCH  11  16
ATOM     16  O   UNL     1       7.404   5.927  15.453  0.00  0.00    +0.000 OA
BRANCH  16  17
ATOM     17  C   UNL     1       6.916   5.128  14.440  0.00  0.00    +0.000 A 
ATOM     18  C   UNL     1       7.688   5.028  13.283  0.00  0.00    +0.000 A 
ATOM     19  C   UNL     1       7.259   4.222  12.226  0.00  0.00    +0.000 A 
ATOM     20  C   UNL     1       6.064   3.510  12.328  0.00  0.00    +0.000 A 
ATOM     21  C   UNL     1       5.300   3.591  13.492  0.00  0.00    +0.000 A 
ATOM     22  C   UNL     1       5.734   4.384  14.553  0.00  0.00    +0.000 A 
ENDBRANCH  16  17
ENDBRANCH  11  16
TORSDOF 2
ENDMDL
MODEL 2
REMARK VINA RESULT:      -9.0      0.141      1.037
REMARK  Name = 
REMARK  3 active torsions:
REMARK  status: ('A' for Active; 'I' for Inactive)
REMARK    1  A    between atoms: C_1  and  N_2
REMARK    2  A    between atoms: C_11  and  O_12
REMARK    3  A    between atoms: O_12  and  C_13
REMARK                            x       y       z     vdW  Elec       q    Type
REMARK                         _______ _______ _______ _____ _____    ______ ____
ROOT
ATOM      1  C   UNL     1       0.877   4.606  20.548  0.00  0.00    +0.000 C 
ATOM      2  N   UNL     1       0.875   3.402  19.724  0.00  0.00    +0.000 NA
ATOM      3  C   UNL     1       1.293   3.691  18.343  0.00  0.00    +0.000 C 
ATOM      4  C   UNL     1       2.411   2.712  17.989  0.00  0.00    +0.000 C 
ATOM      5  C   UNL     1       3.614   3.356  17.296  0.00  0.00    +0.000 C 
ATOM      6  N   UNL     1       4.626   3.456  18.339  0.00  0.00    +0.000 N 
ATOM      7  C   UNL     1       5.630   4.379  18.195  0.00  0.00    +0.000 A 
ATOM      8  N   UNL     1       6.310   4.796  19.274  0.00  0.00    +0.000 NA
ATOM      9  C   UNL     1       7.319   5.666  19.077  0.00  0.00    +0.000 A 
ATOM     10  C   UNL     1       7.702   6.116  17.841  0.00  0.00    +0.000 A 
ATOM     11  C   UNL     1       6.971   5.607  16.801  0.00  0.00    +0.000 A 
ATOM     12  N   UNL     1       5.922   4.785  16.958  0.00  0.00    +0.000 NA
ATOM     13  C   UNL     1       4.093   3.168  19.651  0.00  0.00    +0.000 C 
ATOM     14  C   UNL     1       2.935   2.226  19.332  0.00  0.00    +0.000 C 
ATOM     15  C   UNL     1       1.746   2.346  20.262  0.00  0.00    +0.000 C 
ENDROOT
BRANCH  11  16
ATOM     16  O   UNL     1       7.353   5.967  15.514  0.00  0.00    +0.000 OA
BRANCH  16  17
ATOM     17  C   UNL     1       6.938   5.145  14.487  0.00  0.00    +0.000 A 
ATOM     18  C   UNL     1       5.683   4.550  14.618  0.00  0.00    +0.000 A 
ATOM     19  C   UNL     1       5.196   3.720  13.606  0.00  0.00    +0.000 A 
ATOM     20  C   UNL     1       5.958   3.490  12.460  0.00  0.00    +0.000 A 
ATOM     21  C   UNL     1       7.204   4.100  12.317  0.00  0.00    +0.000 A 
ATOM     22  C   UNL     1       7.685   4.940  13.320  0.00  0.00    +0.000 A 
ENDBRANCH  16  17
ENDBRANCH  11  16
TORSDOF 2
ENDMDL
MODEL 3
REMARK VINA RESULT:      -8.5      1.434      1.870
REMARK  Name = 
REMARK  3 active torsions:
REMARK  status: ('A' for Active; 'I' for Inactive)
REMARK    1  A    between atoms: C_1  and  N_2
REMARK    2  A    between atoms: C_11  and  O_12
REMARK    3  A    between atoms: O_12  and  C_13
REMARK                            x       y       z     vdW  Elec       q    Type
REMARK                         _______ _______ _______ _____ _____    ______ ____
ROOT
ATOM      1  C   UNL     1       0.301   2.522  19.111  0.00  0.00    +0.000 C 
ATOM      2  N   UNL     1       1.318   2.085  20.061  0.00  0.00    +0.000 NA
ATOM      3  C   UNL     1       2.575   1.730  19.383  0.00  0.00    +0.000 C 
ATOM      4  C   UNL     1       3.701   2.496  20.074  0.00  0.00    +0.000 C 
ATOM      5  C   UNL     1       4.683   3.171  19.115  0.00  0.00    +0.000 C 
ATOM      6  N   UNL     1       4.305   4.578  19.135  0.00  0.00    +0.000 N 
ATOM      7  C   UNL     1       4.659   5.370  18.072  0.00  0.00    +0.000 A 
ATOM      8  N   UNL     1       3.994   6.512  17.844  0.00  0.00    +0.000 NA
ATOM      9  C   UNL     1       4.410   7.281  16.819  0.00  0.00    +0.000 A 
ATOM     10  C   UNL     1       5.485   6.972  16.027  0.00  0.00    +0.000 A 
ATOM     11  C   UNL     1       6.118   5.804  16.360  0.00  0.00    +0.000 A 
ATOM     12  N   UNL     1       5.701   4.982  17.336  0.00  0.00    +0.000 NA
ATOM     13  C   UNL     1       3.047   4.798  19.811  0.00  0.00    +0.000 C 
ATOM     14  C   UNL     1       3.000   3.635  20.799  0.00  0.00    +0.000 C 
ATOM     15  C   UNL     1       1.612   3.100  21.083  0.00  0.00    +0.000 C 
ENDROOT
BRANCH  11  16
ATOM     16  O   UNL     1       7.259   5.468  15.642  0.00  0.00    +0.000 OA
BRANCH  16  17
ATOM     17  C   UNL     1       7.070   4.930  14.386  0.00  0.00    +0.000 A 
ATOM     18  C   UNL     1       7.854   5.441  13.352  0.00  0.00    +0.000 A 
ATOM     19  C   UNL     1       7.724   4.928  12.059  0.00  0.00    +0.000 A 
ATOM     20  C   UNL     1       6.817   3.901  11.802  0.00  0.00    +0.000 A 
ATOM     21  C   UNL     1       6.047   3.373  12.837  0.00  0.00    +0.000 A 
ATOM     22  C   UNL     1       6.186   3.874  14.130  0.00  0.00    +0.000 A 
ENDBRANCH  16  17
ENDBRANCH  11  16
TORSDOF 2
ENDMDL
MODEL 4
REMARK VINA RESULT:      -8.5      1.453      2.145
REMARK  Name = 
REMARK  3 active torsions:
REMARK  status: ('A' for Active; 'I' for Inactive)
REMARK    1  A    between atoms: C_1  and  N_2
REMARK    2  A    between atoms: C_11  and  O_12
REMARK    3  A    between atoms: O_12  and  C_13
REMARK                            x       y       z     vdW  Elec       q    Type
REMARK                         _______ _______ _______ _____ _____    ______ ____
ROOT
ATOM      1  C   UNL     1       0.368   2.577  19.236  0.00  0.00    +0.000 C 
ATOM      2  N   UNL     1       1.385   2.207  20.212  0.00  0.00    +0.000 NA
ATOM      3  C   UNL     1       2.653   1.839  19.561  0.00  0.00    +0.000 C 
ATOM      4  C   UNL     1       3.761   2.658  20.219  0.00  0.00    +0.000 C 
ATOM      5  C   UNL     1       4.738   3.300  19.233  0.00  0.00    +0.000 C 
ATOM      6  N   UNL     1       4.336   4.700  19.178  0.00  0.00    +0.000 N 
ATOM      7  C   UNL     1       4.684   5.442  18.079  0.00  0.00    +0.000 A 
ATOM      8  N   UNL     1       4.002   6.560  17.788  0.00  0.00    +0.000 NA
ATOM      9  C   UNL     1       4.412   7.282  16.728  0.00  0.00    +0.000 A 
ATOM     10  C   UNL     1       5.496   6.952  15.959  0.00  0.00    +0.000 A 
ATOM     11  C   UNL     1       6.147   5.814  16.356  0.00  0.00    +0.000 A 
ATOM     12  N   UNL     1       5.738   5.035  17.369  0.00  0.00    +0.000 NA
ATOM     13  C   UNL     1       3.070   4.932  19.835  0.00  0.00    +0.000 C 
ATOM     14  C   UNL     1       3.036   3.821  20.880  0.00  0.00    +0.000 C 
ATOM     15  C   UNL     1       1.655   3.277  21.183  0.00  0.00    +0.000 C 
ENDROOT
BRANCH  11  16
ATOM     16  O   UNL     1       7.299   5.461  15.663  0.00  0.00    +0.000 OA
BRANCH  16  17
ATOM     17  C   UNL     1       7.129   4.926  14.402  0.00  0.00    +0.000 A 
ATOM     18  C   UNL     1       6.170   3.923  14.262  0.00  0.00    +0.000 A 
ATOM     19  C   UNL     1       5.938   3.351  13.009  0.00  0.00    +0.000 A 
ATOM     20  C   UNL     1       6.657   3.786  11.896  0.00  0.00    +0.000 A 
ATOM     21  C   UNL     1       7.602   4.802  12.029  0.00  0.00    +0.000 A 
ATOM     22  C   UNL     1       7.824   5.385  13.276  0.00  0.00    +0.000 A 
ENDBRANCH  16  17
ENDBRANCH  11  16
TORSDOF 2
ENDMDL
MODEL 5
REMARK VINA RESULT:      -8.5      5.238      7.660
REMARK  Name = 
REMARK  3 active torsions:
REMARK  status: ('A' for Active; 'I' for Inactive)
REMARK    1  A    between atoms: C_1  and  N_2
REMARK    2  A    between atoms: C_11  and  O_12
REMARK    3  A    between atoms: O_12  and  C_13
REMARK                            x       y       z     vdW  Elec       q    Type
REMARK                         _______ _______ _______ _____ _____    ______ ____
ROOT
ATOM      1  C   UNL     1       1.344   2.403  19.076  0.00  0.00    +0.000 C 
ATOM      2  N   UNL     1       2.530   2.798  18.324  0.00  0.00    +0.000 NA
ATOM      3  C   UNL     1       2.257   3.949  17.449  0.00  0.00    +0.000 C 
ATOM      4  C   UNL     1       3.323   5.004  17.734  0.00  0.00    +0.000 C 
ATOM      5  C   UNL     1       2.776   6.424  17.892  0.00  0.00    +0.000 C 
ATOM      6  N   UNL     1       2.782   6.660  19.330  0.00  0.00    +0.000 N 
ATOM      7  C   UNL     1       1.948   7.620  19.843  0.00  0.00    +0.000 A 
ATOM      8  N   UNL     1       1.609   7.583  21.141  0.00  0.00    +0.000 NA
ATOM      9  C   UNL     1       0.828   8.575  21.610  0.00  0.00    +0.000 A 
ATOM     10  C   UNL     1       0.394   9.624  20.844  0.00  0.00    +0.000 A 
ATOM     11  C   UNL     1       0.820   9.592  19.543  0.00  0.00    +0.000 A 
ATOM     12  N   UNL     1       1.550   8.593  19.021  0.00  0.00    +0.000 NA
ATOM     13  C   UNL     1       3.043   5.454  20.083  0.00  0.00    +0.000 C 
ATOM     14  C   UNL     1       3.875   4.632  19.102  0.00  0.00    +0.000 C 
ATOM     15  C   UNL     1       3.666   3.135  19.194  0.00  0.00    +0.000 C 
ENDROOT
BRANCH  11  16
ATOM     16  O   UNL     1       0.474  10.664  18.729  0.00  0.00    +0.000 OA
BRANCH  16  17
ATOM     17  C   UNL     1      -0.856  10.782  18.384  0.00  0.00    +0.000 A 
ATOM     18  C   UNL     1      -1.350   9.880  17.442  0.00  0.00    +0.000 A 
ATOM     19  C   UNL     1      -2.693   9.936  17.062  0.00  0.00    +0.000 A 
ATOM     20  C   UNL     1      -3.543  10.885  17.628  0.00  0.00    +0.000 A 
ATOM     21  C   UNL     1      -3.058  11.774  18.585  0.00  0.00    +0.000 A 
ATOM     22  C   UNL     1      -1.721  11.711  18.977  0.00  0.00    +0.000 A 
ENDBRANCH  16  17
ENDBRANCH  11  16
TORSDOF 2
ENDMDL
MODEL 6
REMARK VINA RESULT:      -8.4      5.086      7.503
REMARK  Name = 
REMARK  3 active torsions:
REMARK  status: ('A' for Active; 'I' for Inactive)
REMARK    1  A    between atoms: C_1  and  N_2
REMARK    2  A    between atoms: C_11  and  O_12
REMARK    3  A    between atoms: O_12  and  C_13
REMARK                            x       y       z     vdW  Elec       q    Type
REMARK                         _______ _______ _______ _____ _____    ______ ____
ROOT
ATOM      1  C   UNL     1       1.690   2.124  19.053  0.00  0.00    +0.000 C 
ATOM      2  N   UNL     1       2.878   2.520  18.305  0.00  0.00    +0.000 NA
ATOM      3  C   UNL     1       2.595   3.643  17.395  0.00  0.00    +0.000 C 
ATOM      4  C   UNL     1       3.639   4.724  17.665  0.00  0.00    +0.000 C 
ATOM      5  C   UNL     1       3.065   6.137  17.779  0.00  0.00    +0.000 C 
ATOM      6  N   UNL     1       3.050   6.412  19.210  0.00  0.00    +0.000 N 
ATOM      7  C   UNL     1       2.193   7.370  19.687  0.00  0.00    +0.000 A 
ATOM      8  N   UNL     1       1.839   7.361  20.981  0.00  0.00    +0.000 NA
ATOM      9  C   UNL     1       1.035   8.351  21.414  0.00  0.00    +0.000 A 
ATOM     10  C   UNL     1       0.592   9.372  20.616  0.00  0.00    +0.000 A 
ATOM     11  C   UNL     1       1.034   9.312  19.321  0.00  0.00    +0.000 A 
ATOM     12  N   UNL     1       1.787   8.313  18.835  0.00  0.00    +0.000 NA
ATOM     13  C   UNL     1       3.323   5.231  19.997  0.00  0.00    +0.000 C 
ATOM     14  C   UNL     1       4.181   4.398  19.049  0.00  0.00    +0.000 C 
ATOM     15  C   UNL     1       3.998   2.900  19.178  0.00  0.00    +0.000 C 
ENDROOT
BRANCH  11  16
ATOM     16  O   UNL     1       0.680  10.356  18.475  0.00  0.00    +0.000 OA
BRANCH  16  17
ATOM     17  C   UNL     1      -0.668  10.546  18.248  0.00  0.00    +0.000 A 
ATOM     18  C   UNL     1      -1.267  11.643  18.866  0.00  0.00    +0.000 A 
ATOM     19  C   UNL     1      -2.625  11.900  18.664  0.00  0.00    +0.000 A 
ATOM     20  C   UNL     1      -3.382  11.068  17.840  0.00  0.00    +0.000 A 
ATOM     21  C   UNL     1      -2.781   9.982  17.204  0.00  0.00    +0.000 A 
ATOM     22  C   UNL     1      -1.422   9.732  17.392  0.00  0.00    +0.000 A 
ENDBRANCH  16  17
ENDBRANCH  11  16
TORSDOF 2
ENDMDL
MODEL 7
REMARK VINA RESULT:      -8.4      1.240      1.912
REMARK  Name = 
REMARK  3 active torsions:
REMARK  status: ('A' for Active; 'I' for Inactive)
REMARK    1  A    between atoms: C_1  and  N_2
REMARK    2  A    between atoms: C_11  and  O_12
REMARK    3  A    between atoms: O_12  and  C_13
REMARK                            x       y       z     vdW  Elec       q    Type
REMARK                         _______ _______ _______ _____ _____    ______ ____
ROOT
ATOM      1  C   UNL     1       1.843   4.922  21.073  0.00  0.00    +0.000 C 
ATOM      2  N   UNL     1       1.305   3.740  20.410  0.00  0.00    +0.000 NA
ATOM      3  C   UNL     1       1.164   3.950  18.960  0.00  0.00    +0.000 C 
ATOM      4  C   UNL     1       1.860   2.785  18.260  0.00  0.00    +0.000 C 
ATOM      5  C   UNL     1       2.764   3.201  17.097  0.00  0.00    +0.000 C 
ATOM      6  N   UNL     1       4.116   3.113  17.635  0.00  0.00    +0.000 N 
ATOM      7  C   UNL     1       5.112   3.839  17.034  0.00  0.00    +0.000 A 
ATOM      8  N   UNL     1       6.232   4.124  17.716  0.00  0.00    +0.000 NA
ATOM      9  C   UNL     1       7.202   4.796  17.067  0.00  0.00    +0.000 A 
ATOM     10  C   UNL     1       7.116   5.171  15.752  0.00  0.00    +0.000 A 
ATOM     11  C   UNL     1       5.951   4.804  15.133  0.00  0.00    +0.000 A 
ATOM     12  N   UNL     1       4.936   4.187  15.758  0.00  0.00    +0.000 NA
ATOM     13  C   UNL     1       4.124   2.926  19.068  0.00  0.00    +0.000 C 
ATOM     14  C   UNL     1       2.798   2.210  19.311  0.00  0.00    +0.000 C 
ATOM     15  C   UNL     1       2.130   2.543  20.629  0.00  0.00    +0.000 C 
ENDROOT
BRANCH  11  16
ATOM     16  O   UNL     1       5.829   5.091  13.779  0.00  0.00    +0.000 OA
BRANCH  16  17
ATOM     17  C   UNL     1       5.961   4.033  12.903  0.00  0.00    +0.000 A 
ATOM     18  C   UNL     1       4.786   3.479  12.395  0.00  0.00    +0.000 A 
ATOM     19  C   UNL     1       4.851   2.416  11.491  0.00  0.00    +0.000 A 
ATOM     20  C   UNL     1       6.088   1.913  11.088  0.00  0.00    +0.000 A 
ATOM     21  C   UNL     1       7.264   2.478  11.578  0.00  0.00    +0.000 A 
ATOM     22  C   UNL     1       7.202   3.549  12.469  0.00  0.00    +0.000 A 
ENDBRANCH  16  17
ENDBRANCH  11  16
TORSDOF 2
ENDMDL
MODEL 8
REMARK VINA RESULT:      -8.2      1.245      1.689
REMARK  Name = 
REMARK  3 active torsions:
REMARK  status: ('A' for Active; 'I' for Inactive)
REMARK    1  A    between atoms: C_1  and  N_2
REMARK    2  A    between atoms: C_11  and  O_12
REMARK    3  A    between atoms: O_12  and  C_13
REMARK                            x       y       z     vdW  Elec       q    Type
REMARK                         _______ _______ _______ _____ _____    ______ ____
ROOT
ATOM      1  C   UNL     1       1.870   4.927  21.054  0.00  0.00    +0.000 C 
ATOM      2  N   UNL     1       1.322   3.751  20.388  0.00  0.00    +0.000 NA
ATOM      3  C   UNL     1       1.173   3.969  18.940  0.00  0.00    +0.000 C 
ATOM      4  C   UNL     1       1.860   2.805  18.229  0.00  0.00    +0.000 C 
ATOM      5  C   UNL     1       2.758   3.222  17.063  0.00  0.00    +0.000 C 
ATOM      6  N   UNL     1       4.112   3.126  17.592  0.00  0.00    +0.000 N 
ATOM      7  C   UNL     1       5.108   3.850  16.988  0.00  0.00    +0.000 A 
ATOM      8  N   UNL     1       6.233   4.126  17.665  0.00  0.00    +0.000 NA
ATOM      9  C   UNL     1       7.203   4.797  17.014  0.00  0.00    +0.000 A 
ATOM     10  C   UNL     1       7.111   5.179  15.701  0.00  0.00    +0.000 A 
ATOM     11  C   UNL     1       5.940   4.821  15.088  0.00  0.00    +0.000 A 
ATOM     12  N   UNL     1       4.926   4.205  15.715  0.00  0.00    +0.000 NA
ATOM     13  C   UNL     1       4.129   2.930  19.024  0.00  0.00    +0.000 C 
ATOM     14  C   UNL     1       2.801   2.220  19.271  0.00  0.00    +0.000 C 
ATOM     15  C   UNL     1       2.143   2.549  20.595  0.00  0.00    +0.000 C 
ENDROOT
BRANCH  11  16
ATOM     16  O   UNL     1       5.811   5.115  13.736  0.00  0.00    +0.000 OA
BRANCH  16  17
ATOM     17  C   UNL     1       5.926   4.060  12.854  0.00  0.00    +0.000 A 
ATOM     18  C   UNL     1       7.215   3.678  12.486  0.00  0.00    +0.000 A 
ATOM     19  C   UNL     1       7.402   2.607  11.610  0.00  0.00    +0.000 A 
ATOM     20  C   UNL     1       6.301   1.913  11.108  0.00  0.00    +0.000 A 
ATOM     21  C   UNL     1       5.011   2.279  11.489  0.00  0.00    +0.000 A 
ATOM     22  C   UNL     1       4.824   3.339  12.376  0.00  0.00    +0.000 A 
ENDBRANCH  16  17
ENDBRANCH  11  16
TORSDOF 2
ENDMDL
MODEL 9
REMARK VINA RESULT:      -7.8      5.358      7.588
REMARK  Name = 
REMARK  3 active torsions:
REMARK  status: ('A' for Active; 'I' for Inactive)
REMARK    1  A    between atoms: C_1  and  N_2
REMARK    2  A    between atoms: C_11  and  O_12
REMARK    3  A    between atoms: O_12  and  C_13
REMARK                            x       y       z     vdW  Elec       q    Type
REMARK                         _______ _______ _______ _____ _____    ______ ____
ROOT
ATOM      1  C   UNL     1      -2.338  10.981  16.771  0.00  0.00    +0.000 C 
ATOM      2  N   UNL     1      -2.186  11.545  18.107  0.00  0.00    +0.000 NA
ATOM      3  C   UNL     1      -2.058  10.493  19.128  0.00  0.00    +0.000 C 
ATOM      4  C   UNL     1      -0.810  10.804  19.952  0.00  0.00    +0.000 C 
ATOM      5  C   UNL     1       0.094   9.596  20.204  0.00  0.00    +0.000 C 
ATOM      6  N   UNL     1       1.200   9.766  19.272  0.00  0.00    +0.000 N 
ATOM      7  C   UNL     1       1.931   8.663  18.909  0.00  0.00    +0.000 A 
ATOM      8  N   UNL     1       2.650   8.685  17.776  0.00  0.00    +0.000 NA
ATOM      9  C   UNL     1       3.390   7.597  17.488  0.00  0.00    +0.000 A 
ATOM     10  C   UNL     1       3.469   6.496  18.300  0.00  0.00    +0.000 A 
ATOM     11  C   UNL     1       2.728   6.584  19.448  0.00  0.00    +0.000 A 
ATOM     12  N   UNL     1       1.932   7.623  19.745  0.00  0.00    +0.000 NA
ATOM     13  C   UNL     1       0.950  10.814  18.309  0.00  0.00    +0.000 C 
ATOM     14  C   UNL     1       0.007  11.739  19.073  0.00  0.00    +0.000 C 
ATOM     15  C   UNL     1      -1.025  12.441  18.215  0.00  0.00    +0.000 C 
ENDROOT
BRANCH  11  16
ATOM     16  O   UNL     1       2.820   5.531  20.350  0.00  0.00    +0.000 OA
BRANCH  16  17
ATOM     17  C   UNL     1       2.486   4.277  19.882  0.00  0.00    +0.000 A 
ATOM     18  C   UNL     1       1.127   3.987  19.760  0.00  0.00    +0.000 A 
ATOM     19  C   UNL     1       0.721   2.740  19.277  0.00  0.00    +0.000 A 
ATOM     20  C   UNL     1       1.672   1.789  18.908  0.00  0.00    +0.000 A 
ATOM     21  C   UNL     1       3.031   2.084  19.009  0.00  0.00    +0.000 A 
ATOM     22  C   UNL     1       3.437   3.332  19.477  0.00  0.00    +0.000 A 
ENDBRANCH  16  17
ENDBRANCH  11  16
TORSDOF 2
ENDMDL
