MODEL 1
REMARK VINA RESULT:      -8.5      0.000      0.000
REMARK  Name = 
REMARK  10 active torsions:
REMARK  status: ('A' for Active; 'I' for Inactive)
REMARK    1  A    between atoms: C_1  and  C_2
REMARK    2  A    between atoms: C_9  and  O_10
REMARK    3  A    between atoms: O_10  and  C_11
REMARK    4  A    between atoms: C_11  and  C_12
REMARK    5  A    between atoms: C_12  and  C_13
REMARK    6  A    between atoms: C_13  and  C_14
REMARK    7  A    between atoms: C_14  and  C_15
REMARK    8  A    between atoms: C_15  and  O_16
REMARK    9  A    between atoms: O_16  and  C_17
REMARK   10  A    between atoms: C_24  and  C_25
REMARK                            x       y       z     vdW  Elec       q    Type
REMARK                         _______ _______ _______ _____ _____    ______ ____
ROOT
ATOM      1  C   UNL     1       1.445   2.841  19.351  0.00  0.00    +0.000 C 
ENDROOT
BRANCH   1   2
ATOM      2  C   UNL     1       1.697   3.595  20.665  0.00  0.00    +0.000 C 
BRANCH   2   3
ATOM      3  C   UNL     1       1.203   5.027  20.534  0.00  0.00    +0.000 C 
BRANCH   3   4
ATOM      4  O   UNL     1       2.282   5.961  20.583  0.00  0.00    +0.000 OA
BRANCH   4  13
ATOM      5  C   UNL     1      -0.240   9.559  23.216  0.00  0.00    +0.000 C 
ATOM      6  C   UNL     1       0.294   9.574  21.818  0.00  0.00    +0.000 A 
ATOM      7  C   UNL     1       0.179  10.647  20.972  0.00  0.00    +0.000 A 
ATOM      8  C   UNL     1       0.734  10.541  19.696  0.00  0.00    +0.000 A 
ATOM      9  C   UNL     1       1.390   9.360  19.300  0.00  0.00    +0.000 A 
ATOM     10  C   UNL     1       1.963   9.236  18.022  0.00  0.00    +0.000 A 
ATOM     11  C   UNL     1       2.609   8.060  17.648  0.00  0.00    +0.000 A 
ATOM     12  C   UNL     1       2.682   7.000  18.546  0.00  0.00    +0.000 A 
ATOM     13  C   UNL     1       2.116   7.110  19.822  0.00  0.00    +0.000 A 
ATOM     14  C   UNL     1       1.464   8.297  20.219  0.00  0.00    +0.000 A 
ATOM     15  N   UNL     1       0.917   8.440  21.445  0.00  0.00    +0.000 NA
ENDBRANCH   4  13
ENDBRANCH   3   4
ENDBRANCH   2   3
ENDBRANCH   1   2
BRANCH   1  16
ATOM     16  C   UNL     1       1.476   3.776  18.140  0.00  0.00    +0.000 C 
BRANCH  16  17
ATOM     17  C   UNL     1       2.517   3.319  17.125  0.00  0.00    +0.000 C 
BRANCH  17  18
ATOM     18  O   UNL     1       3.675   2.856  17.825  0.00  0.00    +0.000 OA
BRANCH  18  19
ATOM     19  C   UNL     1       4.722   3.759  17.883  0.00  0.00    +0.000 A 
ATOM     20  C   UNL     1       4.939   4.285  19.167  0.00  0.00    +0.000 A 
ATOM     21  C   UNL     1       5.947   5.222  19.375  0.00  0.00    +0.000 A 
ATOM     22  C   UNL     1       6.735   5.636  18.305  0.00  0.00    +0.000 A 
ATOM     23  C   UNL     1       6.510   5.127  17.011  0.00  0.00    +0.000 A 
ATOM     24  C   UNL     1       7.283   5.538  15.919  0.00  0.00    +0.000 A 
ATOM     25  C   UNL     1       7.033   5.033  14.642  0.00  0.00    +0.000 A 
ATOM     26  C   UNL     1       5.996   4.138  14.494  0.00  0.00    +0.000 A 
ATOM     27  C   UNL     1       5.638   3.522  13.178  0.00  0.00    +0.000 C 
ATOM     28  N   UNL     1       5.246   3.747  15.533  0.00  0.00    +0.000 NA
ATOM     29  C   UNL     1       5.483   4.192  16.791  0.00  0.00    +0.000 A 
ENDBRANCH  18  19
ENDBRANCH  17  18
ENDBRANCH  16  17
ENDBRANCH   1  16
TORSDOF 8
ENDMDL
MODEL 2
REMARK VINA RESULT:      -8.4      0.612      7.396
REMARK  Name = 
REMARK  10 active torsions:
REMARK  status: ('A' for Active; 'I' for Inactive)
REMARK    1  A    between atoms: C_1  and  C_2
REMARK    2  A    between atoms: C_9  and  O_10
REMARK    3  A    between atoms: O_10  and  C_11
REMARK    4  A    between atoms: C_11  and  C_12
REMARK    5  A    between atoms: C_12  and  C_13
REMARK    6  A    between atoms: C_13  and  C_14
REMARK    7  A    between atoms: C_14  and  C_15
REMARK    8  A    between atoms: C_15  and  O_16
REMARK    9  A    between atoms: O_16  and  C_17
REMARK   10  A    between atoms: C_24  and  C_25
REMARK                            x       y       z     vdW  Elec       q    Type
REMARK                         _______ _______ _______ _____ _____    ______ ____
ROOT
ATOM      1  C   UNL     1       0.941   2.944  19.891  0.00  0.00    +0.000 C 
ENDROOT
BRANCH   1   2
ATOM      2  C   UNL     1       1.494   2.048  18.773  0.00  0.00    +0.000 C 
BRANCH   2   3
ATOM      3  C   UNL     1       3.013   2.073  18.804  0.00  0.00    +0.000 C 
BRANCH   3   4
ATOM      4  O   UNL     1       3.555   2.595  17.590  0.00  0.00    +0.000 OA
BRANCH   4  13
ATOM      5  C   UNL     1       5.817   3.600  13.105  0.00  0.00    +0.000 C 
ATOM      6  C   UNL     1       6.085   4.147  14.471  0.00  0.00    +0.000 A 
ATOM      7  C   UNL     1       7.053   5.080  14.741  0.00  0.00    +0.000 A 
ATOM      8  C   UNL     1       7.194   5.523  16.057  0.00  0.00    +0.000 A 
ATOM      9  C   UNL     1       6.358   5.018  17.071  0.00  0.00    +0.000 A 
ATOM     10  C   UNL     1       6.477   5.457  18.402  0.00  0.00    +0.000 A 
ATOM     11  C   UNL     1       5.641   4.946  19.392  0.00  0.00    +0.000 A 
ATOM     12  C   UNL     1       4.685   3.991  19.060  0.00  0.00    +0.000 A 
ATOM     13  C   UNL     1       4.555   3.545  17.739  0.00  0.00    +0.000 A 
ATOM     14  C   UNL     1       5.391   4.057  16.723  0.00  0.00    +0.000 A 
ATOM     15  N   UNL     1       5.285   3.657  15.437  0.00  0.00    +0.000 NA
ENDBRANCH   4  13
ENDBRANCH   3   4
ENDBRANCH   2   3
ENDBRANCH   1   2
BRANCH   1  16
ATOM     16  C   UNL     1       1.124   4.429  19.577  0.00  0.00    +0.000 C 
BRANCH  16  17
ATOM     17  C   UNL     1       1.502   5.209  20.830  0.00  0.00    +0.000 C 
BRANCH  17  18
ATOM     18  O   UNL     1       2.584   6.090  20.519  0.00  0.00    +0.000 OA
BRANCH  18  19
ATOM     19  C   UNL     1       2.248   7.175  19.730  0.00  0.00    +0.000 A 
ATOM     20  C   UNL     1       2.752   7.096  18.422  0.00  0.00    +0.000 A 
ATOM     21  C   UNL     1       2.511   8.127  17.518  0.00  0.00    +0.000 A 
ATOM     22  C   UNL     1       1.771   9.235  17.918  0.00  0.00    +0.000 A 
ATOM     23  C   UNL     1       1.278   9.330  19.234  0.00  0.00    +0.000 A 
ATOM     24  C   UNL     1       0.540  10.441  19.660  0.00  0.00    +0.000 A 
ATOM     25  C   UNL     1       0.075  10.522  20.973  0.00  0.00    +0.000 A 
ATOM     26  C   UNL     1       0.380   9.488  21.831  0.00  0.00    +0.000 A 
ATOM     27  C   UNL     1      -0.071   9.458  23.258  0.00  0.00    +0.000 C 
ATOM     28  N   UNL     1       1.093   8.425  21.433  0.00  0.00    +0.000 NA
ATOM     29  C   UNL     1       1.532   8.299  20.157  0.00  0.00    +0.000 A 
ENDBRANCH  18  19
ENDBRANCH  17  18
ENDBRANCH  16  17
ENDBRANCH   1  16
TORSDOF 8
ENDMDL
MODEL 3
REMARK VINA RESULT:      -7.6      1.408      6.893
REMARK  Name = 
REMARK  10 active torsions:
REMARK  status: ('A' for Active; 'I' for Inactive)
REMARK    1  A    between atoms: C_1  and  C_2
REMARK    2  A    between atoms: C_9  and  O_10
REMARK    3  A    between atoms: O_10  and  C_11
REMARK    4  A    between atoms: C_11  and  C_12
REMARK    5  A    between atoms: C_12  and  C_13
REMARK    6  A    between atoms: C_13  and  C_14
REMARK    7  A    between atoms: C_14  and  C_15
REMARK    8  A    between atoms: C_15  and  O_16
REMARK    9  A    between atoms: O_16  and  C_17
REMARK   10  A    between atoms: C_24  and  C_25
REMARK                            x       y       z     vdW  Elec       q    Type
REMARK                         _______ _______ _______ _____ _____    ______ ____
ROOT
ATOM      1  C   UNL     1       1.696   2.531  20.382  0.00  0.00    +0.000 C 
ENDROOT
BRANCH   1   2
ATOM      2  C   UNL     1       2.791   2.085  19.403  0.00  0.00    +0.000 C 
BRANCH   2   3
ATOM      3  C   UNL     1       3.819   3.194  19.247  0.00  0.00    +0.000 C 
BRANCH   3   4
ATOM      4  O   UNL     1       4.703   2.941  18.155  0.00  0.00    +0.000 OA
BRANCH   4  13
ATOM      5  C   UNL     1       8.433   5.399  20.663  0.00  0.00    +0.000 C 
ATOM      6  C   UNL     1       7.765   5.717  19.362  0.00  0.00    +0.000 A 
ATOM      7  C   UNL     1       8.087   6.800  18.586  0.00  0.00    +0.000 A 
ATOM      8  C   UNL     1       7.400   6.978  17.384  0.00  0.00    +0.000 A 
ATOM      9  C   UNL     1       6.406   6.063  16.990  0.00  0.00    +0.000 A 
ATOM     10  C   UNL     1       5.707   6.218  15.780  0.00  0.00    +0.000 A 
ATOM     11  C   UNL     1       4.727   5.302  15.406  0.00  0.00    +0.000 A 
ATOM     12  C   UNL     1       4.435   4.228  16.242  0.00  0.00    +0.000 A 
ATOM     13  C   UNL     1       5.122   4.061  17.451  0.00  0.00    +0.000 A 
ATOM     14  C   UNL     1       6.123   4.977  17.840  0.00  0.00    +0.000 A 
ATOM     15  N   UNL     1       6.812   4.839  18.993  0.00  0.00    +0.000 NA
ENDBRANCH   4  13
ENDBRANCH   3   4
ENDBRANCH   2   3
ENDBRANCH   1   2
BRANCH   1  16
ATOM     16  C   UNL     1       2.108   3.773  21.174  0.00  0.00    +0.000 C 
BRANCH  16  17
ATOM     17  C   UNL     1       1.501   5.032  20.567  0.00  0.00    +0.000 C 
BRANCH  17  18
ATOM     18  O   UNL     1       2.479   6.075  20.589  0.00  0.00    +0.000 OA
BRANCH  18  19
ATOM     19  C   UNL     1       2.189   7.166  19.790  0.00  0.00    +0.000 A 
ATOM     20  C   UNL     1       2.711   7.066  18.490  0.00  0.00    +0.000 A 
ATOM     21  C   UNL     1       2.517   8.099  17.579  0.00  0.00    +0.000 A 
ATOM     22  C   UNL     1       1.805   9.231  17.962  0.00  0.00    +0.000 A 
ATOM     23  C   UNL     1       1.295   9.348  19.270  0.00  0.00    +0.000 A 
ATOM     24  C   UNL     1       0.586  10.484  19.680  0.00  0.00    +0.000 A 
ATOM     25  C   UNL     1       0.104  10.586  20.985  0.00  0.00    +0.000 A 
ATOM     26  C   UNL     1       0.363   9.547  21.852  0.00  0.00    +0.000 A 
ATOM     27  C   UNL     1      -0.111   9.537  23.271  0.00  0.00    +0.000 C 
ATOM     28  N   UNL     1       1.048   8.460  21.469  0.00  0.00    +0.000 NA
ATOM     29  C   UNL     1       1.502   8.315  20.201  0.00  0.00    +0.000 A 
ENDBRANCH  18  19
ENDBRANCH  17  18
ENDBRANCH  16  17
ENDBRANCH   1  16
TORSDOF 8
ENDMDL
MODEL 4
REMARK VINA RESULT:      -7.6      0.953      1.437
REMARK  Name = 
REMARK  10 active torsions:
REMARK  status: ('A' for Active; 'I' for Inactive)
REMARK    1  A    between atoms: C_1  and  C_2
REMARK    2  A    between atoms: C_9  and  O_10
REMARK    3  A    between atoms: O_10  and  C_11
REMARK    4  A    between atoms: C_11  and  C_12
REMARK    5  A    between atoms: C_12  and  C_13
REMARK    6  A    between atoms: C_13  and  C_14
REMARK    7  A    between atoms: C_14  and  C_15
REMARK    8  A    between atoms: C_15  and  O_16
REMARK    9  A    between atoms: O_16  and  C_17
REMARK   10  A    between atoms: C_24  and  C_25
REMARK                            x       y       z     vdW  Elec       q    Type
REMARK                         _______ _______ _______ _____ _____    ______ ____
ROOT
ATOM      1  C   UNL     1       2.050   2.302  19.627  0.00  0.00    +0.000 C 
ENDROOT
BRANCH   1   2
ATOM      2  C   UNL     1       1.526   3.385  20.581  0.00  0.00    +0.000 C 
BRANCH   2   3
ATOM      3  C   UNL     1       2.469   4.578  20.565  0.00  0.00    +0.000 C 
BRANCH   3   4
ATOM      4  O   UNL     1       1.829   5.760  21.048  0.00  0.00    +0.000 OA
BRANCH   4  13
ATOM      5  C   UNL     1      -0.509   9.807  23.145  0.00  0.00    +0.000 C 
ATOM      6  C   UNL     1       0.147   9.649  21.809  0.00  0.00    +0.000 A 
ATOM      7  C   UNL     1       0.228  10.652  20.878  0.00  0.00    +0.000 A 
ATOM      8  C   UNL     1       0.880  10.383  19.674  0.00  0.00    +0.000 A 
ATOM      9  C   UNL     1       1.436   9.112  19.434  0.00  0.00    +0.000 A 
ATOM     10  C   UNL     1       2.105   8.822  18.231  0.00  0.00    +0.000 A 
ATOM     11  C   UNL     1       2.649   7.558  18.012  0.00  0.00    +0.000 A 
ATOM     12  C   UNL     1       2.523   6.576  18.989  0.00  0.00    +0.000 A 
ATOM     13  C   UNL     1       1.860   6.851  20.191  0.00  0.00    +0.000 A 
ATOM     14  C   UNL     1       1.309   8.128  20.432  0.00  0.00    +0.000 A 
ATOM     15  N   UNL     1       0.673   8.429  21.584  0.00  0.00    +0.000 NA
ENDBRANCH   4  13
ENDBRANCH   3   4
ENDBRANCH   2   3
ENDBRANCH   1   2
BRANCH   1  16
ATOM     16  C   UNL     1       2.206   2.825  18.198  0.00  0.00    +0.000 C 
BRANCH  16  17
ATOM     17  C   UNL     1       3.673   2.857  17.787  0.00  0.00    +0.000 C 
BRANCH  17  18
ATOM     18  O   UNL     1       3.780   3.460  16.495  0.00  0.00    +0.000 OA
BRANCH  18  19
ATOM     19  C   UNL     1       5.009   4.028  16.214  0.00  0.00    +0.000 A 
ATOM     20  C   UNL     1       5.634   4.598  17.334  0.00  0.00    +0.000 A 
ATOM     21  C   UNL     1       6.869   5.226  17.200  0.00  0.00    +0.000 A 
ATOM     22  C   UNL     1       7.479   5.287  15.951  0.00  0.00    +0.000 A 
ATOM     23  C   UNL     1       6.849   4.734  14.819  0.00  0.00    +0.000 A 
ATOM     24  C   UNL     1       7.440   4.794  13.551  0.00  0.00    +0.000 A 
ATOM     25  C   UNL     1       6.791   4.254  12.440  0.00  0.00    +0.000 A 
ATOM     26  C   UNL     1       5.553   3.681  12.630  0.00  0.00    +0.000 A 
ATOM     27  C   UNL     1       4.766   3.061  11.519  0.00  0.00    +0.000 C 
ATOM     28  N   UNL     1       4.977   3.627  13.840  0.00  0.00    +0.000 NA
ATOM     29  C   UNL     1       5.593   4.112  14.944  0.00  0.00    +0.000 A 
ENDBRANCH  18  19
ENDBRANCH  17  18
ENDBRANCH  16  17
ENDBRANCH   1  16
TORSDOF 8
ENDMDL
MODEL 5
REMARK VINA RESULT:      -7.5      3.918      9.324
REMARK  Name = 
REMARK  10 active torsions:
REMARK  status: ('A' for Active; 'I' for Inactive)
REMARK    1  A    between atoms: C_1  and  C_2
REMARK    2  A    between atoms: C_9  and  O_10
REMARK    3  A    between atoms: O_10  and  C_11
REMARK    4  A    between atoms: C_11  and  C_12
REMARK    5  A    between atoms: C_12  and  C_13
REMARK    6  A    between atoms: C_13  and  C_14
REMARK    7  A    between atoms: C_14  and  C_15
REMARK    8  A    between atoms: C_15  and  O_16
REMARK    9  A    between atoms: O_16  and  C_17
REMARK   10  A    between atoms: C_24  and  C_25
REMARK                            x       y       z     vdW  Elec       q    Type
REMARK                         _______ _______ _______ _____ _____    ______ ____
ROOT
ATOM      1  C   UNL     1       1.385   8.591  19.462  0.00  0.00    +0.000 C 
ENDROOT
BRANCH   1   2
ATOM      2  C   UNL     1       1.570   8.410  17.949  0.00  0.00    +0.000 C 
BRANCH   2   3
ATOM      3  C   UNL     1       3.050   8.451  17.607  0.00  0.00    +0.000 C 
BRANCH   3   4
ATOM      4  O   UNL     1       3.785   7.465  18.333  0.00  0.00    +0.000 OA
BRANCH   4  13
ATOM      5  C   UNL     1       0.830   3.751  20.261  0.00  0.00    +0.000 C 
ATOM      6  C   UNL     1       1.840   3.713  19.157  0.00  0.00    +0.000 A 
ATOM      7  C   UNL     1       2.141   2.585  18.440  0.00  0.00    +0.000 A 
ATOM      8  C   UNL     1       3.092   2.684  17.423  0.00  0.00    +0.000 A 
ATOM      9  C   UNL     1       3.719   3.916  17.152  0.00  0.00    +0.000 A 
ATOM     10  C   UNL     1       4.674   4.040  16.127  0.00  0.00    +0.000 A 
ATOM     11  C   UNL     1       5.283   5.266  15.874  0.00  0.00    +0.000 A 
ATOM     12  C   UNL     1       4.946   6.374  16.645  0.00  0.00    +0.000 A 
ATOM     13  C   UNL     1       3.997   6.265  17.669  0.00  0.00    +0.000 A 
ATOM     14  C   UNL     1       3.366   5.031  17.934  0.00  0.00    +0.000 A 
ATOM     15  N   UNL     1       2.439   4.893  18.906  0.00  0.00    +0.000 NA
ENDBRANCH   4  13
ENDBRANCH   3   4
ENDBRANCH   2   3
ENDBRANCH   1   2
BRANCH   1  16
ATOM     16  C   UNL     1       0.864   9.987  19.812  0.00  0.00    +0.000 C 
BRANCH  16  17
ATOM     17  C   UNL     1       0.008  10.547  18.683  0.00  0.00    +0.000 C 
BRANCH  17  18
ATOM     18  O   UNL     1      -1.349  10.628  19.126  0.00  0.00    +0.000 OA
BRANCH  18  19
ATOM     19  C   UNL     1      -2.290  10.712  18.116  0.00  0.00    +0.000 A 
ATOM     20  C   UNL     1      -1.889  10.093  16.921  0.00  0.00    +0.000 A 
ATOM     21  C   UNL     1      -2.726  10.115  15.809  0.00  0.00    +0.000 A 
ATOM     22  C   UNL     1      -3.959  10.756  15.888  0.00  0.00    +0.000 A 
ATOM     23  C   UNL     1      -4.359  11.395  17.077  0.00  0.00    +0.000 A 
ATOM     24  C   UNL     1      -5.591  12.055  17.174  0.00  0.00    +0.000 A 
ATOM     25  C   UNL     1      -5.961  12.697  18.356  0.00  0.00    +0.000 A 
ATOM     26  C   UNL     1      -5.072  12.673  19.409  0.00  0.00    +0.000 A 
ATOM     27  C   UNL     1      -5.361  13.316  20.729  0.00  0.00    +0.000 C 
ATOM     28  N   UNL     1      -3.888  12.051  19.321  0.00  0.00    +0.000 NA
ATOM     29  C   UNL     1      -3.512  11.391  18.199  0.00  0.00    +0.000 A 
ENDBRANCH  18  19
ENDBRANCH  17  18
ENDBRANCH  16  17
ENDBRANCH   1  16
TORSDOF 8
ENDMDL
MODEL 6
REMARK VINA RESULT:      -7.4      3.483      8.929
REMARK  Name = 
REMARK  10 active torsions:
REMARK  status: ('A' for Active; 'I' for Inactive)
REMARK    1  A    between atoms: C_1  and  C_2
REMARK    2  A    between atoms: C_9  and  O_10
REMARK    3  A    between atoms: O_10  and  C_11
REMARK    4  A    between atoms: C_11  and  C_12
REMARK    5  A    between atoms: C_12  and  C_13
REMARK    6  A    between atoms: C_13  and  C_14
REMARK    7  A    between atoms: C_14  and  C_15
REMARK    8  A    between atoms: C_15  and  O_16
REMARK    9  A    between atoms: O_16  and  C_17
REMARK   10  A    between atoms: C_24  and  C_25
REMARK                            x       y       z     vdW  Elec       q    Type
REMARK                         _______ _______ _______ _____ _____    ______ ____
ROOT
ATOM      1  C   UNL     1       1.275   9.837  18.315  0.00  0.00    +0.000 C 
ENDROOT
BRANCH   1   2
ATOM      2  C   UNL     1       2.147   8.734  17.698  0.00  0.00    +0.000 C 
BRANCH   2   3
ATOM      3  C   UNL     1       2.182   7.531  18.627  0.00  0.00    +0.000 C 
BRANCH   3   4
ATOM      4  O   UNL     1       3.514   7.054  18.819  0.00  0.00    +0.000 OA
BRANCH   4  13
ATOM      5  C   UNL     1       1.233   2.946  20.861  0.00  0.00    +0.000 C 
ATOM      6  C   UNL     1       2.163   3.060  19.694  0.00  0.00    +0.000 A 
ATOM      7  C   UNL     1       2.568   1.992  18.937  0.00  0.00    +0.000 A 
ATOM      8  C   UNL     1       3.427   2.233  17.864  0.00  0.00    +0.000 A 
ATOM      9  C   UNL     1       3.859   3.542  17.577  0.00  0.00    +0.000 A 
ATOM     10  C   UNL     1       4.718   3.807  16.496  0.00  0.00    +0.000 A 
ATOM     11  C   UNL     1       5.134   5.109  16.227  0.00  0.00    +0.000 A 
ATOM     12  C   UNL     1       4.700   6.152  17.040  0.00  0.00    +0.000 A 
ATOM     13  C   UNL     1       3.844   5.902  18.120  0.00  0.00    +0.000 A 
ATOM     14  C   UNL     1       3.408   4.589  18.402  0.00  0.00    +0.000 A 
ATOM     15  N   UNL     1       2.575   4.315  19.428  0.00  0.00    +0.000 NA
ENDBRANCH   4  13
ENDBRANCH   3   4
ENDBRANCH   2   3
ENDBRANCH   1   2
BRANCH   1  16
ATOM     16  C   UNL     1       1.059   9.624  19.814  0.00  0.00    +0.000 C 
BRANCH  16  17
ATOM     17  C   UNL     1       0.283  10.785  20.424  0.00  0.00    +0.000 C 
BRANCH  17  18
ATOM     18  O   UNL     1      -0.295  11.560  19.370  0.00  0.00    +0.000 OA
BRANCH  18  19
ATOM     19  C   UNL     1      -1.628  11.883  19.545  0.00  0.00    +0.000 A 
ATOM     20  C   UNL     1      -1.923  12.380  20.824  0.00  0.00    +0.000 A 
ATOM     21  C   UNL     1      -3.230  12.728  21.153  0.00  0.00    +0.000 A 
ATOM     22  C   UNL     1      -4.241  12.579  20.209  0.00  0.00    +0.000 A 
ATOM     23  C   UNL     1      -3.957  12.062  18.931  0.00  0.00    +0.000 A 
ATOM     24  C   UNL     1      -4.961  11.892  17.970  0.00  0.00    +0.000 A 
ATOM     25  C   UNL     1      -4.660  11.364  16.714  0.00  0.00    +0.000 A 
ATOM     26  C   UNL     1      -3.354  11.001  16.463  0.00  0.00    +0.000 A 
ATOM     27  C   UNL     1      -2.908  10.433  15.152  0.00  0.00    +0.000 C 
ATOM     28  N   UNL     1      -2.389  11.153  17.380  0.00  0.00    +0.000 NA
ATOM     29  C   UNL     1      -2.641  11.693  18.597  0.00  0.00    +0.000 A 
ENDBRANCH  18  19
ENDBRANCH  17  18
ENDBRANCH  16  17
ENDBRANCH   1  16
TORSDOF 8
ENDMDL
MODEL 7
REMARK VINA RESULT:      -7.4      3.644      6.118
REMARK  Name = 
REMARK  10 active torsions:
REMARK  status: ('A' for Active; 'I' for Inactive)
REMARK    1  A    between atoms: C_1  and  C_2
REMARK    2  A    between atoms: C_9  and  O_10
REMARK    3  A    between atoms: O_10  and  C_11
REMARK    4  A    between atoms: C_11  and  C_12
REMARK    5  A    between atoms: C_12  and  C_13
REMARK    6  A    between atoms: C_13  and  C_14
REMARK    7  A    between atoms: C_14  and  C_15
REMARK    8  A    between atoms: C_15  and  O_16
REMARK    9  A    between atoms: O_16  and  C_17
REMARK   10  A    between atoms: C_24  and  C_25
REMARK                            x       y       z     vdW  Elec       q    Type
REMARK                         _______ _______ _______ _____ _____    ______ ____
ROOT
ATOM      1  C   UNL     1       0.961   9.312  19.886  0.00  0.00    +0.000 C 
ENDROOT
BRANCH   1   2
ATOM      2  C   UNL     1      -0.365   9.852  20.443  0.00  0.00    +0.000 C 
BRANCH   2   3
ATOM      3  C   UNL     1      -0.172  11.281  20.923  0.00  0.00    +0.000 C 
BRANCH   3   4
ATOM      4  O   UNL     1      -0.771  12.221  20.030  0.00  0.00    +0.000 OA
BRANCH   4  13
ATOM      5  C   UNL     1      -2.815  10.796  15.554  0.00  0.00    +0.000 C 
ATOM      6  C   UNL     1      -3.471  11.261  16.816  0.00  0.00    +0.000 A 
ATOM      7  C   UNL     1      -4.828  11.378  16.970  0.00  0.00    +0.000 A 
ATOM      8  C   UNL     1      -5.316  11.809  18.204  0.00  0.00    +0.000 A 
ATOM      9  C   UNL     1      -4.430  12.114  19.254  0.00  0.00    +0.000 A 
ATOM     10  C   UNL     1      -4.901  12.542  20.508  0.00  0.00    +0.000 A 
ATOM     11  C   UNL     1      -4.009  12.838  21.535  0.00  0.00    +0.000 A 
ATOM     12  C   UNL     1      -2.640  12.713  21.315  0.00  0.00    +0.000 A 
ATOM     13  C   UNL     1      -2.157  12.288  20.072  0.00  0.00    +0.000 A 
ATOM     14  C   UNL     1      -3.048  11.978  19.023  0.00  0.00    +0.000 A 
ATOM     15  N   UNL     1      -2.616  11.555  17.815  0.00  0.00    +0.000 NA
ENDBRANCH   4  13
ENDBRANCH   3   4
ENDBRANCH   2   3
ENDBRANCH   1   2
BRANCH   1  16
ATOM     16  C   UNL     1       1.196   9.754  18.441  0.00  0.00    +0.000 C 
BRANCH  16  17
ATOM     17  C   UNL     1       2.159   8.809  17.732  0.00  0.00    +0.000 C 
BRANCH  17  18
ATOM     18  O   UNL     1       2.356   7.650  18.547  0.00  0.00    +0.000 OA
BRANCH  18  19
ATOM     19  C   UNL     1       3.140   6.663  17.979  0.00  0.00    +0.000 A 
ATOM     20  C   UNL     1       4.148   7.160  17.137  0.00  0.00    +0.000 A 
ATOM     21  C   UNL     1       5.003   6.281  16.479  0.00  0.00    +0.000 A 
ATOM     22  C   UNL     1       4.853   4.909  16.658  0.00  0.00    +0.000 A 
ATOM     23  C   UNL     1       3.832   4.403  17.485  0.00  0.00    +0.000 A 
ATOM     24  C   UNL     1       3.656   3.026  17.670  0.00  0.00    +0.000 A 
ATOM     25  C   UNL     1       2.628   2.545  18.482  0.00  0.00    +0.000 A 
ATOM     26  C   UNL     1       1.790   3.464  19.074  0.00  0.00    +0.000 A 
ATOM     27  C   UNL     1       0.659   3.070  19.972  0.00  0.00    +0.000 C 
ATOM     28  N   UNL     1       1.947   4.783  18.895  0.00  0.00    +0.000 NA
ATOM     29  C   UNL     1       2.954   5.284  18.141  0.00  0.00    +0.000 A 
ENDBRANCH  18  19
ENDBRANCH  17  18
ENDBRANCH  16  17
ENDBRANCH   1  16
TORSDOF 8
ENDMDL
MODEL 8
REMARK VINA RESULT:      -7.4      3.866      9.686
REMARK  Name = 
REMARK  10 active torsions:
REMARK  status: ('A' for Active; 'I' for Inactive)
REMARK    1  A    between atoms: C_1  and  C_2
REMARK    2  A    between atoms: C_9  and  O_10
REMARK    3  A    between atoms: O_10  and  C_11
REMARK    4  A    between atoms: C_11  and  C_12
REMARK    5  A    between atoms: C_12  and  C_13
REMARK    6  A    between atoms: C_13  and  C_14
REMARK    7  A    between atoms: C_14  and  C_15
REMARK    8  A    between atoms: C_15  and  O_16
REMARK    9  A    between atoms: O_16  and  C_17
REMARK   10  A    between atoms: C_24  and  C_25
REMARK                            x       y       z     vdW  Elec       q    Type
REMARK                         _______ _______ _______ _____ _____    ______ ____
ROOT
ATOM      1  C   UNL     1       1.359  10.121  19.053  0.00  0.00    +0.000 C 
ENDROOT
BRANCH   1   2
ATOM      2  C   UNL     1       1.307   9.092  17.914  0.00  0.00    +0.000 C 
BRANCH   2   3
ATOM      3  C   UNL     1       2.652   8.394  17.796  0.00  0.00    +0.000 C 
BRANCH   3   4
ATOM      4  O   UNL     1       2.754   7.293  18.699  0.00  0.00    +0.000 OA
BRANCH   4  13
ATOM      5  C   UNL     1       7.732   7.170  17.496  0.00  0.00    +0.000 C 
ATOM      6  C   UNL     1       6.663   6.140  17.309  0.00  0.00    +0.000 A 
ATOM      7  C   UNL     1       6.882   4.910  16.746  0.00  0.00    +0.000 A 
ATOM      8  C   UNL     1       5.802   4.031  16.641  0.00  0.00    +0.000 A 
ATOM      9  C   UNL     1       4.528   4.410  17.105  0.00  0.00    +0.000 A 
ATOM     10  C   UNL     1       3.429   3.537  17.017  0.00  0.00    +0.000 A 
ATOM     11  C   UNL     1       2.176   3.929  17.482  0.00  0.00    +0.000 A 
ATOM     12  C   UNL     1       2.012   5.197  18.032  0.00  0.00    +0.000 A 
ATOM     13  C   UNL     1       3.098   6.076  18.126  0.00  0.00    +0.000 A 
ATOM     14  C   UNL     1       4.375   5.692  17.666  0.00  0.00    +0.000 A 
ATOM     15  N   UNL     1       5.445   6.511  17.751  0.00  0.00    +0.000 NA
ENDBRANCH   4  13
ENDBRANCH   3   4
ENDBRANCH   2   3
ENDBRANCH   1   2
BRANCH   1  16
ATOM     16  C   UNL     1       0.838  11.489  18.611  0.00  0.00    +0.000 C 
BRANCH  16  17
ATOM     17  C   UNL     1      -0.508  11.795  19.257  0.00  0.00    +0.000 C 
BRANCH  17  18
ATOM     18  O   UNL     1      -1.358  10.652  19.121  0.00  0.00    +0.000 OA
BRANCH  18  19
ATOM     19  C   UNL     1      -2.318  10.751  18.131  0.00  0.00    +0.000 A 
ATOM     20  C   UNL     1      -1.944  10.141  16.923  0.00  0.00    +0.000 A 
ATOM     21  C   UNL     1      -2.802  10.179  15.827  0.00  0.00    +0.000 A 
ATOM     22  C   UNL     1      -4.029  10.826  15.936  0.00  0.00    +0.000 A 
ATOM     23  C   UNL     1      -4.402  11.457  17.138  0.00  0.00    +0.000 A 
ATOM     24  C   UNL     1      -5.627  12.124  17.265  0.00  0.00    +0.000 A 
ATOM     25  C   UNL     1      -5.971  12.756  18.460  0.00  0.00    +0.000 A 
ATOM     26  C   UNL     1      -5.061  12.718  19.495  0.00  0.00    +0.000 A 
ATOM     27  C   UNL     1      -5.320  13.350  20.826  0.00  0.00    +0.000 C 
ATOM     28  N   UNL     1      -3.883  12.089  19.378  0.00  0.00    +0.000 NA
ATOM     29  C   UNL     1      -3.533  11.437  18.244  0.00  0.00    +0.000 A 
ENDBRANCH  18  19
ENDBRANCH  17  18
ENDBRANCH  16  17
ENDBRANCH   1  16
TORSDOF 8
ENDMDL
MODEL 9
REMARK VINA RESULT:      -7.3      3.752      9.475
REMARK  Name = 
REMARK  10 active torsions:
REMARK  status: ('A' for Active; 'I' for Inactive)
REMARK    1  A    between atoms: C_1  and  C_2
REMARK    2  A    between atoms: C_9  and  O_10
REMARK    3  A    between atoms: O_10  and  C_11
REMARK    4  A    between atoms: C_11  and  C_12
REMARK    5  A    between atoms: C_12  and  C_13
REMARK    6  A    between atoms: C_13  and  C_14
REMARK    7  A    between atoms: C_14  and  C_15
REMARK    8  A    between atoms: C_15  and  O_16
REMARK    9  A    between atoms: O_16  and  C_17
REMARK   10  A    between atoms: C_24  and  C_25
REMARK                            x       y       z     vdW  Elec       q    Type
REMARK                         _______ _______ _______ _____ _____    ______ ____
ROOT
ATOM      1  C   UNL     1       0.571   9.302  20.727  0.00  0.00    +0.000 C 
ENDROOT
BRANCH   1   2
ATOM      2  C   UNL     1       1.274   7.967  21.011  0.00  0.00    +0.000 C 
BRANCH   2   3
ATOM      3  C   UNL     1       2.030   7.514  19.772  0.00  0.00    +0.000 C 
BRANCH   3   4
ATOM      4  O   UNL     1       2.850   6.377  20.043  0.00  0.00    +0.000 OA
BRANCH   4  13
ATOM      5  C   UNL     1       7.230   6.890  17.436  0.00  0.00    +0.000 C 
ATOM      6  C   UNL     1       6.092   5.936  17.246  0.00  0.00    +0.000 A 
ATOM      7  C   UNL     1       6.060   4.978  16.266  0.00  0.00    +0.000 A 
ATOM      8  C   UNL     1       4.947   4.138  16.203  0.00  0.00    +0.000 A 
ATOM      9  C   UNL     1       3.893   4.281  17.125  0.00  0.00    +0.000 A 
ATOM     10  C   UNL     1       2.767   3.440  17.084  0.00  0.00    +0.000 A 
ATOM     11  C   UNL     1       1.734   3.596  18.006  0.00  0.00    +0.000 A 
ATOM     12  C   UNL     1       1.818   4.596  18.970  0.00  0.00    +0.000 A 
ATOM     13  C   UNL     1       2.934   5.441  19.022  0.00  0.00    +0.000 A 
ATOM     14  C   UNL     1       3.991   5.291  18.100  0.00  0.00    +0.000 A 
ATOM     15  N   UNL     1       5.086   6.081  18.129  0.00  0.00    +0.000 NA
ENDBRANCH   4  13
ENDBRANCH   3   4
ENDBRANCH   2   3
ENDBRANCH   1   2
BRANCH   1  16
ATOM     16  C   UNL     1       1.053   9.935  19.420  0.00  0.00    +0.000 C 
BRANCH  16  17
ATOM     17  C   UNL     1      -0.060   9.951  18.380  0.00  0.00    +0.000 C 
BRANCH  17  18
ATOM     18  O   UNL     1      -1.002  10.971  18.724  0.00  0.00    +0.000 OA
BRANCH  18  19
ATOM     19  C   UNL     1      -2.150  10.992  17.953  0.00  0.00    +0.000 A 
ATOM     20  C   UNL     1      -1.988  10.405  16.688  0.00  0.00    +0.000 A 
ATOM     21  C   UNL     1      -3.053  10.371  15.792  0.00  0.00    +0.000 A 
ATOM     22  C   UNL     1      -4.277  10.924  16.157  0.00  0.00    +0.000 A 
ATOM     23  C   UNL     1      -4.441  11.531  17.417  0.00  0.00    +0.000 A 
ATOM     24  C   UNL     1      -5.661  12.103  17.800  0.00  0.00    +0.000 A 
ATOM     25  C   UNL     1      -5.798  12.714  19.047  0.00  0.00    +0.000 A 
ATOM     26  C   UNL     1      -4.695  12.750  19.872  0.00  0.00    +0.000 A 
ATOM     27  C   UNL     1      -4.721  13.369  21.235  0.00  0.00    +0.000 C 
ATOM     28  N   UNL     1      -3.522  12.213  19.509  0.00  0.00    +0.000 NA
ATOM     29  C   UNL     1      -3.364  11.583  18.320  0.00  0.00    +0.000 A 
ENDBRANCH  18  19
ENDBRANCH  17  18
ENDBRANCH  16  17
ENDBRANCH   1  16
TORSDOF 8
ENDMDL
