MODEL 1
REMARK VINA RESULT:      -7.6      0.000      0.000
REMARK  Name = 
REMARK  15 active torsions:
REMARK  status: ('A' for Active; 'I' for Inactive)
REMARK    1  A    between atoms: C_1  and  O_2
REMARK    2  A    between atoms: O_2  and  C_3
REMARK    3  A    between atoms: C_6  and  C_7
REMARK    4  A    between atoms: C_7  and  C_8
REMARK    5  A    between atoms: C_8  and  O_9
REMARK    6  A    between atoms: O_9  and  C_10
REMARK    7  A    between atoms: C_12  and  N_13
REMARK    8  A    between atoms: C_17  and  C_18
REMARK    9  A    between atoms: C_18  and  C_20
REMARK   10  A    between atoms: C_20  and  C_21
REMARK   11  A    between atoms: C_21  and  C_22
REMARK   12  A    between atoms: C_22  and  C_23
REMARK   13  A    between atoms: C_23  and  N_24
REMARK   14  A    between atoms: C_31  and  O_32
REMARK   15  A    between atoms: O_32  and  C_33
REMARK                            x       y       z     vdW  Elec       q    Type
REMARK                         _______ _______ _______ _____ _____    ______ ____
ROOT
ATOM      1  C   UNL     1       3.578   5.813  17.688  0.00  0.00    +0.000 A 
ATOM      2  C   UNL     1       2.405   5.130  18.078  0.00  0.00    +0.000 A 
ATOM      3  C   UNL     1       2.401   3.768  18.368  0.00  0.00    +0.000 A 
ATOM      4  C   UNL     1       3.544   3.039  18.048  0.00  0.00    +0.000 A 
ATOM      5 CL   UNL     1       3.609   1.333  18.323  0.00  0.00    +0.000 Cl
ATOM      6  C   UNL     1       4.679   3.670  17.536  0.00  0.00    +0.000 A 
ATOM      7  C   UNL     1       4.731   5.065  17.350  0.00  0.00    +0.000 A 
ENDROOT
BRANCH   3   8
ATOM      8  N   UNL     1       1.205   3.157  18.778  0.00  0.00    +0.000 N 
ATOM      9  H   UNL     1       1.275   2.155  18.928  0.00  0.00    +0.000 HD
ATOM     10  H   UNL     1       0.420   3.399  18.173  0.00  0.00    +0.000 HD
ENDBRANCH   3   8
BRANCH   7  11
ATOM     11  C   UNL     1       6.035   5.658  16.815  0.00  0.00    +0.000 C 
ATOM     12  O   UNL     1       6.460   5.357  15.706  0.00  0.00    +0.000 OA
BRANCH  11  13
ATOM     13  C   UNL     1       6.799   6.639  17.738  0.00  0.00    +0.000 C 
BRANCH  13  14
ATOM     14  C   UNL     1       7.609   7.785  17.106  0.00  0.00    +0.000 C 
BRANCH  14  15
ATOM     15  C   UNL     1       8.138   8.770  18.156  0.00  0.00    +0.000 C 
BRANCH  15  16
ATOM     16  C   UNL     1       8.402  10.200  17.639  0.00  0.00    +0.000 C 
BRANCH  16  17
ATOM     17  N   UNL     1       9.151  11.107  18.528  0.00  0.00    +0.000 NA
ATOM     18  C   UNL     1       9.321  10.535  19.870  0.00  0.00    +0.000 C 
ATOM     19  C   UNL     1      10.050  11.508  20.797  0.00  0.00    +0.000 C 
ATOM     20  C   UNL     1      11.408  11.911  20.238  0.00  0.00    +0.000 C 
ATOM     21  C   UNL     1      11.286  12.381  18.793  0.00  0.00    +0.000 C 
ATOM     22  C   UNL     1      10.470  11.410  17.935  0.00  0.00    +0.000 C 
ENDBRANCH  16  17
ENDBRANCH  15  16
ENDBRANCH  14  15
ENDBRANCH  13  14
ENDBRANCH  11  13
ENDBRANCH   7  11
BRANCH   1  23
ATOM     23  O   UNL     1       3.601   7.189  17.662  0.00  0.00    +0.000 OA
BRANCH  23  24
ATOM     24  C   UNL     1       2.692   7.898  18.542  0.00  0.00    +0.000 C 
BRANCH  24  25
ATOM     25  C   UNL     1       1.666   8.765  17.788  0.00  0.00    +0.000 C 
BRANCH  25  29
ATOM     26  C   UNL     1      -0.651  11.382  20.395  0.00  0.00    +0.000 A 
ATOM     27  C   UNL     1      -0.861  11.365  19.003  0.00  0.00    +0.000 A 
ATOM     28  C   UNL     1      -0.158  10.480  18.152  0.00  0.00    +0.000 A 
ATOM     29  C   UNL     1       0.782   9.603  18.683  0.00  0.00    +0.000 A 
ATOM     30  C   UNL     1       0.950   9.588  20.085  0.00  0.00    +0.000 A 
ATOM     31  C   UNL     1       0.250  10.452  20.940  0.00  0.00    +0.000 A 
BRANCH  26  33
ATOM     32  C   UNL     1      -2.346  12.382  21.736  0.00  0.00    +0.000 C 
ATOM     33  O   UNL     1      -1.114  12.502  21.032  0.00  0.00    +0.000 OA
ENDBRANCH  26  33
BRANCH  31  34
ATOM     34  O   UNL     1       0.684  10.304  22.233  0.00  0.00    +0.000 OA
ATOM     35  C   UNL     1      -0.093   9.608  23.189  0.00  0.00    +0.000 C 
ENDBRANCH  31  34
ENDBRANCH  25  29
ENDBRANCH  24  25
ENDBRANCH  23  24
ENDBRANCH   1  23
TORSDOF 13
ENDMDL
MODEL 2
REMARK VINA RESULT:      -7.6      1.776      2.346
REMARK  Name = 
REMARK  15 active torsions:
REMARK  status: ('A' for Active; 'I' for Inactive)
REMARK    1  A    between atoms: C_1  and  O_2
REMARK    2  A    between atoms: O_2  and  C_3
REMARK    3  A    between atoms: C_6  and  C_7
REMARK    4  A    between atoms: C_7  and  C_8
REMARK    5  A    between atoms: C_8  and  O_9
REMARK    6  A    between atoms: O_9  and  C_10
REMARK    7  A    between atoms: C_12  and  N_13
REMARK    8  A    between atoms: C_17  and  C_18
REMARK    9  A    between atoms: C_18  and  C_20
REMARK   10  A    between atoms: C_20  and  C_21
REMARK   11  A    between atoms: C_21  and  C_22
REMARK   12  A    between atoms: C_22  and  C_23
REMARK   13  A    between atoms: C_23  and  N_24
REMARK   14  A    between atoms: C_31  and  O_32
REMARK   15  A    between atoms: O_32  and  C_33
REMARK                            x       y       z     vdW  Elec       q    Type
REMARK                         _______ _______ _______ _____ _____    ______ ____
ROOT
ATOM      1  C   UNL     1       3.259   6.786  18.194  0.00  0.00    +0.000 A 
ATOM      2  C   UNL     1       2.249   6.134  18.936  0.00  0.00    +0.000 A 
ATOM      3  C   UNL     1       2.472   4.926  19.592  0.00  0.00    +0.000 A 
ATOM      4  C   UNL     1       3.660   4.255  19.316  0.00  0.00    +0.000 A 
ATOM      5 CL   UNL     1       3.999   2.723  20.042  0.00  0.00    +0.000 Cl
ATOM      6  C   UNL     1       4.626   4.818  18.478  0.00  0.00    +0.000 A 
ATOM      7  C   UNL     1       4.458   6.093  17.905  0.00  0.00    +0.000 A 
ENDROOT
BRANCH   3   8
ATOM      8  N   UNL     1       1.432   4.347  20.336  0.00  0.00    +0.000 N 
ATOM      9  H   UNL     1       0.510   4.457  19.924  0.00  0.00    +0.000 HD
ATOM     10  H   UNL     1       1.450   4.633  21.314  0.00  0.00    +0.000 HD
ENDBRANCH   3   8
BRANCH   7  11
ATOM     11  C   UNL     1       5.591   6.628  17.030  0.00  0.00    +0.000 C 
ATOM     12  O   UNL     1       5.433   6.813  15.829  0.00  0.00    +0.000 OA
BRANCH  11  13
ATOM     13  C   UNL     1       6.948   6.912  17.723  0.00  0.00    +0.000 C 
BRANCH  13  14
ATOM     14  C   UNL     1       7.834   8.054  17.196  0.00  0.00    +0.000 C 
BRANCH  14  15
ATOM     15  C   UNL     1       8.354   8.954  18.323  0.00  0.00    +0.000 C 
BRANCH  15  16
ATOM     16  C   UNL     1       8.245  10.470  18.056  0.00  0.00    +0.000 C 
BRANCH  16  17
ATOM     17  N   UNL     1       9.272  11.334  18.665  0.00  0.00    +0.000 NA
ATOM     18  C   UNL     1       9.605  10.904  20.030  0.00  0.00    +0.000 C 
ATOM     19  C   UNL     1      10.629  11.841  20.670  0.00  0.00    +0.000 C 
ATOM     20  C   UNL     1      11.902  11.938  19.840  0.00  0.00    +0.000 C 
ATOM     21  C   UNL     1      11.582  12.248  18.382  0.00  0.00    +0.000 C 
ATOM     22  C   UNL     1      10.487  11.336  17.824  0.00  0.00    +0.000 C 
ENDBRANCH  16  17
ENDBRANCH  15  16
ENDBRANCH  14  15
ENDBRANCH  13  14
ENDBRANCH  11  13
ENDBRANCH   7  11
BRANCH   1  23
ATOM     23  O   UNL     1       3.083   8.088  17.782  0.00  0.00    +0.000 OA
BRANCH  23  24
ATOM     24  C   UNL     1       1.746   8.645  17.848  0.00  0.00    +0.000 C 
BRANCH  24  25
ATOM     25  C   UNL     1       1.685   9.999  18.578  0.00  0.00    +0.000 C 
BRANCH  25  29
ATOM     26  C   UNL     1      -2.347  11.647  18.772  0.00  0.00    +0.000 A 
ATOM     27  C   UNL     1      -1.282  12.237  19.479  0.00  0.00    +0.000 A 
ATOM     28  C   UNL     1       0.042  11.748  19.380  0.00  0.00    +0.000 A 
ATOM     29  C   UNL     1       0.319  10.647  18.577  0.00  0.00    +0.000 A 
ATOM     30  C   UNL     1      -0.743  10.092  17.830  0.00  0.00    +0.000 A 
ATOM     31  C   UNL     1      -2.058  10.575  17.911  0.00  0.00    +0.000 A 
BRANCH  26  33
ATOM     32  C   UNL     1      -3.659  12.795  20.396  0.00  0.00    +0.000 C 
ATOM     33  O   UNL     1      -3.594  11.979  19.230  0.00  0.00    +0.000 OA
ENDBRANCH  26  33
BRANCH  31  34
ATOM     34  O   UNL     1      -2.905   9.790  17.172  0.00  0.00    +0.000 OA
ATOM     35  C   UNL     1      -2.781   9.703  15.765  0.00  0.00    +0.000 C 
ENDBRANCH  31  34
ENDBRANCH  25  29
ENDBRANCH  24  25
ENDBRANCH  23  24
ENDBRANCH   1  23
TORSDOF 13
ENDMDL
MODEL 3
REMARK VINA RESULT:      -7.6      1.479      1.725
REMARK  Name = 
REMARK  15 active torsions:
REMARK  status: ('A' for Active; 'I' for Inactive)
REMARK    1  A    between atoms: C_1  and  O_2
REMARK    2  A    between atoms: O_2  and  C_3
REMARK    3  A    between atoms: C_6  and  C_7
REMARK    4  A    between atoms: C_7  and  C_8
REMARK    5  A    between atoms: C_8  and  O_9
REMARK    6  A    between atoms: O_9  and  C_10
REMARK    7  A    between atoms: C_12  and  N_13
REMARK    8  A    between atoms: C_17  and  C_18
REMARK    9  A    between atoms: C_18  and  C_20
REMARK   10  A    between atoms: C_20  and  C_21
REMARK   11  A    between atoms: C_21  and  C_22
REMARK   12  A    between atoms: C_22  and  C_23
REMARK   13  A    between atoms: C_23  and  N_24
REMARK   14  A    between atoms: C_31  and  O_32
REMARK   15  A    between atoms: O_32  and  C_33
REMARK                            x       y       z     vdW  Elec       q    Type
REMARK                         _______ _______ _______ _____ _____    ______ ____
ROOT
ATOM      1  C   UNL     1       3.361   5.717  18.748  0.00  0.00    +0.000 A 
ATOM      2  C   UNL     1       2.183   4.957  18.575  0.00  0.00    +0.000 A 
ATOM      3  C   UNL     1       2.189   3.565  18.588  0.00  0.00    +0.000 A 
ATOM      4  C   UNL     1       3.426   2.927  18.553  0.00  0.00    +0.000 A 
ATOM      5 CL   UNL     1       3.530   1.201  18.511  0.00  0.00    +0.000 Cl
ATOM      6  C   UNL     1       4.615   3.660  18.590  0.00  0.00    +0.000 A 
ATOM      7  C   UNL     1       4.616   5.064  18.696  0.00  0.00    +0.000 A 
ENDROOT
BRANCH   3   8
ATOM      8  N   UNL     1       0.977   2.872  18.438  0.00  0.00    +0.000 N 
ATOM      9  H   UNL     1       0.915   2.013  18.977  0.00  0.00    +0.000 HD
ATOM     10  H   UNL     1       0.732   2.727  17.459  0.00  0.00    +0.000 HD
ENDBRANCH   3   8
BRANCH   7  11
ATOM     11  C   UNL     1       5.973   5.765  18.764  0.00  0.00    +0.000 C 
ATOM     12  O   UNL     1       6.760   5.538  19.675  0.00  0.00    +0.000 OA
BRANCH  11  13
ATOM     13  C   UNL     1       6.301   6.783  17.642  0.00  0.00    +0.000 C 
BRANCH  13  14
ATOM     14  C   UNL     1       7.749   7.278  17.481  0.00  0.00    +0.000 C 
BRANCH  14  15
ATOM     15  C   UNL     1       7.887   8.775  17.784  0.00  0.00    +0.000 C 
BRANCH  15  16
ATOM     16  C   UNL     1       8.857   9.124  18.934  0.00  0.00    +0.000 C 
BRANCH  16  17
ATOM     17  N   UNL     1       9.455  10.472  18.920  0.00  0.00    +0.000 NA
ATOM     18  C   UNL     1       8.764  11.364  17.980  0.00  0.00    +0.000 C 
ATOM     19  C   UNL     1       9.428  12.740  17.936  0.00  0.00    +0.000 C 
ATOM     20  C   UNL     1       9.478  13.389  19.312  0.00  0.00    +0.000 C 
ATOM     21  C   UNL     1      10.065  12.434  20.345  0.00  0.00    +0.000 C 
ATOM     22  C   UNL     1       9.422  11.046  20.282  0.00  0.00    +0.000 C 
ENDBRANCH  16  17
ENDBRANCH  15  16
ENDBRANCH  14  15
ENDBRANCH  13  14
ENDBRANCH  11  13
ENDBRANCH   7  11
BRANCH   1  23
ATOM     23  O   UNL     1       3.283   7.070  18.987  0.00  0.00    +0.000 OA
BRANCH  23  24
ATOM     24  C   UNL     1       2.910   7.933  17.883  0.00  0.00    +0.000 C 
BRANCH  24  25
ATOM     25  C   UNL     1       1.460   8.445  17.973  0.00  0.00    +0.000 C 
BRANCH  25  29
ATOM     26  C   UNL     1       1.240  11.955  20.550  0.00  0.00    +0.000 A 
ATOM     27  C   UNL     1       1.574  12.069  19.188  0.00  0.00    +0.000 A 
ATOM     28  C   UNL     1       1.592  10.947  18.326  0.00  0.00    +0.000 A 
ATOM     29  C   UNL     1       1.288   9.684  18.822  0.00  0.00    +0.000 A 
ATOM     30  C   UNL     1       0.904   9.583  20.177  0.00  0.00    +0.000 A 
ATOM     31  C   UNL     1       0.870  10.690  21.038  0.00  0.00    +0.000 A 
BRANCH  26  33
ATOM     32  C   UNL     1       0.603  13.996  21.599  0.00  0.00    +0.000 C 
ATOM     33  O   UNL     1       1.606  13.024  21.323  0.00  0.00    +0.000 OA
ENDBRANCH  26  33
BRANCH  31  34
ATOM     34  O   UNL     1       0.572  10.295  22.317  0.00  0.00    +0.000 OA
ATOM     35  C   UNL     1      -0.380   9.278  22.565  0.00  0.00    +0.000 C 
ENDBRANCH  31  34
ENDBRANCH  25  29
ENDBRANCH  24  25
ENDBRANCH  23  24
ENDBRANCH   1  23
TORSDOF 13
ENDMDL
MODEL 4
REMARK VINA RESULT:      -7.5      1.482      2.078
REMARK  Name = 
REMARK  15 active torsions:
REMARK  status: ('A' for Active; 'I' for Inactive)
REMARK    1  A    between atoms: C_1  and  O_2
REMARK    2  A    between atoms: O_2  and  C_3
REMARK    3  A    between atoms: C_6  and  C_7
REMARK    4  A    between atoms: C_7  and  C_8
REMARK    5  A    between atoms: C_8  and  O_9
REMARK    6  A    between atoms: O_9  and  C_10
REMARK    7  A    between atoms: C_12  and  N_13
REMARK    8  A    between atoms: C_17  and  C_18
REMARK    9  A    between atoms: C_18  and  C_20
REMARK   10  A    between atoms: C_20  and  C_21
REMARK   11  A    between atoms: C_21  and  C_22
REMARK   12  A    between atoms: C_22  and  C_23
REMARK   13  A    between atoms: C_23  and  N_24
REMARK   14  A    between atoms: C_31  and  O_32
REMARK   15  A    between atoms: O_32  and  C_33
REMARK                            x       y       z     vdW  Elec       q    Type
REMARK                         _______ _______ _______ _____ _____    ______ ____
ROOT
ATOM      1  C   UNL     1       3.202   6.592  18.294  0.00  0.00    +0.000 A 
ATOM      2  C   UNL     1       2.188   5.868  18.957  0.00  0.00    +0.000 A 
ATOM      3  C   UNL     1       2.380   4.564  19.408  0.00  0.00    +0.000 A 
ATOM      4  C   UNL     1       3.531   3.902  18.990  0.00  0.00    +0.000 A 
ATOM      5 CL   UNL     1       3.827   2.263  19.455  0.00  0.00    +0.000 Cl
ATOM      6  C   UNL     1       4.496   4.555  18.220  0.00  0.00    +0.000 A 
ATOM      7  C   UNL     1       4.364   5.910  17.859  0.00  0.00    +0.000 A 
ENDROOT
BRANCH   3   8
ATOM      8  N   UNL     1       1.337   3.912  20.085  0.00  0.00    +0.000 N 
ATOM      9  H   UNL     1       0.480   4.453  20.158  0.00  0.00    +0.000 HD
ATOM     10  H   UNL     1       1.633   3.543  20.988  0.00  0.00    +0.000 HD
ENDBRANCH   3   8
BRANCH   7  11
ATOM     11  C   UNL     1       5.495   6.536  17.042  0.00  0.00    +0.000 C 
ATOM     12  O   UNL     1       5.324   6.874  15.877  0.00  0.00    +0.000 OA
BRANCH  11  13
ATOM     13  C   UNL     1       6.864   6.711  17.745  0.00  0.00    +0.000 C 
BRANCH  13  14
ATOM     14  C   UNL     1       7.802   7.842  17.288  0.00  0.00    +0.000 C 
BRANCH  14  15
ATOM     15  C   UNL     1       8.314   8.684  18.463  0.00  0.00    +0.000 C 
BRANCH  15  16
ATOM     16  C   UNL     1       8.573  10.171  18.140  0.00  0.00    +0.000 C 
BRANCH  16  17
ATOM     17  N   UNL     1       9.810  10.768  18.676  0.00  0.00    +0.000 NA
ATOM     18  C   UNL     1      10.321  11.833  17.804  0.00  0.00    +0.000 C 
ATOM     19  C   UNL     1      11.633  12.405  18.343  0.00  0.00    +0.000 C 
ATOM     20  C   UNL     1      11.478  12.937  19.761  0.00  0.00    +0.000 C 
ATOM     21  C   UNL     1      10.819  11.900  20.664  0.00  0.00    +0.000 C 
ATOM     22  C   UNL     1       9.561  11.299  20.033  0.00  0.00    +0.000 C 
ENDBRANCH  16  17
ENDBRANCH  15  16
ENDBRANCH  14  15
ENDBRANCH  13  14
ENDBRANCH  11  13
ENDBRANCH   7  11
BRANCH   1  23
ATOM     23  O   UNL     1       3.069   7.948  18.097  0.00  0.00    +0.000 OA
BRANCH  23  24
ATOM     24  C   UNL     1       1.944   8.615  18.722  0.00  0.00    +0.000 C 
BRANCH  24  25
ATOM     25  C   UNL     1       1.438   9.833  17.926  0.00  0.00    +0.000 C 
BRANCH  25  29
ATOM     26  C   UNL     1      -2.566  11.341  18.765  0.00  0.00    +0.000 A 
ATOM     27  C   UNL     1      -2.360  10.272  17.873  0.00  0.00    +0.000 A 
ATOM     28  C   UNL     1      -1.073   9.734  17.635  0.00  0.00    +0.000 A 
ATOM     29  C   UNL     1       0.036  10.271  18.281  0.00  0.00    +0.000 A 
ATOM     30  C   UNL     1      -0.184  11.308  19.214  0.00  0.00    +0.000 A 
ATOM     31  C   UNL     1      -1.456  11.841  19.467  0.00  0.00    +0.000 A 
BRANCH  26  33
ATOM     32  C   UNL     1      -4.581  11.598  17.522  0.00  0.00    +0.000 C 
ATOM     33  O   UNL     1      -3.768  11.981  18.627  0.00  0.00    +0.000 OA
ENDBRANCH  26  33
BRANCH  31  34
ATOM     34  O   UNL     1      -1.369  12.905  20.328  0.00  0.00    +0.000 OA
ATOM     35  C   UNL     1      -0.196  13.139  21.083  0.00  0.00    +0.000 C 
ENDBRANCH  31  34
ENDBRANCH  25  29
ENDBRANCH  24  25
ENDBRANCH  23  24
ENDBRANCH   1  23
TORSDOF 13
ENDMDL
MODEL 5
REMARK VINA RESULT:      -7.5      1.194      1.897
REMARK  Name = 
REMARK  15 active torsions:
REMARK  status: ('A' for Active; 'I' for Inactive)
REMARK    1  A    between atoms: C_1  and  O_2
REMARK    2  A    between atoms: O_2  and  C_3
REMARK    3  A    between atoms: C_6  and  C_7
REMARK    4  A    between atoms: C_7  and  C_8
REMARK    5  A    between atoms: C_8  and  O_9
REMARK    6  A    between atoms: O_9  and  C_10
REMARK    7  A    between atoms: C_12  and  N_13
REMARK    8  A    between atoms: C_17  and  C_18
REMARK    9  A    between atoms: C_18  and  C_20
REMARK   10  A    between atoms: C_20  and  C_21
REMARK   11  A    between atoms: C_21  and  C_22
REMARK   12  A    between atoms: C_22  and  C_23
REMARK   13  A    between atoms: C_23  and  N_24
REMARK   14  A    between atoms: C_31  and  O_32
REMARK   15  A    between atoms: O_32  and  C_33
REMARK                            x       y       z     vdW  Elec       q    Type
REMARK                         _______ _______ _______ _____ _____    ______ ____
ROOT
ATOM      1  C   UNL     1       2.932   5.923  17.907  0.00  0.00    +0.000 A 
ATOM      2  C   UNL     1       2.036   5.051  18.564  0.00  0.00    +0.000 A 
ATOM      3  C   UNL     1       2.472   3.927  19.261  0.00  0.00    +0.000 A 
ATOM      4  C   UNL     1       3.804   3.553  19.111  0.00  0.00    +0.000 A 
ATOM      5 CL   UNL     1       4.420   2.141  19.895  0.00  0.00    +0.000 Cl
ATOM      6  C   UNL     1       4.688   4.329  18.356  0.00  0.00    +0.000 A 
ATOM      7  C   UNL     1       4.282   5.531  17.745  0.00  0.00    +0.000 A 
ENDROOT
BRANCH   3   8
ATOM      8  N   UNL     1       1.528   3.118  19.915  0.00  0.00    +0.000 N 
ATOM      9  H   UNL     1       1.478   3.261  20.920  0.00  0.00    +0.000 HD
ATOM     10  H   UNL     1       1.631   2.133  19.674  0.00  0.00    +0.000 HD
ENDBRANCH   3   8
BRANCH   7  11
ATOM     11  C   UNL     1       5.338   6.319  16.970  0.00  0.00    +0.000 C 
ATOM     12  O   UNL     1       5.123   6.718  15.831  0.00  0.00    +0.000 OA
BRANCH  11  13
ATOM     13  C   UNL     1       6.691   6.578  17.678  0.00  0.00    +0.000 C 
BRANCH  13  14
ATOM     14  C   UNL     1       7.580   7.737  17.194  0.00  0.00    +0.000 C 
BRANCH  14  15
ATOM     15  C   UNL     1       8.250   8.480  18.356  0.00  0.00    +0.000 C 
BRANCH  15  16
ATOM     16  C   UNL     1       8.550   9.972  18.094  0.00  0.00    +0.000 C 
BRANCH  16  17
ATOM     17  N   UNL     1       9.752  10.536  18.734  0.00  0.00    +0.000 NA
ATOM     18  C   UNL     1      10.459  11.462  17.840  0.00  0.00    +0.000 C 
ATOM     19  C   UNL     1      11.733  11.998  18.494  0.00  0.00    +0.000 C 
ATOM     20  C   UNL     1      11.440  12.690  19.818  0.00  0.00    +0.000 C 
ATOM     21  C   UNL     1      10.585  11.806  20.719  0.00  0.00    +0.000 C 
ATOM     22  C   UNL     1       9.374  11.228  19.984  0.00  0.00    +0.000 C 
ENDBRANCH  16  17
ENDBRANCH  15  16
ENDBRANCH  14  15
ENDBRANCH  13  14
ENDBRANCH  11  13
ENDBRANCH   7  11
BRANCH   1  23
ATOM     23  O   UNL     1       2.498   7.149  17.455  0.00  0.00    +0.000 OA
BRANCH  23  24
ATOM     24  C   UNL     1       2.528   8.263  18.382  0.00  0.00    +0.000 C 
BRANCH  24  25
ATOM     25  C   UNL     1       1.217   9.070  18.408  0.00  0.00    +0.000 C 
BRANCH  25  29
ATOM     26  C   UNL     1       0.054  10.993  22.144  0.00  0.00    +0.000 A 
ATOM     27  C   UNL     1       0.245   9.601  22.068  0.00  0.00    +0.000 A 
ATOM     28  C   UNL     1       0.678   8.970  20.878  0.00  0.00    +0.000 A 
ATOM     29  C   UNL     1       0.916   9.727  19.735  0.00  0.00    +0.000 A 
ATOM     30  C   UNL     1       0.772  11.129  19.832  0.00  0.00    +0.000 A 
ATOM     31  C   UNL     1       0.355  11.767  21.010  0.00  0.00    +0.000 A 
BRANCH  26  33
ATOM     32  C   UNL     1      -2.059  11.734  22.957  0.00  0.00    +0.000 C 
ATOM     33  O   UNL     1      -0.695  11.413  23.211  0.00  0.00    +0.000 OA
ENDBRANCH  26  33
BRANCH  31  34
ATOM     34  O   UNL     1       0.194  13.112  20.797  0.00  0.00    +0.000 OA
ATOM     35  C   UNL     1       0.995  14.060  21.475  0.00  0.00    +0.000 C 
ENDBRANCH  31  34
ENDBRANCH  25  29
ENDBRANCH  24  25
ENDBRANCH  23  24
ENDBRANCH   1  23
TORSDOF 13
ENDMDL
MODEL 6
REMARK VINA RESULT:      -7.4      1.109      2.019
REMARK  Name = 
REMARK  15 active torsions:
REMARK  status: ('A' for Active; 'I' for Inactive)
REMARK    1  A    between atoms: C_1  and  O_2
REMARK    2  A    between atoms: O_2  and  C_3
REMARK    3  A    between atoms: C_6  and  C_7
REMARK    4  A    between atoms: C_7  and  C_8
REMARK    5  A    between atoms: C_8  and  O_9
REMARK    6  A    between atoms: O_9  and  C_10
REMARK    7  A    between atoms: C_12  and  N_13
REMARK    8  A    between atoms: C_17  and  C_18
REMARK    9  A    between atoms: C_18  and  C_20
REMARK   10  A    between atoms: C_20  and  C_21
REMARK   11  A    between atoms: C_21  and  C_22
REMARK   12  A    between atoms: C_22  and  C_23
REMARK   13  A    between atoms: C_23  and  N_24
REMARK   14  A    between atoms: C_31  and  O_32
REMARK   15  A    between atoms: O_32  and  C_33
REMARK                            x       y       z     vdW  Elec       q    Type
REMARK                         _______ _______ _______ _____ _____    ______ ____
ROOT
ATOM      1  C   UNL     1       3.716   5.989  17.709  0.00  0.00    +0.000 A 
ATOM      2  C   UNL     1       2.676   5.223  18.281  0.00  0.00    +0.000 A 
ATOM      3  C   UNL     1       2.928   4.123  19.097  0.00  0.00    +0.000 A 
ATOM      4  C   UNL     1       4.238   3.654  19.159  0.00  0.00    +0.000 A 
ATOM      5 CL   UNL     1       4.635   2.261  20.103  0.00  0.00    +0.000 Cl
ATOM      6  C   UNL     1       5.271   4.318  18.494  0.00  0.00    +0.000 A 
ATOM      7  C   UNL     1       5.043   5.500  17.762  0.00  0.00    +0.000 A 
ENDROOT
BRANCH   3   8
ATOM      8  N   UNL     1       1.848   3.422  19.657  0.00  0.00    +0.000 N 
ATOM      9  H   UNL     1       1.684   3.619  20.640  0.00  0.00    +0.000 HD
ATOM     10  H   UNL     1       1.898   2.421  19.471  0.00  0.00    +0.000 HD
ENDBRANCH   3   8
BRANCH   7  11
ATOM     11  C   UNL     1       6.250   6.164  17.101  0.00  0.00    +0.000 C 
ATOM     12  O   UNL     1       6.431   6.091  15.891  0.00  0.00    +0.000 OA
BRANCH  11  13
ATOM     13  C   UNL     1       7.238   6.920  18.024  0.00  0.00    +0.000 C 
BRANCH  13  14
ATOM     14  C   UNL     1       7.911   8.204  17.510  0.00  0.00    +0.000 C 
BRANCH  14  15
ATOM     15  C   UNL     1       8.576   9.003  18.638  0.00  0.00    +0.000 C 
BRANCH  15  16
ATOM     16  C   UNL     1       8.732  10.515  18.367  0.00  0.00    +0.000 C 
BRANCH  16  17
ATOM     17  N   UNL     1      10.105  11.045  18.296  0.00  0.00    +0.000 NA
ATOM     18  C   UNL     1      10.167  12.290  17.518  0.00  0.00    +0.000 C 
ATOM     19  C   UNL     1      11.604  12.800  17.406  0.00  0.00    +0.000 C 
ATOM     20  C   UNL     1      12.235  13.021  18.774  0.00  0.00    +0.000 C 
ATOM     21  C   UNL     1      12.064  11.791  19.658  0.00  0.00    +0.000 C 
ATOM     22  C   UNL     1      10.623  11.274  19.661  0.00  0.00    +0.000 C 
ENDBRANCH  16  17
ENDBRANCH  15  16
ENDBRANCH  14  15
ENDBRANCH  13  14
ENDBRANCH  11  13
ENDBRANCH   7  11
BRANCH   1  23
ATOM     23  O   UNL     1       3.439   7.206  17.129  0.00  0.00    +0.000 OA
BRANCH  23  24
ATOM     24  C   UNL     1       2.994   8.282  17.993  0.00  0.00    +0.000 C 
BRANCH  24  25
ATOM     25  C   UNL     1       1.558   8.751  17.693  0.00  0.00    +0.000 C 
BRANCH  25  29
ATOM     26  C   UNL     1      -0.517  10.768  20.955  0.00  0.00    +0.000 A 
ATOM     27  C   UNL     1       0.699  10.094  21.169  0.00  0.00    +0.000 A 
ATOM     28  C   UNL     1       1.413   9.484  20.110  0.00  0.00    +0.000 A 
ATOM     29  C   UNL     1       0.909   9.530  18.815  0.00  0.00    +0.000 A 
ATOM     30  C   UNL     1      -0.284  10.252  18.597  0.00  0.00    +0.000 A 
ATOM     31  C   UNL     1      -0.994  10.871  19.637  0.00  0.00    +0.000 A 
BRANCH  26  33
ATOM     32  C   UNL     1      -0.902  10.247  23.246  0.00  0.00    +0.000 C 
ATOM     33  O   UNL     1      -1.261  10.986  22.083  0.00  0.00    +0.000 OA
ENDBRANCH  26  33
BRANCH  31  34
ATOM     34  O   UNL     1      -2.167  11.404  19.167  0.00  0.00    +0.000 OA
ATOM     35  C   UNL     1      -2.601  12.688  19.574  0.00  0.00    +0.000 C 
ENDBRANCH  31  34
ENDBRANCH  25  29
ENDBRANCH  24  25
ENDBRANCH  23  24
ENDBRANCH   1  23
TORSDOF 13
ENDMDL
MODEL 7
REMARK VINA RESULT:      -7.4      1.382      2.068
REMARK  Name = 
REMARK  15 active torsions:
REMARK  status: ('A' for Active; 'I' for Inactive)
REMARK    1  A    between atoms: C_1  and  O_2
REMARK    2  A    between atoms: O_2  and  C_3
REMARK    3  A    between atoms: C_6  and  C_7
REMARK    4  A    between atoms: C_7  and  C_8
REMARK    5  A    between atoms: C_8  and  O_9
REMARK    6  A    between atoms: O_9  and  C_10
REMARK    7  A    between atoms: C_12  and  N_13
REMARK    8  A    between atoms: C_17  and  C_18
REMARK    9  A    between atoms: C_18  and  C_20
REMARK   10  A    between atoms: C_20  and  C_21
REMARK   11  A    between atoms: C_21  and  C_22
REMARK   12  A    between atoms: C_22  and  C_23
REMARK   13  A    between atoms: C_23  and  N_24
REMARK   14  A    between atoms: C_31  and  O_32
REMARK   15  A    between atoms: O_32  and  C_33
REMARK                            x       y       z     vdW  Elec       q    Type
REMARK                         _______ _______ _______ _____ _____    ______ ____
ROOT
ATOM      1  C   UNL     1       3.455   5.619  19.105  0.00  0.00    +0.000 A 
ATOM      2  C   UNL     1       2.278   4.856  18.942  0.00  0.00    +0.000 A 
ATOM      3  C   UNL     1       2.305   3.469  18.814  0.00  0.00    +0.000 A 
ATOM      4  C   UNL     1       3.545   2.864  18.627  0.00  0.00    +0.000 A 
ATOM      5 CL   UNL     1       3.670   1.154  18.406  0.00  0.00    +0.000 Cl
ATOM      6  C   UNL     1       4.723   3.615  18.654  0.00  0.00    +0.000 A 
ATOM      7  C   UNL     1       4.712   5.001  18.899  0.00  0.00    +0.000 A 
ENDROOT
BRANCH   3   8
ATOM      8  N   UNL     1       1.095   2.769  18.683  0.00  0.00    +0.000 N 
ATOM      9  H   UNL     1       1.200   1.765  18.572  0.00  0.00    +0.000 HD
ATOM     10  H   UNL     1       0.491   3.171  17.966  0.00  0.00    +0.000 HD
ENDBRANCH   3   8
BRANCH   7  11
ATOM     11  C   UNL     1       6.060   5.721  18.940  0.00  0.00    +0.000 C 
ATOM     12  O   UNL     1       6.896   5.456  19.796  0.00  0.00    +0.000 OA
BRANCH  11  13
ATOM     13  C   UNL     1       6.317   6.806  17.864  0.00  0.00    +0.000 C 
BRANCH  13  14
ATOM     14  C   UNL     1       7.766   7.202  17.530  0.00  0.00    +0.000 C 
BRANCH  14  15
ATOM     15  C   UNL     1       8.290   8.314  18.447  0.00  0.00    +0.000 C 
BRANCH  15  16
ATOM     16  C   UNL     1       8.225   9.738  17.853  0.00  0.00    +0.000 C 
BRANCH  16  17
ATOM     17  N   UNL     1       9.023  10.781  18.522  0.00  0.00    +0.000 NA
ATOM     18  C   UNL     1       9.341  10.415  19.909  0.00  0.00    +0.000 C 
ATOM     19  C   UNL     1      10.121  11.529  20.609  0.00  0.00    +0.000 C 
ATOM     20  C   UNL     1      11.403  11.875  19.865  0.00  0.00    +0.000 C 
ATOM     21  C   UNL     1      11.127  12.125  18.387  0.00  0.00    +0.000 C 
ATOM     22  C   UNL     1      10.268  11.022  17.764  0.00  0.00    +0.000 C 
ENDBRANCH  16  17
ENDBRANCH  15  16
ENDBRANCH  14  15
ENDBRANCH  13  14
ENDBRANCH  11  13
ENDBRANCH   7  11
BRANCH   1  23
ATOM     23  O   UNL     1       3.376   6.940  19.484  0.00  0.00    +0.000 OA
BRANCH  23  24
ATOM     24  C   UNL     1       2.068   7.566  19.487  0.00  0.00    +0.000 C 
BRANCH  24  25
ATOM     25  C   UNL     1       1.381   7.537  20.865  0.00  0.00    +0.000 C 
BRANCH  25  29
ATOM     26  C   UNL     1      -0.923  11.090  21.902  0.00  0.00    +0.000 A 
ATOM     27  C   UNL     1      -0.300  10.309  22.893  0.00  0.00    +0.000 A 
ATOM     28  C   UNL     1       0.499   9.187  22.568  0.00  0.00    +0.000 A 
ATOM     29  C   UNL     1       0.676   8.820  21.238  0.00  0.00    +0.000 A 
ATOM     30  C   UNL     1       0.091   9.638  20.246  0.00  0.00    +0.000 A 
ATOM     31  C   UNL     1      -0.693  10.760  20.556  0.00  0.00    +0.000 A 
BRANCH  26  33
ATOM     32  C   UNL     1      -1.727  13.304  22.253  0.00  0.00    +0.000 C 
ATOM     33  O   UNL     1      -1.930  11.898  22.356  0.00  0.00    +0.000 OA
ENDBRANCH  26  33
BRANCH  31  34
ATOM     34  O   UNL     1      -1.225  11.304  19.415  0.00  0.00    +0.000 OA
ATOM     35  C   UNL     1      -0.566  12.350  18.728  0.00  0.00    +0.000 C 
ENDBRANCH  31  34
ENDBRANCH  25  29
ENDBRANCH  24  25
ENDBRANCH  23  24
ENDBRANCH   1  23
TORSDOF 13
ENDMDL
MODEL 8
REMARK VINA RESULT:      -7.3      1.079      1.330
REMARK  Name = 
REMARK  15 active torsions:
REMARK  status: ('A' for Active; 'I' for Inactive)
REMARK    1  A    between atoms: C_1  and  O_2
REMARK    2  A    between atoms: O_2  and  C_3
REMARK    3  A    between atoms: C_6  and  C_7
REMARK    4  A    between atoms: C_7  and  C_8
REMARK    5  A    between atoms: C_8  and  O_9
REMARK    6  A    between atoms: O_9  and  C_10
REMARK    7  A    between atoms: C_12  and  N_13
REMARK    8  A    between atoms: C_17  and  C_18
REMARK    9  A    between atoms: C_18  and  C_20
REMARK   10  A    between atoms: C_20  and  C_21
REMARK   11  A    between atoms: C_21  and  C_22
REMARK   12  A    between atoms: C_22  and  C_23
REMARK   13  A    between atoms: C_23  and  N_24
REMARK   14  A    between atoms: C_31  and  O_32
REMARK   15  A    between atoms: O_32  and  C_33
REMARK                            x       y       z     vdW  Elec       q    Type
REMARK                         _______ _______ _______ _____ _____    ______ ____
ROOT
ATOM      1  C   UNL     1       3.469   6.408  18.127  0.00  0.00    +0.000 A 
ATOM      2  C   UNL     1       2.473   5.648  18.779  0.00  0.00    +0.000 A 
ATOM      3  C   UNL     1       2.757   4.442  19.414  0.00  0.00    +0.000 A 
ATOM      4  C   UNL     1       4.014   3.883  19.201  0.00  0.00    +0.000 A 
ATOM      5 CL   UNL     1       4.436   2.361  19.905  0.00  0.00    +0.000 Cl
ATOM      6  C   UNL     1       4.981   4.553  18.448  0.00  0.00    +0.000 A 
ATOM      7  C   UNL     1       4.740   5.829  17.901  0.00  0.00    +0.000 A 
ENDROOT
BRANCH   3   8
ATOM      8  N   UNL     1       1.723   3.751  20.068  0.00  0.00    +0.000 N 
ATOM      9  H   UNL     1       1.182   4.319  20.713  0.00  0.00    +0.000 HD
ATOM     10  H   UNL     1       2.049   2.887  20.500  0.00  0.00    +0.000 HD
ENDBRANCH   3   8
BRANCH   7  11
ATOM     11  C   UNL     1       5.879   6.488  17.121  0.00  0.00    +0.000 C 
ATOM     12  O   UNL     1       5.879   6.511  15.896  0.00  0.00    +0.000 OA
BRANCH  11  13
ATOM     13  C   UNL     1       7.034   7.109  17.945  0.00  0.00    +0.000 C 
BRANCH  13  14
ATOM     14  C   UNL     1       7.877   8.236  17.321  0.00  0.00    +0.000 C 
BRANCH  14  15
ATOM     15  C   UNL     1       8.418   9.208  18.376  0.00  0.00    +0.000 C 
BRANCH  15  16
ATOM     16  C   UNL     1       8.652  10.651  17.879  0.00  0.00    +0.000 C 
BRANCH  16  17
ATOM     17  N   UNL     1       9.631  11.466  18.621  0.00  0.00    +0.000 NA
ATOM     18  C   UNL     1       9.411  12.903  18.412  0.00  0.00    +0.000 C 
ATOM     19  C   UNL     1      10.466  13.735  19.142  0.00  0.00    +0.000 C 
ATOM     20  C   UNL     1      10.491  13.433  20.634  0.00  0.00    +0.000 C 
ATOM     21  C   UNL     1      10.579  11.933  20.887  0.00  0.00    +0.000 C 
ATOM     22  C   UNL     1       9.557  11.146  20.062  0.00  0.00    +0.000 C 
ENDBRANCH  16  17
ENDBRANCH  15  16
ENDBRANCH  14  15
ENDBRANCH  13  14
ENDBRANCH  11  13
ENDBRANCH   7  11
BRANCH   1  23
ATOM     23  O   UNL     1       3.209   7.703  17.740  0.00  0.00    +0.000 OA
BRANCH  23  24
ATOM     24  C   UNL     1       1.870   8.217  17.952  0.00  0.00    +0.000 C 
BRANCH  24  25
ATOM     25  C   UNL     1       1.823   9.749  18.111  0.00  0.00    +0.000 C 
BRANCH  25  29
ATOM     26  C   UNL     1      -1.380  11.471  20.516  0.00  0.00    +0.000 A 
ATOM     27  C   UNL     1      -1.460  11.434  19.111  0.00  0.00    +0.000 A 
ATOM     28  C   UNL     1      -0.456  10.827  18.320  0.00  0.00    +0.000 A 
ATOM     29  C   UNL     1       0.657  10.255  18.928  0.00  0.00    +0.000 A 
ATOM     30  C   UNL     1       0.706  10.248  20.339  0.00  0.00    +0.000 A 
ATOM     31  C   UNL     1      -0.289  10.837  21.134  0.00  0.00    +0.000 A 
BRANCH  26  33
ATOM     32  C   UNL     1      -2.184  13.711  20.606  0.00  0.00    +0.000 C 
ATOM     33  O   UNL     1      -2.209  12.381  21.115  0.00  0.00    +0.000 OA
ENDBRANCH  26  33
BRANCH  31  34
ATOM     34  O   UNL     1       0.061  10.785  22.459  0.00  0.00    +0.000 OA
ATOM     35  C   UNL     1       0.119   9.553  23.152  0.00  0.00    +0.000 C 
ENDBRANCH  31  34
ENDBRANCH  25  29
ENDBRANCH  24  25
ENDBRANCH  23  24
ENDBRANCH   1  23
TORSDOF 13
ENDMDL
MODEL 9
REMARK VINA RESULT:      -7.3      1.086      1.392
REMARK  Name = 
REMARK  15 active torsions:
REMARK  status: ('A' for Active; 'I' for Inactive)
REMARK    1  A    between atoms: C_1  and  O_2
REMARK    2  A    between atoms: O_2  and  C_3
REMARK    3  A    between atoms: C_6  and  C_7
REMARK    4  A    between atoms: C_7  and  C_8
REMARK    5  A    between atoms: C_8  and  O_9
REMARK    6  A    between atoms: O_9  and  C_10
REMARK    7  A    between atoms: C_12  and  N_13
REMARK    8  A    between atoms: C_17  and  C_18
REMARK    9  A    between atoms: C_18  and  C_20
REMARK   10  A    between atoms: C_20  and  C_21
REMARK   11  A    between atoms: C_21  and  C_22
REMARK   12  A    between atoms: C_22  and  C_23
REMARK   13  A    between atoms: C_23  and  N_24
REMARK   14  A    between atoms: C_31  and  O_32
REMARK   15  A    between atoms: O_32  and  C_33
REMARK                            x       y       z     vdW  Elec       q    Type
REMARK                         _______ _______ _______ _____ _____    ______ ____
ROOT
ATOM      1  C   UNL     1       3.286   6.144  17.979  0.00  0.00    +0.000 A 
ATOM      2  C   UNL     1       2.340   5.312  18.617  0.00  0.00    +0.000 A 
ATOM      3  C   UNL     1       2.703   4.132  19.261  0.00  0.00    +0.000 A 
ATOM      4  C   UNL     1       4.002   3.669  19.071  0.00  0.00    +0.000 A 
ATOM      5 CL   UNL     1       4.526   2.185  19.786  0.00  0.00    +0.000 Cl
ATOM      6  C   UNL     1       4.928   4.409  18.331  0.00  0.00    +0.000 A 
ATOM      7  C   UNL     1       4.601   5.662  17.776  0.00  0.00    +0.000 A 
ENDROOT
BRANCH   3   8
ATOM      8  N   UNL     1       1.714   3.366  19.900  0.00  0.00    +0.000 N 
ATOM      9  H   UNL     1       1.658   2.403  19.583  0.00  0.00    +0.000 HD
ATOM     10  H   UNL     1       0.804   3.825  19.889  0.00  0.00    +0.000 HD
ENDBRANCH   3   8
BRANCH   7  11
ATOM     11  C   UNL     1       5.700   6.403  17.014  0.00  0.00    +0.000 C 
ATOM     12  O   UNL     1       6.110   5.994  15.934  0.00  0.00    +0.000 OA
BRANCH  11  13
ATOM     13  C   UNL     1       6.278   7.682  17.670  0.00  0.00    +0.000 C 
BRANCH  13  14
ATOM     14  C   UNL     1       7.805   7.837  17.790  0.00  0.00    +0.000 C 
BRANCH  14  15
ATOM     15  C   UNL     1       8.252   9.298  17.664  0.00  0.00    +0.000 C 
BRANCH  15  16
ATOM     16  C   UNL     1       8.995   9.864  18.893  0.00  0.00    +0.000 C 
BRANCH  16  17
ATOM     17  N   UNL     1       9.642  11.179  18.738  0.00  0.00    +0.000 NA
ATOM     18  C   UNL     1      10.906  11.079  17.995  0.00  0.00    +0.000 C 
ATOM     19  C   UNL     1      11.594  12.440  17.890  0.00  0.00    +0.000 C 
ATOM     20  C   UNL     1      10.696  13.478  17.232  0.00  0.00    +0.000 C 
ATOM     21  C   UNL     1       9.323  13.510  17.893  0.00  0.00    +0.000 C 
ATOM     22  C   UNL     1       8.723  12.111  18.052  0.00  0.00    +0.000 C 
ENDBRANCH  16  17
ENDBRANCH  15  16
ENDBRANCH  14  15
ENDBRANCH  13  14
ENDBRANCH  11  13
ENDBRANCH   7  11
BRANCH   1  23
ATOM     23  O   UNL     1       2.936   7.415  17.584  0.00  0.00    +0.000 OA
BRANCH  23  24
ATOM     24  C   UNL     1       2.250   8.257  18.545  0.00  0.00    +0.000 C 
BRANCH  24  25
ATOM     25  C   UNL     1       1.421   9.378  17.890  0.00  0.00    +0.000 C 
BRANCH  25  29
ATOM     26  C   UNL     1      -1.276  11.506  20.575  0.00  0.00    +0.000 A 
ATOM     27  C   UNL     1      -1.510  11.463  19.188  0.00  0.00    +0.000 A 
ATOM     28  C   UNL     1      -0.676  10.729  18.311  0.00  0.00    +0.000 A 
ATOM     29  C   UNL     1       0.419  10.032  18.813  0.00  0.00    +0.000 A 
ATOM     30  C   UNL     1       0.618  10.036  20.210  0.00  0.00    +0.000 A 
ATOM     31  C   UNL     1      -0.208  10.751  21.091  0.00  0.00    +0.000 A 
BRANCH  26  33
ATOM     32  C   UNL     1      -1.761  13.833  20.715  0.00  0.00    +0.000 C 
ATOM     33  O   UNL     1      -1.920  12.517  21.236  0.00  0.00    +0.000 OA
ENDBRANCH  26  33
BRANCH  31  34
ATOM     34  O   UNL     1       0.273  10.673  22.372  0.00  0.00    +0.000 OA
ATOM     35  C   UNL     1      -0.118   9.624  23.237  0.00  0.00    +0.000 C 
ENDBRANCH  31  34
ENDBRANCH  25  29
ENDBRANCH  24  25
ENDBRANCH  23  24
ENDBRANCH   1  23
TORSDOF 13
ENDMDL
