MODEL 1
REMARK VINA RESULT:      -6.6      0.000      0.000
REMARK  Name = 
REMARK  6 active torsions:
REMARK  status: ('A' for Active; 'I' for Inactive)
REMARK    1  A    between atoms: N_1  and  S_2
REMARK    2  A    between atoms: S_2  and  C_5
REMARK    3  A    between atoms: C_8  and  N_9
REMARK    4  A    between atoms: N_9  and  C_10
REMARK    5  A    between atoms: C_10  and  N_12
REMARK    6  A    between atoms: C_15  and  O_16
REMARK                            x       y       z     vdW  Elec       q    Type
REMARK                         _______ _______ _______ _____ _____    ______ ____
ROOT
ATOM      1  C   UNL     1       1.204   8.802  19.863  0.00  0.00    +0.000 A 
ATOM      2  C   UNL     1       1.650   9.114  18.579  0.00  0.00    +0.000 A 
ATOM      3  C   UNL     1       2.508   8.223  17.916  0.00  0.00    +0.000 A 
ATOM      4  C   UNL     1       2.947   7.049  18.543  0.00  0.00    +0.000 A 
ATOM      5  C   UNL     1       2.492   6.756  19.831  0.00  0.00    +0.000 A 
ATOM      6  C   UNL     1       1.629   7.628  20.493  0.00  0.00    +0.000 A 
ENDROOT
BRANCH   1   7
ATOM      7  S   UNL     1       0.102   9.858  20.743  0.00  0.00    +0.000 S 
ATOM      8  O   UNL     1      -0.465   9.143  21.871  0.00  0.00    +0.000 OA
ATOM      9  O   UNL     1      -0.729  10.577  19.802  0.00  0.00    +0.000 OA
BRANCH   7  10
ATOM     10  N   UNL     1       1.158  10.999  21.377  0.00  0.00    +0.000 NA
ATOM     11  H   UNL     1       2.079  10.577  21.496  0.00  0.00    +0.000 HD
ATOM     12  H   UNL     1       0.786  11.388  22.243  0.00  0.00    +0.000 HD
ENDBRANCH   7  10
ENDBRANCH   1   7
BRANCH   4  13
ATOM     13  N   UNL     1       3.751   6.142  17.820  0.00  0.00    +0.000 N 
ATOM     14  H   UNL     1       3.929   6.383  16.854  0.00  0.00    +0.000 HD
BRANCH  13  15
ATOM     15  C   UNL     1       4.555   5.112  18.298  0.00  0.00    +0.000 C 
ATOM     16  S   UNL     1       6.130   5.350  18.849  0.00  0.00    +0.000 S 
BRANCH  15  17
ATOM     17  N   UNL     1       3.934   3.846  18.189  0.00  0.00    +0.000 N 
ATOM     18  C   UNL     1       3.916   2.875  19.302  0.00  0.00    +0.000 C 
ATOM     19  C   UNL     1       2.595   2.965  20.064  0.00  0.00    +0.000 C 
ATOM     20  C   UNL     1       1.391   2.822  19.126  0.00  0.00    +0.000 C 
ATOM     21  C   UNL     1       1.499   3.738  17.905  0.00  0.00    +0.000 C 
ATOM     22  C   UNL     1       2.858   3.606  17.217  0.00  0.00    +0.000 C 
BRANCH  20  23
ATOM     23  O   UNL     1       1.236   1.465  18.714  0.00  0.00    +0.000 OA
ATOM     24  H   UNL     1       0.388   1.361  18.253  0.00  0.00    +0.000 HD
ENDBRANCH  20  23
ENDBRANCH  15  17
ENDBRANCH  13  15
ENDBRANCH   4  13
TORSDOF 6
ENDMDL
MODEL 2
REMARK VINA RESULT:      -6.6      2.375      3.381
REMARK  Name = 
REMARK  6 active torsions:
REMARK  status: ('A' for Active; 'I' for Inactive)
REMARK    1  A    between atoms: N_1  and  S_2
REMARK    2  A    between atoms: S_2  and  C_5
REMARK    3  A    between atoms: C_8  and  N_9
REMARK    4  A    between atoms: N_9  and  C_10
REMARK    5  A    between atoms: C_10  and  N_12
REMARK    6  A    between atoms: C_15  and  O_16
REMARK                            x       y       z     vdW  Elec       q    Type
REMARK                         _______ _______ _______ _____ _____    ______ ____
ROOT
ATOM      1  C   UNL     1       1.050   9.168  19.956  0.00  0.00    +0.000 A 
ATOM      2  C   UNL     1       1.502   8.024  20.615  0.00  0.00    +0.000 A 
ATOM      3  C   UNL     1       2.270   7.085  19.910  0.00  0.00    +0.000 A 
ATOM      4  C   UNL     1       2.553   7.266  18.550  0.00  0.00    +0.000 A 
ATOM      5  C   UNL     1       2.088   8.416  17.906  0.00  0.00    +0.000 A 
ATOM      6  C   UNL     1       1.336   9.361  18.601  0.00  0.00    +0.000 A 
ENDROOT
BRANCH   1   7
ATOM      7  S   UNL     1       0.107  10.404  20.785  0.00  0.00    +0.000 S 
ATOM      8  O   UNL     1      -0.342   9.899  22.069  0.00  0.00    +0.000 OA
ATOM      9  O   UNL     1      -0.806  11.020  19.848  0.00  0.00    +0.000 OA
BRANCH   7  10
ATOM     10  N   UNL     1       1.277  11.566  21.105  0.00  0.00    +0.000 NA
ATOM     11  H   UNL     1       1.670  11.401  22.032  0.00  0.00    +0.000 HD
ATOM     12  H   UNL     1       0.887  12.503  21.001  0.00  0.00    +0.000 HD
ENDBRANCH   7  10
ENDBRANCH   1   7
BRANCH   4  13
ATOM     13  N   UNL     1       3.388   6.338  17.891  0.00  0.00    +0.000 N 
ATOM     14  H   UNL     1       4.308   6.674  17.639  0.00  0.00    +0.000 HD
BRANCH  13  15
ATOM     15  C   UNL     1       3.242   4.959  17.775  0.00  0.00    +0.000 C 
ATOM     16  S   UNL     1       1.744   4.188  17.760  0.00  0.00    +0.000 S 
BRANCH  15  17
ATOM     17  N   UNL     1       4.484   4.283  17.758  0.00  0.00    +0.000 N 
ATOM     18  C   UNL     1       5.236   4.038  16.511  0.00  0.00    +0.000 C 
ATOM     19  C   UNL     1       6.315   5.104  16.323  0.00  0.00    +0.000 C 
ATOM     20  C   UNL     1       7.220   5.213  17.554  0.00  0.00    +0.000 C 
ATOM     21  C   UNL     1       6.417   5.325  18.853  0.00  0.00    +0.000 C 
ATOM     22  C   UNL     1       5.344   4.240  18.949  0.00  0.00    +0.000 C 
BRANCH  20  23
ATOM     23  O   UNL     1       8.114   4.103  17.619  0.00  0.00    +0.000 OA
ATOM     24  H   UNL     1       8.984   4.367  17.279  0.00  0.00    +0.000 HD
ENDBRANCH  20  23
ENDBRANCH  15  17
ENDBRANCH  13  15
ENDBRANCH   4  13
TORSDOF 6
ENDMDL
MODEL 3
REMARK VINA RESULT:      -6.6      0.797      1.425
REMARK  Name = 
REMARK  6 active torsions:
REMARK  status: ('A' for Active; 'I' for Inactive)
REMARK    1  A    between atoms: N_1  and  S_2
REMARK    2  A    between atoms: S_2  and  C_5
REMARK    3  A    between atoms: C_8  and  N_9
REMARK    4  A    between atoms: N_9  and  C_10
REMARK    5  A    between atoms: C_10  and  N_12
REMARK    6  A    between atoms: C_15  and  O_16
REMARK                            x       y       z     vdW  Elec       q    Type
REMARK                         _______ _______ _______ _____ _____    ______ ____
ROOT
ATOM      1  C   UNL     1       1.281   8.933  19.628  0.00  0.00    +0.000 A 
ATOM      2  C   UNL     1       1.646   7.768  20.305  0.00  0.00    +0.000 A 
ATOM      3  C   UNL     1       2.492   6.844  19.672  0.00  0.00    +0.000 A 
ATOM      4  C   UNL     1       2.939   7.061  18.362  0.00  0.00    +0.000 A 
ATOM      5  C   UNL     1       2.559   8.231  17.699  0.00  0.00    +0.000 A 
ATOM      6  C   UNL     1       1.730   9.162  18.324  0.00  0.00    +0.000 A 
ENDROOT
BRANCH   1   7
ATOM      7  S   UNL     1       0.248  10.151  20.371  0.00  0.00    +0.000 S 
ATOM      8  O   UNL     1      -0.943  10.341  19.565  0.00  0.00    +0.000 OA
ATOM      9  O   UNL     1       1.059  11.267  20.807  0.00  0.00    +0.000 OA
BRANCH   7  10
ATOM     10  N   UNL     1      -0.240   9.372  21.777  0.00  0.00    +0.000 NA
ATOM     11  H   UNL     1       0.341   9.687  22.555  0.00  0.00    +0.000 HD
ATOM     12  H   UNL     1      -0.218   8.361  21.651  0.00  0.00    +0.000 HD
ENDBRANCH   7  10
ENDBRANCH   1   7
BRANCH   4  13
ATOM     13  N   UNL     1       3.845   6.147  17.784  0.00  0.00    +0.000 N 
ATOM     14  H   UNL     1       4.176   6.380  16.857  0.00  0.00    +0.000 HD
BRANCH  13  15
ATOM     15  C   UNL     1       4.559   5.119  18.393  0.00  0.00    +0.000 C 
ATOM     16  S   UNL     1       6.077   5.338  19.092  0.00  0.00    +0.000 S 
BRANCH  15  17
ATOM     17  N   UNL     1       3.908   3.868  18.281  0.00  0.00    +0.000 N 
ATOM     18  C   UNL     1       3.790   2.933  19.418  0.00  0.00    +0.000 C 
ATOM     19  C   UNL     1       2.426   3.085  20.090  0.00  0.00    +0.000 C 
ATOM     20  C   UNL     1       1.281   2.947  19.081  0.00  0.00    +0.000 C 
ATOM     21  C   UNL     1       1.494   3.821  17.843  0.00  0.00    +0.000 C 
ATOM     22  C   UNL     1       2.890   3.629  17.249  0.00  0.00    +0.000 C 
BRANCH  20  23
ATOM     23  O   UNL     1       1.111   1.583  18.700  0.00  0.00    +0.000 OA
ATOM     24  H   UNL     1       0.164   1.376  18.649  0.00  0.00    +0.000 HD
ENDBRANCH  20  23
ENDBRANCH  15  17
ENDBRANCH  13  15
ENDBRANCH   4  13
TORSDOF 6
ENDMDL
MODEL 4
REMARK VINA RESULT:      -6.6      2.720      3.529
REMARK  Name = 
REMARK  6 active torsions:
REMARK  status: ('A' for Active; 'I' for Inactive)
REMARK    1  A    between atoms: N_1  and  S_2
REMARK    2  A    between atoms: S_2  and  C_5
REMARK    3  A    between atoms: C_8  and  N_9
REMARK    4  A    between atoms: N_9  and  C_10
REMARK    5  A    between atoms: C_10  and  N_12
REMARK    6  A    between atoms: C_15  and  O_16
REMARK                            x       y       z     vdW  Elec       q    Type
REMARK                         _______ _______ _______ _____ _____    ______ ____
ROOT
ATOM      1  C   UNL     1       1.353   9.315  19.538  0.00  0.00    +0.000 A 
ATOM      2  C   UNL     1       1.774   9.315  18.207  0.00  0.00    +0.000 A 
ATOM      3  C   UNL     1       2.375   8.162  17.679  0.00  0.00    +0.000 A 
ATOM      4  C   UNL     1       2.589   7.033  18.480  0.00  0.00    +0.000 A 
ATOM      5  C   UNL     1       2.164   7.054  19.811  0.00  0.00    +0.000 A 
ATOM      6  C   UNL     1       1.554   8.189  20.342  0.00  0.00    +0.000 A 
ENDROOT
BRANCH   1   7
ATOM      7  S   UNL     1       0.564  10.715  20.260  0.00  0.00    +0.000 S 
ATOM      8  O   UNL     1      -0.875  10.596  20.115  0.00  0.00    +0.000 OA
ATOM      9  O   UNL     1       1.271  11.917  19.874  0.00  0.00    +0.000 OA
BRANCH   7  10
ATOM     10  N   UNL     1       0.905  10.495  21.889  0.00  0.00    +0.000 NA
ATOM     11  H   UNL     1       1.911  10.579  22.037  0.00  0.00    +0.000 HD
ATOM     12  H   UNL     1       0.530   9.604  22.216  0.00  0.00    +0.000 HD
ENDBRANCH   7  10
ENDBRANCH   1   7
BRANCH   4  13
ATOM     13  N   UNL     1       3.130   5.867  17.896  0.00  0.00    +0.000 N 
ATOM     14  H   UNL     1       2.660   5.530  17.067  0.00  0.00    +0.000 HD
BRANCH  13  15
ATOM     15  C   UNL     1       4.363   5.266  18.126  0.00  0.00    +0.000 C 
ATOM     16  S   UNL     1       4.614   4.100  19.316  0.00  0.00    +0.000 S 
BRANCH  15  17
ATOM     17  N   UNL     1       5.388   5.805  17.313  0.00  0.00    +0.000 N 
ATOM     18  C   UNL     1       6.819   5.541  17.565  0.00  0.00    +0.000 C 
ATOM     19  C   UNL     1       7.315   4.405  16.673  0.00  0.00    +0.000 C 
ATOM     20  C   UNL     1       7.008   4.671  15.196  0.00  0.00    +0.000 C 
ATOM     21  C   UNL     1       5.550   5.081  14.974  0.00  0.00    +0.000 C 
ATOM     22  C   UNL     1       5.127   6.203  15.922  0.00  0.00    +0.000 C 
BRANCH  20  23
ATOM     23  O   UNL     1       7.886   5.668  14.674  0.00  0.00    +0.000 OA
ATOM     24  H   UNL     1       7.473   6.542  14.762  0.00  0.00    +0.000 HD
ENDBRANCH  20  23
ENDBRANCH  15  17
ENDBRANCH  13  15
ENDBRANCH   4  13
TORSDOF 6
ENDMDL
MODEL 5
REMARK VINA RESULT:      -6.6      1.456      1.980
REMARK  Name = 
REMARK  6 active torsions:
REMARK  status: ('A' for Active; 'I' for Inactive)
REMARK    1  A    between atoms: N_1  and  S_2
REMARK    2  A    between atoms: S_2  and  C_5
REMARK    3  A    between atoms: C_8  and  N_9
REMARK    4  A    between atoms: N_9  and  C_10
REMARK    5  A    between atoms: C_10  and  N_12
REMARK    6  A    between atoms: C_15  and  O_16
REMARK                            x       y       z     vdW  Elec       q    Type
REMARK                         _______ _______ _______ _____ _____    ______ ____
ROOT
ATOM      1  C   UNL     1       1.071   9.232  19.276  0.00  0.00    +0.000 A 
ATOM      2  C   UNL     1       1.057   8.660  20.549  0.00  0.00    +0.000 A 
ATOM      3  C   UNL     1       1.833   7.517  20.796  0.00  0.00    +0.000 A 
ATOM      4  C   UNL     1       2.588   6.928  19.773  0.00  0.00    +0.000 A 
ATOM      5  C   UNL     1       2.586   7.513  18.504  0.00  0.00    +0.000 A 
ATOM      6  C   UNL     1       1.829   8.655  18.252  0.00  0.00    +0.000 A 
ENDROOT
BRANCH   1   7
ATOM      7  S   UNL     1       0.146  10.683  18.902  0.00  0.00    +0.000 S 
ATOM      8  O   UNL     1       1.050  11.769  18.573  0.00  0.00    +0.000 OA
ATOM      9  O   UNL     1      -0.912  10.842  19.875  0.00  0.00    +0.000 OA
BRANCH   7  10
ATOM     10  N   UNL     1      -0.617  10.241  17.473  0.00  0.00    +0.000 NA
ATOM     11  H   UNL     1      -1.567  10.615  17.470  0.00  0.00    +0.000 HD
ATOM     12  H   UNL     1      -0.590   9.229  17.352  0.00  0.00    +0.000 HD
ENDBRANCH   7  10
ENDBRANCH   1   7
BRANCH   4  13
ATOM     13  N   UNL     1       3.412   5.822  20.075  0.00  0.00    +0.000 N 
ATOM     14  H   UNL     1       3.292   5.421  20.996  0.00  0.00    +0.000 HD
BRANCH  13  15
ATOM     15  C   UNL     1       4.170   5.035  19.214  0.00  0.00    +0.000 C 
ATOM     16  S   UNL     1       5.671   5.507  18.612  0.00  0.00    +0.000 S 
BRANCH  15  17
ATOM     17  N   UNL     1       3.501   3.846  18.838  0.00  0.00    +0.000 N 
ATOM     18  C   UNL     1       3.048   2.847  19.826  0.00  0.00    +0.000 C 
ATOM     19  C   UNL     1       1.569   3.053  20.150  0.00  0.00    +0.000 C 
ATOM     20  C   UNL     1       0.711   3.070  18.881  0.00  0.00    +0.000 C 
ATOM     21  C   UNL     1       1.278   4.009  17.813  0.00  0.00    +0.000 C 
ATOM     22  C   UNL     1       2.765   3.755  17.569  0.00  0.00    +0.000 C 
BRANCH  20  23
ATOM     23  O   UNL     1       0.568   1.752  18.355  0.00  0.00    +0.000 OA
ATOM     24  H   UNL     1      -0.184   1.727  17.741  0.00  0.00    +0.000 HD
ENDBRANCH  20  23
ENDBRANCH  15  17
ENDBRANCH  13  15
ENDBRANCH   4  13
TORSDOF 6
ENDMDL
MODEL 6
REMARK VINA RESULT:      -6.6      2.454      3.291
REMARK  Name = 
REMARK  6 active torsions:
REMARK  status: ('A' for Active; 'I' for Inactive)
REMARK    1  A    between atoms: N_1  and  S_2
REMARK    2  A    between atoms: S_2  and  C_5
REMARK    3  A    between atoms: C_8  and  N_9
REMARK    4  A    between atoms: N_9  and  C_10
REMARK    5  A    between atoms: C_10  and  N_12
REMARK    6  A    between atoms: C_15  and  O_16
REMARK                            x       y       z     vdW  Elec       q    Type
REMARK                         _______ _______ _______ _____ _____    ______ ____
ROOT
ATOM      1  C   UNL     1       1.174   9.150  19.989  0.00  0.00    +0.000 A 
ATOM      2  C   UNL     1       1.455   9.394  18.644  0.00  0.00    +0.000 A 
ATOM      3  C   UNL     1       2.159   8.431  17.905  0.00  0.00    +0.000 A 
ATOM      4  C   UNL     1       2.611   7.252  18.511  0.00  0.00    +0.000 A 
ATOM      5  C   UNL     1       2.324   7.027  19.860  0.00  0.00    +0.000 A 
ATOM      6  C   UNL     1       1.614   7.972  20.599  0.00  0.00    +0.000 A 
ENDROOT
BRANCH   1   7
ATOM      7  S   UNL     1       0.269  10.300  20.970  0.00  0.00    +0.000 S 
ATOM      8  O   UNL     1       1.104  11.445  21.278  0.00  0.00    +0.000 OA
ATOM      9  O   UNL     1      -0.455   9.587  21.999  0.00  0.00    +0.000 OA
BRANCH   7  10
ATOM     10  N   UNL     1      -0.897  10.831  19.884  0.00  0.00    +0.000 NA
ATOM     11  H   UNL     1      -0.502  10.837  18.943  0.00  0.00    +0.000 HD
ATOM     12  H   UNL     1      -1.261  11.740  20.166  0.00  0.00    +0.000 HD
ENDBRANCH   7  10
ENDBRANCH   1   7
BRANCH   4  13
ATOM     13  N   UNL     1       3.253   6.274  17.720  0.00  0.00    +0.000 N 
ATOM     14  H   UNL     1       4.053   6.591  17.190  0.00  0.00    +0.000 HD
BRANCH  13  15
ATOM     15  C   UNL     1       3.120   4.890  17.764  0.00  0.00    +0.000 C 
ATOM     16  S   UNL     1       1.629   4.106  17.786  0.00  0.00    +0.000 S 
BRANCH  15  17
ATOM     17  N   UNL     1       4.366   4.230  17.874  0.00  0.00    +0.000 N 
ATOM     18  C   UNL     1       5.156   3.827  16.693  0.00  0.00    +0.000 C 
ATOM     19  C   UNL     1       6.234   4.868  16.395  0.00  0.00    +0.000 C 
ATOM     20  C   UNL     1       7.101   5.152  17.625  0.00  0.00    +0.000 C 
ATOM     21  C   UNL     1       6.260   5.430  18.874  0.00  0.00    +0.000 C 
ATOM     22  C   UNL     1       5.191   4.357  19.084  0.00  0.00    +0.000 C 
BRANCH  20  23
ATOM     23  O   UNL     1       7.999   4.070  17.865  0.00  0.00    +0.000 OA
ATOM     24  H   UNL     1       8.589   4.295  18.603  0.00  0.00    +0.000 HD
ENDBRANCH  20  23
ENDBRANCH  15  17
ENDBRANCH  13  15
ENDBRANCH   4  13
TORSDOF 6
ENDMDL
MODEL 7
REMARK VINA RESULT:      -6.5      2.636      3.539
REMARK  Name = 
REMARK  6 active torsions:
REMARK  status: ('A' for Active; 'I' for Inactive)
REMARK    1  A    between atoms: N_1  and  S_2
REMARK    2  A    between atoms: S_2  and  C_5
REMARK    3  A    between atoms: C_8  and  N_9
REMARK    4  A    between atoms: N_9  and  C_10
REMARK    5  A    between atoms: C_10  and  N_12
REMARK    6  A    between atoms: C_15  and  O_16
REMARK                            x       y       z     vdW  Elec       q    Type
REMARK                         _______ _______ _______ _____ _____    ______ ____
ROOT
ATOM      1  C   UNL     1       1.550   7.845  20.311  0.00  0.00    +0.000 A 
ATOM      2  C   UNL     1       2.004   8.126  19.021  0.00  0.00    +0.000 A 
ATOM      3  C   UNL     1       2.460   7.075  18.211  0.00  0.00    +0.000 A 
ATOM      4  C   UNL     1       2.498   5.761  18.695  0.00  0.00    +0.000 A 
ATOM      5  C   UNL     1       2.043   5.500  19.990  0.00  0.00    +0.000 A 
ATOM      6  C   UNL     1       1.576   6.535  20.799  0.00  0.00    +0.000 A 
ENDROOT
BRANCH   1   7
ATOM      7  S   UNL     1       0.936   9.109  21.373  0.00  0.00    +0.000 S 
ATOM      8  O   UNL     1      -0.314   8.681  21.973  0.00  0.00    +0.000 OA
ATOM      9  O   UNL     1       1.064  10.393  20.717  0.00  0.00    +0.000 OA
BRANCH   7  10
ATOM     10  N   UNL     1       2.084   9.112  22.598  0.00  0.00    +0.000 NA
ATOM     11  H   UNL     1       2.415  10.066  22.746  0.00  0.00    +0.000 HD
ATOM     12  H   UNL     1       2.838   8.461  22.383  0.00  0.00    +0.000 HD
ENDBRANCH   7  10
ENDBRANCH   1   7
BRANCH   4  13
ATOM     13  N   UNL     1       2.894   4.720  17.828  0.00  0.00    +0.000 N 
ATOM     14  H   UNL     1       2.571   4.794  16.873  0.00  0.00    +0.000 HD
BRANCH  13  15
ATOM     15  C   UNL     1       3.877   3.753  18.015  0.00  0.00    +0.000 C 
ATOM     16  S   UNL     1       3.629   2.346  18.909  0.00  0.00    +0.000 S 
BRANCH  15  17
ATOM     17  N   UNL     1       5.118   4.126  17.448  0.00  0.00    +0.000 N 
ATOM     18  C   UNL     1       5.249   4.557  16.042  0.00  0.00    +0.000 C 
ATOM     19  C   UNL     1       5.251   6.082  15.952  0.00  0.00    +0.000 C 
ATOM     20  C   UNL     1       6.313   6.700  16.867  0.00  0.00    +0.000 C 
ATOM     21  C   UNL     1       6.251   6.134  18.289  0.00  0.00    +0.000 C 
ATOM     22  C   UNL     1       6.225   4.606  18.288  0.00  0.00    +0.000 C 
BRANCH  20  23
ATOM     23  O   UNL     1       7.617   6.515  16.318  0.00  0.00    +0.000 OA
ATOM     24  H   UNL     1       8.185   7.259  16.574  0.00  0.00    +0.000 HD
ENDBRANCH  20  23
ENDBRANCH  15  17
ENDBRANCH  13  15
ENDBRANCH   4  13
TORSDOF 6
ENDMDL
MODEL 8
REMARK VINA RESULT:      -6.5      2.634      3.417
REMARK  Name = 
REMARK  6 active torsions:
REMARK  status: ('A' for Active; 'I' for Inactive)
REMARK    1  A    between atoms: N_1  and  S_2
REMARK    2  A    between atoms: S_2  and  C_5
REMARK    3  A    between atoms: C_8  and  N_9
REMARK    4  A    between atoms: N_9  and  C_10
REMARK    5  A    between atoms: C_10  and  N_12
REMARK    6  A    between atoms: C_15  and  O_16
REMARK                            x       y       z     vdW  Elec       q    Type
REMARK                         _______ _______ _______ _____ _____    ______ ____
ROOT
ATOM      1  C   UNL     1       1.070   9.562  19.109  0.00  0.00    +0.000 A 
ATOM      2  C   UNL     1       1.805   9.095  18.019  0.00  0.00    +0.000 A 
ATOM      3  C   UNL     1       2.515   7.890  18.136  0.00  0.00    +0.000 A 
ATOM      4  C   UNL     1       2.521   7.176  19.341  0.00  0.00    +0.000 A 
ATOM      5  C   UNL     1       1.782   7.661  20.423  0.00  0.00    +0.000 A 
ATOM      6  C   UNL     1       1.063   8.850  20.313  0.00  0.00    +0.000 A 
ENDROOT
BRANCH   1   7
ATOM      7  S   UNL     1       0.131  11.050  19.025  0.00  0.00    +0.000 S 
ATOM      8  O   UNL     1      -0.032  11.603  20.356  0.00  0.00    +0.000 OA
ATOM      9  O   UNL     1      -0.996  10.857  18.137  0.00  0.00    +0.000 OA
BRANCH   7  10
ATOM     10  N   UNL     1       1.182  12.069  18.203  0.00  0.00    +0.000 NA
ATOM     11  H   UNL     1       0.808  12.261  17.273  0.00  0.00    +0.000 HD
ATOM     12  H   UNL     1       2.120  11.670  18.177  0.00  0.00    +0.000 HD
ENDBRANCH   7  10
ENDBRANCH   1   7
BRANCH   4  13
ATOM     13  N   UNL     1       3.186   5.932  19.401  0.00  0.00    +0.000 N 
ATOM     14  H   UNL     1       3.540   5.664  20.309  0.00  0.00    +0.000 HD
BRANCH  13  15
ATOM     15  C   UNL     1       3.196   4.900  18.468  0.00  0.00    +0.000 C 
ATOM     16  S   UNL     1       1.792   4.231  17.817  0.00  0.00    +0.000 S 
BRANCH  15  17
ATOM     17  N   UNL     1       4.500   4.424  18.199  0.00  0.00    +0.000 N 
ATOM     18  C   UNL     1       4.836   3.689  16.963  0.00  0.00    +0.000 C 
ATOM     19  C   UNL     1       5.445   4.636  15.930  0.00  0.00    +0.000 C 
ATOM     20  C   UNL     1       6.635   5.410  16.506  0.00  0.00    +0.000 C 
ATOM     21  C   UNL     1       6.308   6.049  17.858  0.00  0.00    +0.000 C 
ATOM     22  C   UNL     1       5.679   5.042  18.822  0.00  0.00    +0.000 C 
BRANCH  20  23
ATOM     23  O   UNL     1       7.775   4.561  16.623  0.00  0.00    +0.000 OA
ATOM     24  H   UNL     1       7.490   3.670  16.885  0.00  0.00    +0.000 HD
ENDBRANCH  20  23
ENDBRANCH  15  17
ENDBRANCH  13  15
ENDBRANCH   4  13
TORSDOF 6
ENDMDL
MODEL 9
REMARK VINA RESULT:      -6.5      2.481      3.275
REMARK  Name = 
REMARK  6 active torsions:
REMARK  status: ('A' for Active; 'I' for Inactive)
REMARK    1  A    between atoms: N_1  and  S_2
REMARK    2  A    between atoms: S_2  and  C_5
REMARK    3  A    between atoms: C_8  and  N_9
REMARK    4  A    between atoms: N_9  and  C_10
REMARK    5  A    between atoms: C_10  and  N_12
REMARK    6  A    between atoms: C_15  and  O_16
REMARK                            x       y       z     vdW  Elec       q    Type
REMARK                         _______ _______ _______ _____ _____    ______ ____
ROOT
ATOM      1  C   UNL     1       1.052   9.493  19.263  0.00  0.00    +0.000 A 
ATOM      2  C   UNL     1       1.795   8.844  18.276  0.00  0.00    +0.000 A 
ATOM      3  C   UNL     1       2.426   7.628  18.581  0.00  0.00    +0.000 A 
ATOM      4  C   UNL     1       2.347   7.083  19.869  0.00  0.00    +0.000 A 
ATOM      5  C   UNL     1       1.602   7.749  20.845  0.00  0.00    +0.000 A 
ATOM      6  C   UNL     1       0.961   8.951  20.549  0.00  0.00    +0.000 A 
ENDROOT
BRANCH   1   7
ATOM      7  S   UNL     1       0.209  11.007  18.944  0.00  0.00    +0.000 S 
ATOM      8  O   UNL     1       1.157  12.011  18.500  0.00  0.00    +0.000 OA
ATOM      9  O   UNL     1      -0.732  11.266  20.011  0.00  0.00    +0.000 OA
BRANCH   7  10
ATOM     10  N   UNL     1      -0.725  10.601  17.608  0.00  0.00    +0.000 NA
ATOM     11  H   UNL     1      -1.149  11.446  17.225  0.00  0.00    +0.000 HD
ATOM     12  H   UNL     1      -1.413   9.890  17.856  0.00  0.00    +0.000 HD
ENDBRANCH   7  10
ENDBRANCH   1   7
BRANCH   4  13
ATOM     13  N   UNL     1       2.933   5.823  20.120  0.00  0.00    +0.000 N 
ATOM     14  H   UNL     1       3.594   5.788  20.884  0.00  0.00    +0.000 HD
BRANCH  13  15
ATOM     15  C   UNL     1       2.544   4.570  19.656  0.00  0.00    +0.000 C 
ATOM     16  S   UNL     1       1.091   3.835  20.090  0.00  0.00    +0.000 S 
BRANCH  15  17
ATOM     17  N   UNL     1       3.538   3.956  18.858  0.00  0.00    +0.000 N 
ATOM     18  C   UNL     1       3.504   3.997  17.382  0.00  0.00    +0.000 C 
ATOM     19  C   UNL     1       4.404   5.116  16.861  0.00  0.00    +0.000 C 
ATOM     20  C   UNL     1       5.825   5.007  17.423  0.00  0.00    +0.000 C 
ATOM     21  C   UNL     1       5.832   4.824  18.943  0.00  0.00    +0.000 C 
ATOM     22  C   UNL     1       4.887   3.704  19.382  0.00  0.00    +0.000 C 
BRANCH  20  23
ATOM     23  O   UNL     1       6.531   3.939  16.793  0.00  0.00    +0.000 OA
ATOM     24  H   UNL     1       6.111   3.094  17.020  0.00  0.00    +0.000 HD
ENDBRANCH  20  23
ENDBRANCH  15  17
ENDBRANCH  13  15
ENDBRANCH   4  13
TORSDOF 6
ENDMDL
