MODEL 1
REMARK VINA RESULT:      -7.1      0.000      0.000
REMARK  Name = 
REMARK  3 active torsions:
REMARK  status: ('A' for Active; 'I' for Inactive)
REMARK    1  A    between atoms: O_1  and  C_2
REMARK    2  A    between atoms: C_6  and  C_7
REMARK    3  A    between atoms: C_8  and  C_9
REMARK                            x       y       z     vdW  Elec       q    Type
REMARK                         _______ _______ _______ _____ _____    ______ ____
ROOT
ATOM      1  C   UNL     1       3.665   4.037  19.024  0.00  0.00    +0.000 A 
ATOM      2  C   UNL     1       3.877   5.162  18.222  0.00  0.00    +0.000 A 
ATOM      3 BR   UNL     1       4.982   5.060  16.683  0.00  0.00    +0.000 Br
ATOM      4  C   UNL     1       3.284   6.386  18.544  0.00  0.00    +0.000 A 
ATOM      5  C   UNL     1       2.459   6.500  19.671  0.00  0.00    +0.000 A 
ATOM      6  C   UNL     1       2.255   5.369  20.475  0.00  0.00    +0.000 A 
ATOM      7  C   UNL     1       2.849   4.144  20.149  0.00  0.00    +0.000 A 
ATOM      8 BR   UNL     1       2.519   2.657  21.281  0.00  0.00    +0.000 Br
ENDROOT
BRANCH   1   9
ATOM      9  O   UNL     1       4.252   2.836  18.724  0.00  0.00    +0.000 OA
ATOM     10  H   UNL     1       4.902   2.638  19.422  0.00  0.00    +0.000 HD
ENDBRANCH   1   9
BRANCH   5  11
ATOM     11  C   UNL     1       1.862   7.778  20.093  0.00  0.00    +0.000 C 
ATOM     12  C   UNL     1       1.187   7.972  21.239  0.00  0.00    +0.000 C 
BRANCH  12  13
ATOM     13  C   UNL     1       0.572   9.250  21.635  0.00  0.00    +0.000 A 
ATOM     14  C   UNL     1       0.749  10.432  20.899  0.00  0.00    +0.000 A 
ATOM     15  C   UNL     1       0.107  11.615  21.279  0.00  0.00    +0.000 A 
ATOM     16  C   UNL     1      -0.728  11.621  22.393  0.00  0.00    +0.000 A 
ATOM     17 BR   UNL     1      -1.609  13.215  22.896  0.00  0.00    +0.000 Br
ATOM     18  C   UNL     1      -0.925  10.457  23.131  0.00  0.00    +0.000 A 
ATOM     19  C   UNL     1      -0.279   9.277  22.749  0.00  0.00    +0.000 A 
ENDBRANCH  12  13
ENDBRANCH   5  11
TORSDOF 3
ENDMDL
MODEL 2
REMARK VINA RESULT:      -7.0      6.522      7.779
REMARK  Name = 
REMARK  3 active torsions:
REMARK  status: ('A' for Active; 'I' for Inactive)
REMARK    1  A    between atoms: O_1  and  C_2
REMARK    2  A    between atoms: C_6  and  C_7
REMARK    3  A    between atoms: C_8  and  C_9
REMARK                            x       y       z     vdW  Elec       q    Type
REMARK                         _______ _______ _______ _____ _____    ______ ____
ROOT
ATOM      1  C   UNL     1       5.808   4.252  16.967  0.00  0.00    +0.000 A 
ATOM      2  C   UNL     1       5.771   4.613  18.317  0.00  0.00    +0.000 A 
ATOM      3 BR   UNL     1       4.704   3.644  19.550  0.00  0.00    +0.000 Br
ATOM      4  C   UNL     1       6.514   5.702  18.781  0.00  0.00    +0.000 A 
ATOM      5  C   UNL     1       7.317   6.440  17.901  0.00  0.00    +0.000 A 
ATOM      6  C   UNL     1       7.345   6.077  16.547  0.00  0.00    +0.000 A 
ATOM      7  C   UNL     1       6.601   4.985  16.085  0.00  0.00    +0.000 A 
ATOM      8 BR   UNL     1       6.696   4.550  14.240  0.00  0.00    +0.000 Br
ENDROOT
BRANCH   1   9
ATOM      9  O   UNL     1       5.073   3.195  16.499  0.00  0.00    +0.000 OA
ATOM     10  H   UNL     1       4.403   2.974  17.172  0.00  0.00    +0.000 HD
ENDBRANCH   1   9
BRANCH   5  11
ATOM     11  C   UNL     1       8.069   7.634  18.324  0.00  0.00    +0.000 C 
ATOM     12  C   UNL     1       7.859   8.879  17.863  0.00  0.00    +0.000 C 
BRANCH  12  13
ATOM     13  C   UNL     1       8.638  10.059  18.276  0.00  0.00    +0.000 A 
ATOM     14  C   UNL     1       8.578  11.281  17.589  0.00  0.00    +0.000 A 
ATOM     15  C   UNL     1       9.294  12.393  18.043  0.00  0.00    +0.000 A 
ATOM     16  C   UNL     1      10.067  12.294  19.196  0.00  0.00    +0.000 A 
ATOM     17 BR   UNL     1      11.021  13.802  19.818  0.00  0.00    +0.000 Br
ATOM     18  C   UNL     1      10.133  11.094  19.899  0.00  0.00    +0.000 A 
ATOM     19  C   UNL     1       9.417   9.983  19.440  0.00  0.00    +0.000 A 
ENDBRANCH  12  13
ENDBRANCH   5  11
TORSDOF 3
ENDMDL
MODEL 3
REMARK VINA RESULT:      -7.0      1.606      1.810
REMARK  Name = 
REMARK  3 active torsions:
REMARK  status: ('A' for Active; 'I' for Inactive)
REMARK    1  A    between atoms: O_1  and  C_2
REMARK    2  A    between atoms: C_6  and  C_7
REMARK    3  A    between atoms: C_8  and  C_9
REMARK                            x       y       z     vdW  Elec       q    Type
REMARK                         _______ _______ _______ _____ _____    ______ ____
ROOT
ATOM      1  C   UNL     1       4.494   4.301  17.176  0.00  0.00    +0.000 A 
ATOM      2  C   UNL     1       5.055   5.581  17.164  0.00  0.00    +0.000 A 
ATOM      3 BR   UNL     1       6.792   5.870  16.457  0.00  0.00    +0.000 Br
ATOM      4  C   UNL     1       4.350   6.671  17.681  0.00  0.00    +0.000 A 
ATOM      5  C   UNL     1       3.064   6.498  18.209  0.00  0.00    +0.000 A 
ATOM      6  C   UNL     1       2.508   5.210  18.224  0.00  0.00    +0.000 A 
ATOM      7  C   UNL     1       3.216   4.121  17.704  0.00  0.00    +0.000 A 
ATOM      8 BR   UNL     1       2.395   2.410  17.753  0.00  0.00    +0.000 Br
ENDROOT
BRANCH   1   9
ATOM      9  O   UNL     1       5.183   3.224  16.685  0.00  0.00    +0.000 OA
ATOM     10  H   UNL     1       4.582   2.722  16.105  0.00  0.00    +0.000 HD
ENDBRANCH   1   9
BRANCH   5  11
ATOM     11  C   UNL     1       2.302   7.599  18.824  0.00  0.00    +0.000 C 
ATOM     12  C   UNL     1       1.906   7.637  20.107  0.00  0.00    +0.000 C 
BRANCH  12  13
ATOM     13  C   UNL     1       1.122   8.733  20.701  0.00  0.00    +0.000 A 
ATOM     14  C   UNL     1       0.505   9.727  19.925  0.00  0.00    +0.000 A 
ATOM     15  C   UNL     1      -0.274  10.722  20.523  0.00  0.00    +0.000 A 
ATOM     16  C   UNL     1      -0.453  10.724  21.904  0.00  0.00    +0.000 A 
ATOM     17 BR   UNL     1      -1.519  12.059  22.710  0.00  0.00    +0.000 Br
ATOM     18  C   UNL     1       0.142   9.742  22.691  0.00  0.00    +0.000 A 
ATOM     19  C   UNL     1       0.923   8.749  22.089  0.00  0.00    +0.000 A 
ENDBRANCH  12  13
ENDBRANCH   5  11
TORSDOF 3
ENDMDL
MODEL 4
REMARK VINA RESULT:      -7.0      6.544      7.901
REMARK  Name = 
REMARK  3 active torsions:
REMARK  status: ('A' for Active; 'I' for Inactive)
REMARK    1  A    between atoms: O_1  and  C_2
REMARK    2  A    between atoms: C_6  and  C_7
REMARK    3  A    between atoms: C_8  and  C_9
REMARK                            x       y       z     vdW  Elec       q    Type
REMARK                         _______ _______ _______ _____ _____    ______ ____
ROOT
ATOM      1  C   UNL     1       5.885   4.301  16.898  0.00  0.00    +0.000 A 
ATOM      2  C   UNL     1       5.799   4.624  18.255  0.00  0.00    +0.000 A 
ATOM      3 BR   UNL     1       4.708   3.604  19.426  0.00  0.00    +0.000 Br
ATOM      4  C   UNL     1       6.509   5.710  18.774  0.00  0.00    +0.000 A 
ATOM      5  C   UNL     1       7.327   6.485  17.941  0.00  0.00    +0.000 A 
ATOM      6  C   UNL     1       7.405   6.160  16.579  0.00  0.00    +0.000 A 
ATOM      7  C   UNL     1       6.694   5.071  16.063  0.00  0.00    +0.000 A 
ATOM      8 BR   UNL     1       6.855   4.688  14.211  0.00  0.00    +0.000 Br
ENDROOT
BRANCH   1   9
ATOM      9  O   UNL     1       5.182   3.247  16.378  0.00  0.00    +0.000 OA
ATOM     10  H   UNL     1       4.427   3.607  15.878  0.00  0.00    +0.000 HD
ENDBRANCH   1   9
BRANCH   5  11
ATOM     11  C   UNL     1       8.047   7.678  18.420  0.00  0.00    +0.000 C 
ATOM     12  C   UNL     1       7.936   8.908  17.891  0.00  0.00    +0.000 C 
BRANCH  12  13
ATOM     13  C   UNL     1       8.682  10.086  18.365  0.00  0.00    +0.000 A 
ATOM     14  C   UNL     1       9.510  10.049  19.497  0.00  0.00    +0.000 A 
ATOM     15  C   UNL     1      10.243  11.175  19.885  0.00  0.00    +0.000 A 
ATOM     16  C   UNL     1      10.162  12.345  19.135  0.00  0.00    +0.000 A 
ATOM     17 BR   UNL     1      11.164  13.862  19.651  0.00  0.00    +0.000 Br
ATOM     18  C   UNL     1       9.354  12.400  18.002  0.00  0.00    +0.000 A 
ATOM     19  C   UNL     1       8.621  11.272  17.619  0.00  0.00    +0.000 A 
ENDBRANCH  12  13
ENDBRANCH   5  11
TORSDOF 3
ENDMDL
MODEL 5
REMARK VINA RESULT:      -7.0      0.247      1.161
REMARK  Name = 
REMARK  3 active torsions:
REMARK  status: ('A' for Active; 'I' for Inactive)
REMARK    1  A    between atoms: O_1  and  C_2
REMARK    2  A    between atoms: C_6  and  C_7
REMARK    3  A    between atoms: C_8  and  C_9
REMARK                            x       y       z     vdW  Elec       q    Type
REMARK                         _______ _______ _______ _____ _____    ______ ____
ROOT
ATOM      1  C   UNL     1       3.608   3.866  19.226  0.00  0.00    +0.000 A 
ATOM      2  C   UNL     1       3.893   4.981  18.434  0.00  0.00    +0.000 A 
ATOM      3 BR   UNL     1       5.085   4.845  16.964  0.00  0.00    +0.000 Br
ATOM      4  C   UNL     1       3.312   6.220  18.716  0.00  0.00    +0.000 A 
ATOM      5  C   UNL     1       2.425   6.360  19.792  0.00  0.00    +0.000 A 
ATOM      6  C   UNL     1       2.148   5.238  20.587  0.00  0.00    +0.000 A 
ATOM      7  C   UNL     1       2.730   3.998  20.302  0.00  0.00    +0.000 A 
ATOM      8 BR   UNL     1       2.300   2.525  21.418  0.00  0.00    +0.000 Br
ENDROOT
BRANCH   1   9
ATOM      9  O   UNL     1       4.184   2.650  18.967  0.00  0.00    +0.000 OA
ATOM     10  H   UNL     1       4.182   2.517  18.001  0.00  0.00    +0.000 HD
ENDBRANCH   1   9
BRANCH   5  11
ATOM     11  C   UNL     1       1.835   7.654  20.172  0.00  0.00    +0.000 C 
ATOM     12  C   UNL     1       1.063   7.860  21.253  0.00  0.00    +0.000 C 
BRANCH  12  13
ATOM     13  C   UNL     1       0.457   9.155  21.606  0.00  0.00    +0.000 A 
ATOM     14  C   UNL     1      -0.310   9.338  22.766  0.00  0.00    +0.000 A 
ATOM     15  C   UNL     1      -0.825  10.597  23.093  0.00  0.00    +0.000 A 
ATOM     16  C   UNL     1      -0.566  11.686  22.265  0.00  0.00    +0.000 A 
ATOM     17 BR   UNL     1      -1.249  13.390  22.715  0.00  0.00    +0.000 Br
ATOM     18  C   UNL     1       0.201  11.528  21.115  0.00  0.00    +0.000 A 
ATOM     19  C   UNL     1       0.713  10.267  20.790  0.00  0.00    +0.000 A 
ENDBRANCH  12  13
ENDBRANCH   5  11
TORSDOF 3
ENDMDL
MODEL 6
REMARK VINA RESULT:      -6.9      6.438      7.477
REMARK  Name = 
REMARK  3 active torsions:
REMARK  status: ('A' for Active; 'I' for Inactive)
REMARK    1  A    between atoms: O_1  and  C_2
REMARK    2  A    between atoms: C_6  and  C_7
REMARK    3  A    between atoms: C_8  and  C_9
REMARK                            x       y       z     vdW  Elec       q    Type
REMARK                         _______ _______ _______ _____ _____    ______ ____
ROOT
ATOM      1  C   UNL     1       5.741   4.277  16.937  0.00  0.00    +0.000 A 
ATOM      2  C   UNL     1       6.537   4.957  16.010  0.00  0.00    +0.000 A 
ATOM      3 BR   UNL     1       6.646   4.365  14.211  0.00  0.00    +0.000 Br
ATOM      4  C   UNL     1       7.272   6.081  16.394  0.00  0.00    +0.000 A 
ATOM      5  C   UNL     1       7.215   6.549  17.714  0.00  0.00    +0.000 A 
ATOM      6  C   UNL     1       6.421   5.859  18.641  0.00  0.00    +0.000 A 
ATOM      7  C   UNL     1       5.684   4.735  18.253  0.00  0.00    +0.000 A 
ATOM      8 BR   UNL     1       4.626   3.858  19.563  0.00  0.00    +0.000 Br
ENDROOT
BRANCH   1   9
ATOM      9  O   UNL     1       5.027   3.166  16.574  0.00  0.00    +0.000 OA
ATOM     10  H   UNL     1       4.348   3.442  15.932  0.00  0.00    +0.000 HD
ENDBRANCH   1   9
BRANCH   5  11
ATOM     11  C   UNL     1       8.019   7.689  18.188  0.00  0.00    +0.000 C 
ATOM     12  C   UNL     1       7.808   8.973  17.850  0.00  0.00    +0.000 C 
BRANCH  12  13
ATOM     13  C   UNL     1       8.638  10.099  18.312  0.00  0.00    +0.000 A 
ATOM     14  C   UNL     1       8.715  11.314  17.615  0.00  0.00    +0.000 A 
ATOM     15  C   UNL     1       9.473  12.378  18.113  0.00  0.00    +0.000 A 
ATOM     16  C   UNL     1      10.152  12.238  19.320  0.00  0.00    +0.000 A 
ATOM     17 BR   UNL     1      11.164  13.681  20.002  0.00  0.00    +0.000 Br
ATOM     18  C   UNL     1      10.081  11.044  20.033  0.00  0.00    +0.000 A 
ATOM     19  C   UNL     1       9.323   9.981  19.530  0.00  0.00    +0.000 A 
ENDBRANCH  12  13
ENDBRANCH   5  11
TORSDOF 3
ENDMDL
MODEL 7
REMARK VINA RESULT:      -6.9      7.534     10.163
REMARK  Name = 
REMARK  3 active torsions:
REMARK  status: ('A' for Active; 'I' for Inactive)
REMARK    1  A    between atoms: O_1  and  C_2
REMARK    2  A    between atoms: C_6  and  C_7
REMARK    3  A    between atoms: C_8  and  C_9
REMARK                            x       y       z     vdW  Elec       q    Type
REMARK                         _______ _______ _______ _____ _____    ______ ____
ROOT
ATOM      1  C   UNL     1      10.750  12.953  19.528  0.00  0.00    +0.000 A 
ATOM      2  C   UNL     1      10.984  12.482  18.233  0.00  0.00    +0.000 A 
ATOM      3 BR   UNL     1      12.247  13.338  17.105  0.00  0.00    +0.000 Br
ATOM      4  C   UNL     1      10.286  11.375  17.742  0.00  0.00    +0.000 A 
ATOM      5  C   UNL     1       9.348  10.715  18.546  0.00  0.00    +0.000 A 
ATOM      6  C   UNL     1       9.113  11.196  19.842  0.00  0.00    +0.000 A 
ATOM      7  C   UNL     1       9.814  12.304  20.332  0.00  0.00    +0.000 A 
ATOM      8 BR   UNL     1       9.447  12.891  22.098  0.00  0.00    +0.000 Br
ENDROOT
BRANCH   1   9
ATOM      9  O   UNL     1      11.420  14.045  20.013  0.00  0.00    +0.000 OA
ATOM     10  H   UNL     1      10.797  14.562  20.555  0.00  0.00    +0.000 HD
ENDBRANCH   1   9
BRANCH   5  11
ATOM     11  C   UNL     1       8.538   9.585  18.059  0.00  0.00    +0.000 C 
ATOM     12  C   UNL     1       8.494   8.368  18.628  0.00  0.00    +0.000 C 
BRANCH  12  13
ATOM     13  C   UNL     1       7.699   7.240  18.112  0.00  0.00    +0.000 A 
ATOM     14  C   UNL     1       7.878   5.923  18.563  0.00  0.00    +0.000 A 
ATOM     15  C   UNL     1       7.069   4.887  18.086  0.00  0.00    +0.000 A 
ATOM     16  C   UNL     1       6.064   5.164  17.163  0.00  0.00    +0.000 A 
ATOM     17 BR   UNL     1       4.960   3.766  16.531  0.00  0.00    +0.000 Br
ATOM     18  C   UNL     1       5.863   6.465  16.710  0.00  0.00    +0.000 A 
ATOM     19  C   UNL     1       6.677   7.498  17.188  0.00  0.00    +0.000 A 
ENDBRANCH  12  13
ENDBRANCH   5  11
TORSDOF 3
ENDMDL
MODEL 8
REMARK VINA RESULT:      -6.9      3.596      8.271
REMARK  Name = 
REMARK  3 active torsions:
REMARK  status: ('A' for Active; 'I' for Inactive)
REMARK    1  A    between atoms: O_1  and  C_2
REMARK    2  A    between atoms: C_6  and  C_7
REMARK    3  A    between atoms: C_8  and  C_9
REMARK                            x       y       z     vdW  Elec       q    Type
REMARK                         _______ _______ _______ _____ _____    ______ ____
ROOT
ATOM      1  C   UNL     1      -0.332  10.998  20.670  0.00  0.00    +0.000 A 
ATOM      2  C   UNL     1       0.236   9.857  21.244  0.00  0.00    +0.000 A 
ATOM      3 BR   UNL     1      -0.045   9.455  23.077  0.00  0.00    +0.000 Br
ATOM      4  C   UNL     1       1.027   8.995  20.481  0.00  0.00    +0.000 A 
ATOM      5  C   UNL     1       1.255   9.257  19.123  0.00  0.00    +0.000 A 
ATOM      6  C   UNL     1       0.689  10.407  18.554  0.00  0.00    +0.000 A 
ATOM      7  C   UNL     1      -0.105  11.267  19.320  0.00  0.00    +0.000 A 
ATOM      8 BR   UNL     1      -0.844  12.799  18.477  0.00  0.00    +0.000 Br
ENDROOT
BRANCH   1   9
ATOM      9  O   UNL     1      -1.098  11.856  21.413  0.00  0.00    +0.000 OA
ATOM     10  H   UNL     1      -0.521  12.275  22.077  0.00  0.00    +0.000 HD
ENDBRANCH   1   9
BRANCH   5  11
ATOM     11  C   UNL     1       2.133   8.419  18.288  0.00  0.00    +0.000 C 
ATOM     12  C   UNL     1       2.576   7.195  18.625  0.00  0.00    +0.000 C 
BRANCH  12  13
ATOM     13  C   UNL     1       3.475   6.380  17.790  0.00  0.00    +0.000 A 
ATOM     14  C   UNL     1       3.389   4.981  17.734  0.00  0.00    +0.000 A 
ATOM     15  C   UNL     1       4.227   4.245  16.890  0.00  0.00    +0.000 A 
ATOM     16  C   UNL     1       5.151   4.907  16.086  0.00  0.00    +0.000 A 
ATOM     17 BR   UNL     1       6.273   3.915  14.933  0.00  0.00    +0.000 Br
ATOM     18  C   UNL     1       5.246   6.296  16.119  0.00  0.00    +0.000 A 
ATOM     19  C   UNL     1       4.407   7.027  16.966  0.00  0.00    +0.000 A 
ENDBRANCH  12  13
ENDBRANCH   5  11
TORSDOF 3
ENDMDL
MODEL 9
REMARK VINA RESULT:      -6.9      0.324      2.248
REMARK  Name = 
REMARK  3 active torsions:
REMARK  status: ('A' for Active; 'I' for Inactive)
REMARK    1  A    between atoms: O_1  and  C_2
REMARK    2  A    between atoms: C_6  and  C_7
REMARK    3  A    between atoms: C_8  and  C_9
REMARK                            x       y       z     vdW  Elec       q    Type
REMARK                         _______ _______ _______ _____ _____    ______ ____
ROOT
ATOM      1  C   UNL     1       3.727   4.082  19.009  0.00  0.00    +0.000 A 
ATOM      2  C   UNL     1       2.926   4.121  20.154  0.00  0.00    +0.000 A 
ATOM      3 BR   UNL     1       2.669   2.564  21.208  0.00  0.00    +0.000 Br
ATOM      4  C   UNL     1       2.292   5.305  20.538  0.00  0.00    +0.000 A 
ATOM      5  C   UNL     1       2.459   6.475  19.786  0.00  0.00    +0.000 A 
ATOM      6  C   UNL     1       3.259   6.429  18.635  0.00  0.00    +0.000 A 
ATOM      7  C   UNL     1       3.893   5.242  18.253  0.00  0.00    +0.000 A 
ATOM      8 BR   UNL     1       4.966   5.260  16.687  0.00  0.00    +0.000 Br
ENDROOT
BRANCH   1   9
ATOM      9  O   UNL     1       4.341   2.923  18.616  0.00  0.00    +0.000 OA
ATOM     10  H   UNL     1       5.108   3.161  18.065  0.00  0.00    +0.000 HD
ENDBRANCH   1   9
BRANCH   5  11
ATOM     11  C   UNL     1       1.764   7.733  20.109  0.00  0.00    +0.000 C 
ATOM     12  C   UNL     1       1.082   7.967  21.243  0.00  0.00    +0.000 C 
BRANCH  12  13
ATOM     13  C   UNL     1       0.370   9.221  21.540  0.00  0.00    +0.000 A 
ATOM     14  C   UNL     1       0.194  10.233  20.584  0.00  0.00    +0.000 A 
ATOM     15  C   UNL     1      -0.534  11.388  20.890  0.00  0.00    +0.000 A 
ATOM     16  C   UNL     1      -1.101  11.534  22.152  0.00  0.00    +0.000 A 
ATOM     17 BR   UNL     1      -2.097  13.087  22.560  0.00  0.00    +0.000 Br
ATOM     18  C   UNL     1      -0.947  10.537  23.112  0.00  0.00    +0.000 A 
ATOM     19  C   UNL     1      -0.217   9.385  22.803  0.00  0.00    +0.000 A 
ENDBRANCH  12  13
ENDBRANCH   5  11
TORSDOF 3
ENDMDL
