MODEL 1
REMARK VINA RESULT:      -7.5      0.000      0.000
REMARK  Name = 
REMARK  8 active torsions:
REMARK  status: ('A' for Active; 'I' for Inactive)
REMARK    1  A    between atoms: O_1  and  C_2
REMARK    2  A    between atoms: C_2  and  C_3
REMARK    3  A    between atoms: C_2  and  C_12
REMARK    4  A    between atoms: C_3  and  O_4
REMARK    5  A    between atoms: O_4  and  C_5
REMARK    6  A    between atoms: C_12  and  N_13
REMARK    7  A    between atoms: C_16  and  O_17
REMARK    8  A    between atoms: C_16  and  C_18
REMARK                            x       y       z     vdW  Elec       q    Type
REMARK                         _______ _______ _______ _____ _____    ______ ____
ROOT
ATOM      1  N   UNL     1       4.133   5.455  18.025  0.00  0.00    +0.000 NA
ATOM      2  C   UNL     1       5.081   4.330  18.021  0.00  0.00    +0.000 C 
ATOM      3  C   UNL     1       5.545   3.962  16.614  0.00  0.00    +0.000 C 
ATOM      4  C   UNL     1       6.140   5.159  15.851  0.00  0.00    +0.000 C 
ATOM      5  C   UNL     1       5.146   6.331  15.939  0.00  0.00    +0.000 C 
ATOM      6  C   UNL     1       4.731   6.633  17.379  0.00  0.00    +0.000 C 
ENDROOT
BRANCH   4   7
ATOM      7  C   UNL     1       6.499   4.732  14.417  0.00  0.00    +0.000 A 
ATOM      8  C   UNL     1       7.564   5.307  13.700  0.00  0.00    +0.000 A 
ATOM      9  C   UNL     1       7.812   4.965  12.369  0.00  0.00    +0.000 A 
ATOM     10  C   UNL     1       7.014   4.025  11.726  0.00  0.00    +0.000 A 
ATOM     11  C   UNL     1       5.980   3.411  12.421  0.00  0.00    +0.000 A 
ATOM     12  C   UNL     1       5.726   3.755  13.752  0.00  0.00    +0.000 A 
ENDBRANCH   4   7
BRANCH   4  13
ATOM     13  O   UNL     1       7.337   5.569  16.533  0.00  0.00    +0.000 OA
ATOM     14  H   UNL     1       7.103   5.832  17.438  0.00  0.00    +0.000 HD
ENDBRANCH   4  13
BRANCH   1  15
ATOM     15  C   UNL     1       3.725   5.800  19.406  0.00  0.00    +0.000 C 
BRANCH  15  16
ATOM     16  C   UNL     1       2.220   5.613  19.702  0.00  0.00    +0.000 C 
BRANCH  16  17
ATOM     17  O   UNL     1       2.019   4.308  20.263  0.00  0.00    +0.000 OA
ATOM     18  H   UNL     1       2.045   3.686  19.512  0.00  0.00    +0.000 HD
ENDBRANCH  16  17
BRANCH  16  19
ATOM     19  C   UNL     1       1.750   6.682  20.692  0.00  0.00    +0.000 C 
BRANCH  19  20
ATOM     20  O   UNL     1       1.768   7.982  20.087  0.00  0.00    +0.000 OA
BRANCH  20  21
ATOM     21  C   UNL     1       0.963   8.906  20.710  0.00  0.00    +0.000 A 
ATOM     22  C   UNL     1       0.275   9.943  20.067  0.00  0.00    +0.000 A 
ATOM     23  C   UNL     1      -0.506  10.838  20.805  0.00  0.00    +0.000 A 
ATOM     24  C   UNL     1      -0.605  10.697  22.183  0.00  0.00    +0.000 A 
ATOM     25 CL   UNL     1      -1.556  11.811  23.082  0.00  0.00    +0.000 Cl
ATOM     26  C   UNL     1       0.067   9.664  22.835  0.00  0.00    +0.000 A 
ATOM     27  C   UNL     1       0.846   8.771  22.097  0.00  0.00    +0.000 A 
ENDBRANCH  20  21
ENDBRANCH  19  20
ENDBRANCH  16  19
ENDBRANCH  15  16
ENDBRANCH   1  15
TORSDOF 8
ENDMDL
MODEL 2
REMARK VINA RESULT:      -7.5      1.810      2.358
REMARK  Name = 
REMARK  8 active torsions:
REMARK  status: ('A' for Active; 'I' for Inactive)
REMARK    1  A    between atoms: O_1  and  C_2
REMARK    2  A    between atoms: C_2  and  C_3
REMARK    3  A    between atoms: C_2  and  C_12
REMARK    4  A    between atoms: C_3  and  O_4
REMARK    5  A    between atoms: O_4  and  C_5
REMARK    6  A    between atoms: C_12  and  N_13
REMARK    7  A    between atoms: C_16  and  O_17
REMARK    8  A    between atoms: C_16  and  C_18
REMARK                            x       y       z     vdW  Elec       q    Type
REMARK                         _______ _______ _______ _____ _____    ______ ____
ROOT
ATOM      1  N   UNL     1       4.849   3.781  18.536  0.00  0.00    +0.000 NA
ATOM      2  C   UNL     1       5.977   4.707  18.349  0.00  0.00    +0.000 C 
ATOM      3  C   UNL     1       6.592   4.604  16.955  0.00  0.00    +0.000 C 
ATOM      4  C   UNL     1       5.559   4.796  15.831  0.00  0.00    +0.000 C 
ATOM      5  C   UNL     1       4.369   3.858  16.105  0.00  0.00    +0.000 C 
ATOM      6  C   UNL     1       3.813   4.022  17.519  0.00  0.00    +0.000 C 
ENDROOT
BRANCH   4   7
ATOM      7  C   UNL     1       6.235   4.589  14.465  0.00  0.00    +0.000 A 
ATOM      8  C   UNL     1       7.366   5.321  14.062  0.00  0.00    +0.000 A 
ATOM      9  C   UNL     1       7.906   5.178  12.782  0.00  0.00    +0.000 A 
ATOM     10  C   UNL     1       7.341   4.284  11.879  0.00  0.00    +0.000 A 
ATOM     11  C   UNL     1       6.248   3.518  12.263  0.00  0.00    +0.000 A 
ATOM     12  C   UNL     1       5.702   3.663  13.542  0.00  0.00    +0.000 A 
ENDBRANCH   4   7
BRANCH   4  13
ATOM     13  O   UNL     1       5.061   6.142  15.912  0.00  0.00    +0.000 OA
ATOM     14  H   UNL     1       4.101   6.127  15.772  0.00  0.00    +0.000 HD
ENDBRANCH   4  13
BRANCH   1  15
ATOM     15  C   UNL     1       4.262   3.926  19.887  0.00  0.00    +0.000 C 
BRANCH  15  16
ATOM     16  C   UNL     1       2.727   3.759  19.948  0.00  0.00    +0.000 C 
BRANCH  16  17
ATOM     17  O   UNL     1       2.410   2.765  20.932  0.00  0.00    +0.000 OA
ATOM     18  H   UNL     1       2.257   3.251  21.764  0.00  0.00    +0.000 HD
ENDBRANCH  16  17
BRANCH  16  19
ATOM     19  C   UNL     1       2.075   5.092  20.326  0.00  0.00    +0.000 C 
BRANCH  19  20
ATOM     20  O   UNL     1       2.914   6.194  19.955  0.00  0.00    +0.000 OA
BRANCH  20  21
ATOM     21  C   UNL     1       2.235   7.368  19.727  0.00  0.00    +0.000 A 
ATOM     22  C   UNL     1       1.498   8.075  20.684  0.00  0.00    +0.000 A 
ATOM     23  C   UNL     1       0.832   9.255  20.336  0.00  0.00    +0.000 A 
ATOM     24  C   UNL     1       0.906   9.731  19.034  0.00  0.00    +0.000 A 
ATOM     25 CL   UNL     1       0.073  11.174  18.612  0.00  0.00    +0.000 Cl
ATOM     26  C   UNL     1       1.645   9.043  18.072  0.00  0.00    +0.000 A 
ATOM     27  C   UNL     1       2.309   7.866  18.422  0.00  0.00    +0.000 A 
ENDBRANCH  20  21
ENDBRANCH  19  20
ENDBRANCH  16  19
ENDBRANCH  15  16
ENDBRANCH   1  15
TORSDOF 8
ENDMDL
MODEL 3
REMARK VINA RESULT:      -7.4      0.628      1.119
REMARK  Name = 
REMARK  8 active torsions:
REMARK  status: ('A' for Active; 'I' for Inactive)
REMARK    1  A    between atoms: O_1  and  C_2
REMARK    2  A    between atoms: C_2  and  C_3
REMARK    3  A    between atoms: C_2  and  C_12
REMARK    4  A    between atoms: C_3  and  O_4
REMARK    5  A    between atoms: O_4  and  C_5
REMARK    6  A    between atoms: C_12  and  N_13
REMARK    7  A    between atoms: C_16  and  O_17
REMARK    8  A    between atoms: C_16  and  C_18
REMARK                            x       y       z     vdW  Elec       q    Type
REMARK                         _______ _______ _______ _____ _____    ______ ____
ROOT
ATOM      1  N   UNL     1       4.178   5.394  18.123  0.00  0.00    +0.000 NA
ATOM      2  C   UNL     1       5.149   4.288  18.100  0.00  0.00    +0.000 C 
ATOM      3  C   UNL     1       5.590   3.929  16.682  0.00  0.00    +0.000 C 
ATOM      4  C   UNL     1       6.145   5.137  15.907  0.00  0.00    +0.000 C 
ATOM      5  C   UNL     1       5.129   6.289  16.016  0.00  0.00    +0.000 C 
ATOM      6  C   UNL     1       4.739   6.584  17.464  0.00  0.00    +0.000 C 
ENDROOT
BRANCH   4   7
ATOM      7  C   UNL     1       6.482   4.717  14.465  0.00  0.00    +0.000 A 
ATOM      8  C   UNL     1       7.535   5.295  13.735  0.00  0.00    +0.000 A 
ATOM      9  C   UNL     1       7.763   4.959  12.399  0.00  0.00    +0.000 A 
ATOM     10  C   UNL     1       6.955   4.022  11.764  0.00  0.00    +0.000 A 
ATOM     11  C   UNL     1       5.932   3.404  12.472  0.00  0.00    +0.000 A 
ATOM     12  C   UNL     1       5.698   3.743  13.808  0.00  0.00    +0.000 A 
ENDBRANCH   4   7
BRANCH   4  13
ATOM     13  O   UNL     1       7.347   5.572  16.564  0.00  0.00    +0.000 OA
ATOM     14  H   UNL     1       7.206   6.468  16.909  0.00  0.00    +0.000 HD
ENDBRANCH   4  13
BRANCH   1  15
ATOM     15  C   UNL     1       3.792   5.731  19.512  0.00  0.00    +0.000 C 
BRANCH  15  16
ATOM     16  C   UNL     1       2.278   5.944  19.730  0.00  0.00    +0.000 C 
BRANCH  16  17
ATOM     17  O   UNL     1       1.851   5.124  20.827  0.00  0.00    +0.000 OA
ATOM     18  H   UNL     1       0.936   4.855  20.620  0.00  0.00    +0.000 HD
ENDBRANCH  16  17
BRANCH  16  19
ATOM     19  C   UNL     1       2.001   7.417  20.044  0.00  0.00    +0.000 C 
BRANCH  19  20
ATOM     20  O   UNL     1       1.246   7.549  21.256  0.00  0.00    +0.000 OA
BRANCH  20  21
ATOM     21  C   UNL     1       0.622   8.765  21.403  0.00  0.00    +0.000 A 
ATOM     22  C   UNL     1       0.082   9.257  22.597  0.00  0.00    +0.000 A 
ATOM     23  C   UNL     1      -0.547  10.506  22.629  0.00  0.00    +0.000 A 
ATOM     24  C   UNL     1      -0.634  11.265  21.469  0.00  0.00    +0.000 A 
ATOM     25 CL   UNL     1      -1.422  12.792  21.514  0.00  0.00    +0.000 Cl
ATOM     26  C   UNL     1      -0.093  10.792  20.275  0.00  0.00    +0.000 A 
ATOM     27  C   UNL     1       0.536   9.545  20.245  0.00  0.00    +0.000 A 
ENDBRANCH  20  21
ENDBRANCH  19  20
ENDBRANCH  16  19
ENDBRANCH  15  16
ENDBRANCH   1  15
TORSDOF 8
ENDMDL
MODEL 4
REMARK VINA RESULT:      -7.4      1.245      1.922
REMARK  Name = 
REMARK  8 active torsions:
REMARK  status: ('A' for Active; 'I' for Inactive)
REMARK    1  A    between atoms: O_1  and  C_2
REMARK    2  A    between atoms: C_2  and  C_3
REMARK    3  A    between atoms: C_2  and  C_12
REMARK    4  A    between atoms: C_3  and  O_4
REMARK    5  A    between atoms: O_4  and  C_5
REMARK    6  A    between atoms: C_12  and  N_13
REMARK    7  A    between atoms: C_16  and  O_17
REMARK    8  A    between atoms: C_16  and  C_18
REMARK                            x       y       z     vdW  Elec       q    Type
REMARK                         _______ _______ _______ _____ _____    ______ ____
ROOT
ATOM      1  N   UNL     1       4.225   5.222  18.202  0.00  0.00    +0.000 NA
ATOM      2  C   UNL     1       4.565   3.836  17.844  0.00  0.00    +0.000 C 
ATOM      3  C   UNL     1       4.979   3.697  16.380  0.00  0.00    +0.000 C 
ATOM      4  C   UNL     1       6.130   4.641  15.994  0.00  0.00    +0.000 C 
ATOM      5  C   UNL     1       5.761   6.065  16.448  0.00  0.00    +0.000 C 
ATOM      6  C   UNL     1       5.357   6.118  17.922  0.00  0.00    +0.000 C 
ENDROOT
BRANCH   4   7
ATOM      7  C   UNL     1       6.428   4.507  14.490  0.00  0.00    +0.000 A 
ATOM      8  C   UNL     1       5.707   3.639  13.651  0.00  0.00    +0.000 A 
ATOM      9  C   UNL     1       6.056   3.469  12.309  0.00  0.00    +0.000 A 
ATOM     10  C   UNL     1       7.122   4.179  11.767  0.00  0.00    +0.000 A 
ATOM     11  C   UNL     1       7.826   5.075  12.562  0.00  0.00    +0.000 A 
ATOM     12  C   UNL     1       7.483   5.242  13.906  0.00  0.00    +0.000 A 
ENDBRANCH   4   7
BRANCH   4  13
ATOM     13  O   UNL     1       7.294   4.250  16.740  0.00  0.00    +0.000 OA
ATOM     14  H   UNL     1       7.818   3.636  16.201  0.00  0.00    +0.000 HD
ENDBRANCH   4  13
BRANCH   1  15
ATOM     15  C   UNL     1       3.854   5.324  19.632  0.00  0.00    +0.000 C 
BRANCH  15  16
ATOM     16  C   UNL     1       2.401   5.780  19.893  0.00  0.00    +0.000 C 
BRANCH  16  17
ATOM     17  O   UNL     1       2.059   5.474  21.252  0.00  0.00    +0.000 OA
ATOM     18  H   UNL     1       2.794   4.934  21.598  0.00  0.00    +0.000 HD
ENDBRANCH  16  17
BRANCH  16  19
ATOM     19  C   UNL     1       2.280   7.287  19.653  0.00  0.00    +0.000 C 
BRANCH  19  20
ATOM     20  O   UNL     1       1.540   7.915  20.708  0.00  0.00    +0.000 OA
BRANCH  20  21
ATOM     21  C   UNL     1       0.962   9.112  20.358  0.00  0.00    +0.000 A 
ATOM     22  C   UNL     1       0.210   9.928  21.212  0.00  0.00    +0.000 A 
ATOM     23  C   UNL     1      -0.347  11.122  20.744  0.00  0.00    +0.000 A 
ATOM     24  C   UNL     1      -0.149  11.505  19.424  0.00  0.00    +0.000 A 
ATOM     25 CL   UNL     1      -0.849  12.968  18.853  0.00  0.00    +0.000 Cl
ATOM     26  C   UNL     1       0.605  10.709  18.564  0.00  0.00    +0.000 A 
ATOM     27  C   UNL     1       1.161   9.517  19.034  0.00  0.00    +0.000 A 
ENDBRANCH  20  21
ENDBRANCH  19  20
ENDBRANCH  16  19
ENDBRANCH  15  16
ENDBRANCH   1  15
TORSDOF 8
ENDMDL
MODEL 5
REMARK VINA RESULT:      -7.3      1.813      2.413
REMARK  Name = 
REMARK  8 active torsions:
REMARK  status: ('A' for Active; 'I' for Inactive)
REMARK    1  A    between atoms: O_1  and  C_2
REMARK    2  A    between atoms: C_2  and  C_3
REMARK    3  A    between atoms: C_2  and  C_12
REMARK    4  A    between atoms: C_3  and  O_4
REMARK    5  A    between atoms: O_4  and  C_5
REMARK    6  A    between atoms: C_12  and  N_13
REMARK    7  A    between atoms: C_16  and  O_17
REMARK    8  A    between atoms: C_16  and  C_18
REMARK                            x       y       z     vdW  Elec       q    Type
REMARK                         _______ _______ _______ _____ _____    ______ ____
ROOT
ATOM      1  N   UNL     1       4.185   3.494  18.587  0.00  0.00    +0.000 NA
ATOM      2  C   UNL     1       5.421   4.289  18.524  0.00  0.00    +0.000 C 
ATOM      3  C   UNL     1       6.070   4.251  17.142  0.00  0.00    +0.000 C 
ATOM      4  C   UNL     1       5.108   4.678  16.019  0.00  0.00    +0.000 C 
ATOM      5  C   UNL     1       3.806   3.870  16.166  0.00  0.00    +0.000 C 
ATOM      6  C   UNL     1       3.222   3.959  17.576  0.00  0.00    +0.000 C 
ENDROOT
BRANCH   4   7
ATOM      7  C   UNL     1       5.804   4.527  14.655  0.00  0.00    +0.000 A 
ATOM      8  C   UNL     1       5.278   3.732  13.621  0.00  0.00    +0.000 A 
ATOM      9  C   UNL     1       5.975   3.540  12.426  0.00  0.00    +0.000 A 
ATOM     10  C   UNL     1       7.207   4.155  12.227  0.00  0.00    +0.000 A 
ATOM     11  C   UNL     1       7.731   4.979  13.214  0.00  0.00    +0.000 A 
ATOM     12  C   UNL     1       7.039   5.168  14.413  0.00  0.00    +0.000 A 
ENDBRANCH   4   7
BRANCH   4  13
ATOM     13  O   UNL     1       4.772   6.060  16.226  0.00  0.00    +0.000 OA
ATOM     14  H   UNL     1       4.467   6.435  15.384  0.00  0.00    +0.000 HD
ENDBRANCH   4  13
BRANCH   1  15
ATOM     15  C   UNL     1       3.571   3.575  19.932  0.00  0.00    +0.000 C 
BRANCH  15  16
ATOM     16  C   UNL     1       2.090   4.017  19.942  0.00  0.00    +0.000 C 
BRANCH  16  17
ATOM     17  O   UNL     1       1.328   3.056  20.686  0.00  0.00    +0.000 OA
ATOM     18  H   UNL     1       1.163   3.463  21.557  0.00  0.00    +0.000 HD
ENDBRANCH  16  17
BRANCH  16  19
ATOM     19  C   UNL     1       1.966   5.397  20.593  0.00  0.00    +0.000 C 
BRANCH  19  20
ATOM     20  O   UNL     1       2.813   6.350  19.937  0.00  0.00    +0.000 OA
BRANCH  20  21
ATOM     21  C   UNL     1       2.173   7.505  19.555  0.00  0.00    +0.000 A 
ATOM     22  C   UNL     1       2.199   8.056  18.269  0.00  0.00    +0.000 A 
ATOM     23  C   UNL     1       1.522   9.249  17.995  0.00  0.00    +0.000 A 
ATOM     24  C   UNL     1       0.815   9.889  19.004  0.00  0.00    +0.000 A 
ATOM     25 CL   UNL     1      -0.003  11.362  18.661  0.00  0.00    +0.000 Cl
ATOM     26  C   UNL     1       0.772   9.348  20.287  0.00  0.00    +0.000 A 
ATOM     27  C   UNL     1       1.448   8.157  20.559  0.00  0.00    +0.000 A 
ENDBRANCH  20  21
ENDBRANCH  19  20
ENDBRANCH  16  19
ENDBRANCH  15  16
ENDBRANCH   1  15
TORSDOF 8
ENDMDL
MODEL 6
REMARK VINA RESULT:      -7.3      1.338      1.914
REMARK  Name = 
REMARK  8 active torsions:
REMARK  status: ('A' for Active; 'I' for Inactive)
REMARK    1  A    between atoms: O_1  and  C_2
REMARK    2  A    between atoms: C_2  and  C_3
REMARK    3  A    between atoms: C_2  and  C_12
REMARK    4  A    between atoms: C_3  and  O_4
REMARK    5  A    between atoms: O_4  and  C_5
REMARK    6  A    between atoms: C_12  and  N_13
REMARK    7  A    between atoms: C_16  and  O_17
REMARK    8  A    between atoms: C_16  and  C_18
REMARK                            x       y       z     vdW  Elec       q    Type
REMARK                         _______ _______ _______ _____ _____    ______ ____
ROOT
ATOM      1  N   UNL     1       4.018   5.335  18.152  0.00  0.00    +0.000 NA
ATOM      2  C   UNL     1       4.269   3.931  17.791  0.00  0.00    +0.000 C 
ATOM      3  C   UNL     1       4.737   3.775  16.346  0.00  0.00    +0.000 C 
ATOM      4  C   UNL     1       5.972   4.634  16.022  0.00  0.00    +0.000 C 
ATOM      5  C   UNL     1       5.689   6.077  16.479  0.00  0.00    +0.000 C 
ATOM      6  C   UNL     1       5.225   6.146  17.933  0.00  0.00    +0.000 C 
ENDROOT
BRANCH   4   7
ATOM      7  C   UNL     1       6.325   4.492  14.531  0.00  0.00    +0.000 A 
ATOM      8  C   UNL     1       5.638   3.619  13.670  0.00  0.00    +0.000 A 
ATOM      9  C   UNL     1       6.037   3.443  12.344  0.00  0.00    +0.000 A 
ATOM     10  C   UNL     1       7.122   4.151  11.838  0.00  0.00    +0.000 A 
ATOM     11  C   UNL     1       7.795   5.052  12.654  0.00  0.00    +0.000 A 
ATOM     12  C   UNL     1       7.401   5.226  13.984  0.00  0.00    +0.000 A 
ENDBRANCH   4   7
BRANCH   4  13
ATOM     13  O   UNL     1       7.069   4.149  16.815  0.00  0.00    +0.000 OA
ATOM     14  H   UNL     1       7.890   4.548  16.486  0.00  0.00    +0.000 HD
ENDBRANCH   4  13
BRANCH   1  15
ATOM     15  C   UNL     1       3.591   5.451  19.565  0.00  0.00    +0.000 C 
BRANCH  15  16
ATOM     16  C   UNL     1       2.080   5.239  19.805  0.00  0.00    +0.000 C 
BRANCH  16  17
ATOM     17  O   UNL     1       1.882   3.942  20.385  0.00  0.00    +0.000 OA
ATOM     18  H   UNL     1       1.013   3.636  20.066  0.00  0.00    +0.000 HD
ENDBRANCH  16  17
BRANCH  16  19
ATOM     19  C   UNL     1       1.549   6.319  20.752  0.00  0.00    +0.000 C 
BRANCH  19  20
ATOM     20  O   UNL     1       2.209   7.571  20.521  0.00  0.00    +0.000 OA
BRANCH  20  21
ATOM     21  C   UNL     1       1.428   8.513  19.895  0.00  0.00    +0.000 A 
ATOM     22  C   UNL     1       1.524   8.877  18.546  0.00  0.00    +0.000 A 
ATOM     23  C   UNL     1       0.686   9.863  18.016  0.00  0.00    +0.000 A 
ATOM     24  C   UNL     1      -0.252  10.483  18.831  0.00  0.00    +0.000 A 
ATOM     25 CL   UNL     1      -1.269  11.704  18.174  0.00  0.00    +0.000 Cl
ATOM     26  C   UNL     1      -0.366  10.125  20.173  0.00  0.00    +0.000 A 
ATOM     27  C   UNL     1       0.471   9.140  20.700  0.00  0.00    +0.000 A 
ENDBRANCH  20  21
ENDBRANCH  19  20
ENDBRANCH  16  19
ENDBRANCH  15  16
ENDBRANCH   1  15
TORSDOF 8
ENDMDL
MODEL 7
REMARK VINA RESULT:      -7.3      0.618      1.155
REMARK  Name = 
REMARK  8 active torsions:
REMARK  status: ('A' for Active; 'I' for Inactive)
REMARK    1  A    between atoms: O_1  and  C_2
REMARK    2  A    between atoms: C_2  and  C_3
REMARK    3  A    between atoms: C_2  and  C_12
REMARK    4  A    between atoms: C_3  and  O_4
REMARK    5  A    between atoms: O_4  and  C_5
REMARK    6  A    between atoms: C_12  and  N_13
REMARK    7  A    between atoms: C_16  and  O_17
REMARK    8  A    between atoms: C_16  and  C_18
REMARK                            x       y       z     vdW  Elec       q    Type
REMARK                         _______ _______ _______ _____ _____    ______ ____
ROOT
ATOM      1  N   UNL     1       4.236   5.484  18.135  0.00  0.00    +0.000 NA
ATOM      2  C   UNL     1       5.113   4.305  18.053  0.00  0.00    +0.000 C 
ATOM      3  C   UNL     1       5.464   3.937  16.613  0.00  0.00    +0.000 C 
ATOM      4  C   UNL     1       6.082   5.111  15.832  0.00  0.00    +0.000 C 
ATOM      5  C   UNL     1       5.168   6.338  16.002  0.00  0.00    +0.000 C 
ATOM      6  C   UNL     1       4.863   6.637  17.470  0.00  0.00    +0.000 C 
ENDROOT
BRANCH   4   7
ATOM      7  C   UNL     1       6.323   4.691  14.372  0.00  0.00    +0.000 A 
ATOM      8  C   UNL     1       5.519   3.742  13.714  0.00  0.00    +0.000 A 
ATOM      9  C   UNL     1       5.814   3.313  12.419  0.00  0.00    +0.000 A 
ATOM     10  C   UNL     1       6.910   3.835  11.740  0.00  0.00    +0.000 A 
ATOM     11  C   UNL     1       7.698   4.803  12.349  0.00  0.00    +0.000 A 
ATOM     12  C   UNL     1       7.408   5.230  13.648  0.00  0.00    +0.000 A 
ENDBRANCH   4   7
BRANCH   4  13
ATOM     13  O   UNL     1       7.341   5.436  16.443  0.00  0.00    +0.000 OA
ATOM     14  H   UNL     1       7.259   6.295  16.888  0.00  0.00    +0.000 HD
ENDBRANCH   4  13
BRANCH   1  15
ATOM     15  C   UNL     1       3.938   5.826  19.544  0.00  0.00    +0.000 C 
BRANCH  15  16
ATOM     16  C   UNL     1       2.435   5.847  19.901  0.00  0.00    +0.000 C 
BRANCH  16  17
ATOM     17  O   UNL     1       2.268   5.315  21.223  0.00  0.00    +0.000 OA
ATOM     18  H   UNL     1       2.247   6.085  21.821  0.00  0.00    +0.000 HD
ENDBRANCH  16  17
BRANCH  16  19
ATOM     19  C   UNL     1       1.909   7.284  19.849  0.00  0.00    +0.000 C 
BRANCH  19  20
ATOM     20  O   UNL     1       1.670   7.789  21.169  0.00  0.00    +0.000 OA
BRANCH  20  21
ATOM     21  C   UNL     1       0.874   8.909  21.210  0.00  0.00    +0.000 A 
ATOM     22  C   UNL     1       0.651   9.782  20.138  0.00  0.00    +0.000 A 
ATOM     23  C   UNL     1      -0.169  10.904  20.297  0.00  0.00    +0.000 A 
ATOM     24  C   UNL     1      -0.770  11.152  21.523  0.00  0.00    +0.000 A 
ATOM     25 CL   UNL     1      -1.765  12.541  21.713  0.00  0.00    +0.000 Cl
ATOM     26  C   UNL     1      -0.566  10.287  22.597  0.00  0.00    +0.000 A 
ATOM     27  C   UNL     1       0.253   9.167  22.437  0.00  0.00    +0.000 A 
ENDBRANCH  20  21
ENDBRANCH  19  20
ENDBRANCH  16  19
ENDBRANCH  15  16
ENDBRANCH   1  15
TORSDOF 8
ENDMDL
MODEL 8
REMARK VINA RESULT:      -7.0      1.169      1.257
REMARK  Name = 
REMARK  8 active torsions:
REMARK  status: ('A' for Active; 'I' for Inactive)
REMARK    1  A    between atoms: O_1  and  C_2
REMARK    2  A    between atoms: C_2  and  C_3
REMARK    3  A    between atoms: C_2  and  C_12
REMARK    4  A    between atoms: C_3  and  O_4
REMARK    5  A    between atoms: O_4  and  C_5
REMARK    6  A    between atoms: C_12  and  N_13
REMARK    7  A    between atoms: C_16  and  O_17
REMARK    8  A    between atoms: C_16  and  C_18
REMARK                            x       y       z     vdW  Elec       q    Type
REMARK                         _______ _______ _______ _____ _____    ______ ____
ROOT
ATOM      1  N   UNL     1       3.788   5.869  17.919  0.00  0.00    +0.000 NA
ATOM      2  C   UNL     1       3.797   4.436  17.583  0.00  0.00    +0.000 C 
ATOM      3  C   UNL     1       4.403   4.163  16.208  0.00  0.00    +0.000 C 
ATOM      4  C   UNL     1       5.816   4.752  16.052  0.00  0.00    +0.000 C 
ATOM      5  C   UNL     1       5.772   6.231  16.478  0.00  0.00    +0.000 C 
ATOM      6  C   UNL     1       5.152   6.418  17.862  0.00  0.00    +0.000 C 
ENDROOT
BRANCH   4   7
ATOM      7  C   UNL     1       6.320   4.515  14.617  0.00  0.00    +0.000 A 
ATOM      8  C   UNL     1       7.436   5.186  14.086  0.00  0.00    +0.000 A 
ATOM      9  C   UNL     1       7.818   5.019  12.754  0.00  0.00    +0.000 A 
ATOM     10  C   UNL     1       7.105   4.161  11.923  0.00  0.00    +0.000 A 
ATOM     11  C   UNL     1       6.023   3.454  12.430  0.00  0.00    +0.000 A 
ATOM     12  C   UNL     1       5.635   3.624  13.762  0.00  0.00    +0.000 A 
ENDBRANCH   4   7
BRANCH   4  13
ATOM     13  O   UNL     1       6.684   4.073  16.974  0.00  0.00    +0.000 OA
ATOM     14  H   UNL     1       7.449   4.641  17.157  0.00  0.00    +0.000 HD
ENDBRANCH   4  13
BRANCH   1  15
ATOM     15  C   UNL     1       3.218   6.094  19.267  0.00  0.00    +0.000 C 
BRANCH  15  16
ATOM     16  C   UNL     1       2.515   7.457  19.453  0.00  0.00    +0.000 C 
BRANCH  16  17
ATOM     17  O   UNL     1       1.948   7.858  18.198  0.00  0.00    +0.000 OA
ATOM     18  H   UNL     1       1.684   7.034  17.748  0.00  0.00    +0.000 HD
ENDBRANCH  16  17
BRANCH  16  19
ATOM     19  C   UNL     1       1.410   7.331  20.507  0.00  0.00    +0.000 C 
BRANCH  19  20
ATOM     20  O   UNL     1       1.620   8.258  21.580  0.00  0.00    +0.000 OA
BRANCH  20  21
ATOM     21  C   UNL     1       0.679   9.257  21.655  0.00  0.00    +0.000 A 
ATOM     22  C   UNL     1       0.254  10.049  20.581  0.00  0.00    +0.000 A 
ATOM     23  C   UNL     1      -0.702  11.052  20.774  0.00  0.00    +0.000 A 
ATOM     24  C   UNL     1      -1.237  11.261  22.039  0.00  0.00    +0.000 A 
ATOM     25 CL   UNL     1      -2.400  12.506  22.270  0.00  0.00    +0.000 Cl
ATOM     26  C   UNL     1      -0.830  10.475  23.115  0.00  0.00    +0.000 A 
ATOM     27  C   UNL     1       0.124   9.474  22.920  0.00  0.00    +0.000 A 
ENDBRANCH  20  21
ENDBRANCH  19  20
ENDBRANCH  16  19
ENDBRANCH  15  16
ENDBRANCH   1  15
TORSDOF 8
ENDMDL
MODEL 9
REMARK VINA RESULT:      -7.0      2.058      2.289
REMARK  Name = 
REMARK  8 active torsions:
REMARK  status: ('A' for Active; 'I' for Inactive)
REMARK    1  A    between atoms: O_1  and  C_2
REMARK    2  A    between atoms: C_2  and  C_3
REMARK    3  A    between atoms: C_2  and  C_12
REMARK    4  A    between atoms: C_3  and  O_4
REMARK    5  A    between atoms: O_4  and  C_5
REMARK    6  A    between atoms: C_12  and  N_13
REMARK    7  A    between atoms: C_16  and  O_17
REMARK    8  A    between atoms: C_16  and  C_18
REMARK                            x       y       z     vdW  Elec       q    Type
REMARK                         _______ _______ _______ _____ _____    ______ ____
ROOT
ATOM      1  N   UNL     1       3.994   5.819  17.880  0.00  0.00    +0.000 NA
ATOM      2  C   UNL     1       4.032   4.383  17.561  0.00  0.00    +0.000 C 
ATOM      3  C   UNL     1       4.586   4.109  16.164  0.00  0.00    +0.000 C 
ATOM      4  C   UNL     1       5.972   4.738  15.939  0.00  0.00    +0.000 C 
ATOM      5  C   UNL     1       5.903   6.220  16.349  0.00  0.00    +0.000 C 
ATOM      6  C   UNL     1       5.337   6.408  17.757  0.00  0.00    +0.000 C 
ENDROOT
BRANCH   4   7
ATOM      7  C   UNL     1       6.420   4.496  14.487  0.00  0.00    +0.000 A 
ATOM      8  C   UNL     1       7.479   5.207  13.893  0.00  0.00    +0.000 A 
ATOM      9  C   UNL     1       7.807   5.032  12.547  0.00  0.00    +0.000 A 
ATOM     10  C   UNL     1       7.096   4.128  11.765  0.00  0.00    +0.000 A 
ATOM     11  C   UNL     1       6.072   3.383  12.334  0.00  0.00    +0.000 A 
ATOM     12  C   UNL     1       5.739   3.559  13.680  0.00  0.00    +0.000 A 
ENDBRANCH   4   7
BRANCH   4  13
ATOM     13  O   UNL     1       6.899   4.097  16.831  0.00  0.00    +0.000 OA
ATOM     14  H   UNL     1       7.100   3.212  16.486  0.00  0.00    +0.000 HD
ENDBRANCH   4  13
BRANCH   1  15
ATOM     15  C   UNL     1       3.477   6.044  19.249  0.00  0.00    +0.000 C 
BRANCH  15  16
ATOM     16  C   UNL     1       2.256   6.987  19.332  0.00  0.00    +0.000 C 
BRANCH  16  17
ATOM     17  O   UNL     1       2.127   7.456  20.681  0.00  0.00    +0.000 OA
ATOM     18  H   UNL     1       3.009   7.784  20.936  0.00  0.00    +0.000 HD
ENDBRANCH  16  17
BRANCH  16  19
ATOM     19  C   UNL     1       2.453   8.175  18.385  0.00  0.00    +0.000 C 
BRANCH  19  20
ATOM     20  O   UNL     1       1.197   8.620  17.855  0.00  0.00    +0.000 OA
BRANCH  20  21
ATOM     21  C   UNL     1       0.873   9.915  18.182  0.00  0.00    +0.000 A 
ATOM     22  C   UNL     1       1.793  10.948  18.400  0.00  0.00    +0.000 A 
ATOM     23  C   UNL     1       1.352  12.230  18.744  0.00  0.00    +0.000 A 
ATOM     24  C   UNL     1      -0.008  12.482  18.866  0.00  0.00    +0.000 A 
ATOM     25 CL   UNL     1      -0.541  14.057  19.303  0.00  0.00    +0.000 Cl
ATOM     26  C   UNL     1      -0.936  11.467  18.643  0.00  0.00    +0.000 A 
ATOM     27  C   UNL     1      -0.494  10.188  18.299  0.00  0.00    +0.000 A 
ENDBRANCH  20  21
ENDBRANCH  19  20
ENDBRANCH  16  19
ENDBRANCH  15  16
ENDBRANCH   1  15
TORSDOF 8
ENDMDL
