MODEL 1
REMARK VINA RESULT:      -8.4      0.000      0.000
REMARK  Name = 
REMARK  3 active torsions:
REMARK  status: ('A' for Active; 'I' for Inactive)
REMARK    1  A    between atoms: C_11  and  C_12
REMARK    2  A    between atoms: N_18  and  C_19
REMARK    3  A    between atoms: C_19  and  C_20
REMARK                            x       y       z     vdW  Elec       q    Type
REMARK                         _______ _______ _______ _____ _____    ______ ____
ROOT
ATOM      1  O   UNL     1       5.885   4.517  19.838  0.00  0.00    +0.000 OA
ATOM      2  C   UNL     1       5.380   4.277  18.740  0.00  0.00    +0.000 A 
ATOM      3  C   UNL     1       3.968   3.871  18.717  0.00  0.00    +0.000 A 
ATOM      4  C   UNL     1       3.252   3.656  19.901  0.00  0.00    +0.000 A 
ATOM      5  C   UNL     1       1.928   3.240  19.827  0.00  0.00    +0.000 A 
ATOM      6 CL   UNL     1       1.051   2.925  21.272  0.00  0.00    +0.000 Cl
ATOM      7  C   UNL     1       1.312   3.063  18.589  0.00  0.00    +0.000 A 
ATOM      8  C   UNL     1       2.037   3.296  17.417  0.00  0.00    +0.000 A 
ATOM      9  C   UNL     1       3.377   3.690  17.480  0.00  0.00    +0.000 A 
ATOM     10  N   UNL     1       4.085   3.853  16.297  0.00  0.00    +0.000 NA
ATOM     11  C   UNL     1       5.350   4.160  16.314  0.00  0.00    +0.000 A 
ATOM     12  N   UNL     1       6.048   4.370  17.515  0.00  0.00    +0.000 N 
ENDROOT
BRANCH  11  13
ATOM     13  C   UNL     1       5.991   4.211  14.952  0.00  0.00    +0.000 A 
ATOM     14  C   UNL     1       7.082   5.010  14.612  0.00  0.00    +0.000 A 
ATOM     15  C   UNL     1       7.581   5.012  13.303  0.00  0.00    +0.000 A 
ATOM     16  C   UNL     1       6.952   4.271  12.306  0.00  0.00    +0.000 A 
ATOM     17  C   UNL     1       5.832   3.510  12.615  0.00  0.00    +0.000 A 
ATOM     18  C   UNL     1       5.363   3.472  13.930  0.00  0.00    +0.000 A 
ENDBRANCH  11  13
BRANCH  12  19
ATOM     19  C   UNL     1       7.458   4.786  17.643  0.00  0.00    +0.000 C 
BRANCH  19  20
ATOM     20  C   UNL     1       7.719   6.257  17.885  0.00  0.00    +0.000 A 
ATOM     21  C   UNL     1       7.152   7.204  17.011  0.00  0.00    +0.000 A 
ATOM     22  C   UNL     1       7.413   8.566  17.168  0.00  0.00    +0.000 A 
ATOM     23  C   UNL     1       8.221   8.995  18.217  0.00  0.00    +0.000 A 
ATOM     24 CL   UNL     1       8.609  10.664  18.370  0.00  0.00    +0.000 Cl
ATOM     25  C   UNL     1       8.726   8.078  19.136  0.00  0.00    +0.000 A 
ATOM     26  C   UNL     1       8.463   6.714  18.980  0.00  0.00    +0.000 A 
ENDBRANCH  19  20
ENDBRANCH  12  19
TORSDOF 3
ENDMDL
MODEL 2
REMARK VINA RESULT:      -8.3      3.479      6.423
REMARK  Name = 
REMARK  3 active torsions:
REMARK  status: ('A' for Active; 'I' for Inactive)
REMARK    1  A    between atoms: C_11  and  C_12
REMARK    2  A    between atoms: N_18  and  C_19
REMARK    3  A    between atoms: C_19  and  C_20
REMARK                            x       y       z     vdW  Elec       q    Type
REMARK                         _______ _______ _______ _____ _____    ______ ____
ROOT
ATOM      1  O   UNL     1       6.056   7.226  17.301  0.00  0.00    +0.000 OA
ATOM      2  C   UNL     1       5.466   6.151  17.187  0.00  0.00    +0.000 A 
ATOM      3  C   UNL     1       5.809   5.309  16.032  0.00  0.00    +0.000 A 
ATOM      4  C   UNL     1       6.689   5.756  15.039  0.00  0.00    +0.000 A 
ATOM      5  C   UNL     1       6.956   4.936  13.950  0.00  0.00    +0.000 A 
ATOM      6 CL   UNL     1       7.995   5.492  12.698  0.00  0.00    +0.000 Cl
ATOM      7  C   UNL     1       6.374   3.673  13.858  0.00  0.00    +0.000 A 
ATOM      8  C   UNL     1       5.510   3.236  14.865  0.00  0.00    +0.000 A 
ATOM      9  C   UNL     1       5.215   4.063  15.953  0.00  0.00    +0.000 A 
ATOM     10  N   UNL     1       4.304   3.622  16.905  0.00  0.00    +0.000 NA
ATOM     11  C   UNL     1       3.958   4.386  17.900  0.00  0.00    +0.000 A 
ATOM     12  N   UNL     1       4.502   5.669  18.077  0.00  0.00    +0.000 N 
ENDROOT
BRANCH  11  13
ATOM     13  C   UNL     1       2.895   3.796  18.790  0.00  0.00    +0.000 A 
ATOM     14  C   UNL     1       1.523   3.878  18.559  0.00  0.00    +0.000 A 
ATOM     15  C   UNL     1       0.614   3.326  19.471  0.00  0.00    +0.000 A 
ATOM     16  C   UNL     1       1.064   2.750  20.656  0.00  0.00    +0.000 A 
ATOM     17  C   UNL     1       2.425   2.705  20.928  0.00  0.00    +0.000 A 
ATOM     18  C   UNL     1       3.333   3.215  19.997  0.00  0.00    +0.000 A 
ENDBRANCH  11  13
BRANCH  12  19
ATOM     19  C   UNL     1       4.229   6.583  19.203  0.00  0.00    +0.000 C 
BRANCH  19  20
ATOM     20  C   UNL     1       3.011   7.474  19.083  0.00  0.00    +0.000 A 
ATOM     21  C   UNL     1       2.769   8.140  17.867  0.00  0.00    +0.000 A 
ATOM     22  C   UNL     1       1.687   9.011  17.734  0.00  0.00    +0.000 A 
ATOM     23  C   UNL     1       0.824   9.205  18.807  0.00  0.00    +0.000 A 
ATOM     24 CL   UNL     1      -0.465  10.335  18.675  0.00  0.00    +0.000 Cl
ATOM     25  C   UNL     1       1.004   8.494  19.992  0.00  0.00    +0.000 A 
ATOM     26  C   UNL     1       2.087   7.620  20.125  0.00  0.00    +0.000 A 
ENDBRANCH  19  20
ENDBRANCH  12  19
TORSDOF 3
ENDMDL
MODEL 3
REMARK VINA RESULT:      -8.3      4.762      6.927
REMARK  Name = 
REMARK  3 active torsions:
REMARK  status: ('A' for Active; 'I' for Inactive)
REMARK    1  A    between atoms: C_11  and  C_12
REMARK    2  A    between atoms: N_18  and  C_19
REMARK    3  A    between atoms: C_19  and  C_20
REMARK                            x       y       z     vdW  Elec       q    Type
REMARK                         _______ _______ _______ _____ _____    ______ ____
ROOT
ATOM      1  O   UNL     1       2.036   9.082  17.534  0.00  0.00    +0.000 OA
ATOM      2  C   UNL     1       1.783   8.535  18.608  0.00  0.00    +0.000 A 
ATOM      3  C   UNL     1       1.305   9.386  19.707  0.00  0.00    +0.000 A 
ATOM      4  C   UNL     1       1.245  10.779  19.576  0.00  0.00    +0.000 A 
ATOM      5  C   UNL     1       0.818  11.543  20.655  0.00  0.00    +0.000 A 
ATOM      6 CL   UNL     1       0.785  13.257  20.527  0.00  0.00    +0.000 Cl
ATOM      7  C   UNL     1       0.430  10.930  21.845  0.00  0.00    +0.000 A 
ATOM      8  C   UNL     1       0.482   9.537  21.954  0.00  0.00    +0.000 A 
ATOM      9  C   UNL     1       0.935   8.761  20.883  0.00  0.00    +0.000 A 
ATOM     10  N   UNL     1       1.032   7.385  21.044  0.00  0.00    +0.000 NA
ATOM     11  C   UNL     1       1.505   6.634  20.093  0.00  0.00    +0.000 A 
ATOM     12  N   UNL     1       1.909   7.165  18.857  0.00  0.00    +0.000 N 
ENDROOT
BRANCH  11  13
ATOM     13  C   UNL     1       1.630   5.178  20.460  0.00  0.00    +0.000 A 
ATOM     14  C   UNL     1       2.567   4.656  21.350  0.00  0.00    +0.000 A 
ATOM     15  C   UNL     1       2.624   3.278  21.595  0.00  0.00    +0.000 A 
ATOM     16  C   UNL     1       1.793   2.401  20.901  0.00  0.00    +0.000 A 
ATOM     17  C   UNL     1       0.888   2.899  19.972  0.00  0.00    +0.000 A 
ATOM     18  C   UNL     1       0.801   4.277  19.762  0.00  0.00    +0.000 A 
ENDBRANCH  11  13
BRANCH  12  19
ATOM     19  C   UNL     1       2.392   6.397  17.694  0.00  0.00    +0.000 C 
BRANCH  19  20
ATOM     20  C   UNL     1       3.837   5.947  17.721  0.00  0.00    +0.000 A 
ATOM     21  C   UNL     1       4.130   4.611  18.056  0.00  0.00    +0.000 A 
ATOM     22  C   UNL     1       5.451   4.171  18.145  0.00  0.00    +0.000 A 
ATOM     23  C   UNL     1       6.490   5.055  17.874  0.00  0.00    +0.000 A 
ATOM     24 CL   UNL     1       8.121   4.540  18.057  0.00  0.00    +0.000 Cl
ATOM     25  C   UNL     1       6.216   6.359  17.466  0.00  0.00    +0.000 A 
ATOM     26  C   UNL     1       4.892   6.799  17.375  0.00  0.00    +0.000 A 
ENDBRANCH  19  20
ENDBRANCH  12  19
TORSDOF 3
ENDMDL
MODEL 4
REMARK VINA RESULT:      -8.1      6.753      9.072
REMARK  Name = 
REMARK  3 active torsions:
REMARK  status: ('A' for Active; 'I' for Inactive)
REMARK    1  A    between atoms: C_11  and  C_12
REMARK    2  A    between atoms: N_18  and  C_19
REMARK    3  A    between atoms: C_19  and  C_20
REMARK                            x       y       z     vdW  Elec       q    Type
REMARK                         _______ _______ _______ _____ _____    ______ ____
ROOT
ATOM      1  O   UNL     1       2.573   8.470  16.957  0.00  0.00    +0.000 OA
ATOM      2  C   UNL     1       2.223   8.195  18.106  0.00  0.00    +0.000 A 
ATOM      3  C   UNL     1       2.610   6.880  18.636  0.00  0.00    +0.000 A 
ATOM      4  C   UNL     1       3.253   5.930  17.832  0.00  0.00    +0.000 A 
ATOM      5  C   UNL     1       3.568   4.689  18.370  0.00  0.00    +0.000 A 
ATOM      6 CL   UNL     1       4.313   3.495  17.382  0.00  0.00    +0.000 Cl
ATOM      7  C   UNL     1       3.270   4.400  19.701  0.00  0.00    +0.000 A 
ATOM      8  C   UNL     1       2.642   5.364  20.494  0.00  0.00    +0.000 A 
ATOM      9  C   UNL     1       2.297   6.608  19.955  0.00  0.00    +0.000 A 
ATOM     10  N   UNL     1       1.619   7.520  20.752  0.00  0.00    +0.000 NA
ATOM     11  C   UNL     1       1.228   8.664  20.271  0.00  0.00    +0.000 A 
ATOM     12  N   UNL     1       1.494   9.044  18.945  0.00  0.00    +0.000 N 
ENDROOT
BRANCH  11  13
ATOM     13  C   UNL     1       0.428   9.499  21.236  0.00  0.00    +0.000 A 
ATOM     14  C   UNL     1       0.417  10.893  21.269  0.00  0.00    +0.000 A 
ATOM     15  C   UNL     1      -0.334  11.576  22.234  0.00  0.00    +0.000 A 
ATOM     16  C   UNL     1      -1.025  10.874  23.219  0.00  0.00    +0.000 A 
ATOM     17  C   UNL     1      -0.984   9.486  23.233  0.00  0.00    +0.000 A 
ATOM     18  C   UNL     1      -0.272   8.805  22.243  0.00  0.00    +0.000 A 
ENDBRANCH  11  13
BRANCH  12  19
ATOM     19  C   UNL     1       1.157  10.339  18.324  0.00  0.00    +0.000 C 
BRANCH  19  20
ATOM     20  C   UNL     1      -0.305  10.601  18.035  0.00  0.00    +0.000 A 
ATOM     21  C   UNL     1      -0.853  11.854  18.367  0.00  0.00    +0.000 A 
ATOM     22  C   UNL     1      -2.209  12.116  18.167  0.00  0.00    +0.000 A 
ATOM     23  C   UNL     1      -3.024  11.137  17.607  0.00  0.00    +0.000 A 
ATOM     24 CL   UNL     1      -4.709  11.426  17.429  0.00  0.00    +0.000 Cl
ATOM     25  C   UNL     1      -2.482   9.920  17.201  0.00  0.00    +0.000 A 
ATOM     26  C   UNL     1      -1.123   9.658  17.400  0.00  0.00    +0.000 A 
ENDBRANCH  19  20
ENDBRANCH  12  19
TORSDOF 3
ENDMDL
MODEL 5
REMARK VINA RESULT:      -8.1      3.266      6.203
REMARK  Name = 
REMARK  3 active torsions:
REMARK  status: ('A' for Active; 'I' for Inactive)
REMARK    1  A    between atoms: C_11  and  C_12
REMARK    2  A    between atoms: N_18  and  C_19
REMARK    3  A    between atoms: C_19  and  C_20
REMARK                            x       y       z     vdW  Elec       q    Type
REMARK                         _______ _______ _______ _____ _____    ______ ____
ROOT
ATOM      1  O   UNL     1       6.428   6.868  17.303  0.00  0.00    +0.000 OA
ATOM      2  C   UNL     1       5.769   5.881  16.973  0.00  0.00    +0.000 A 
ATOM      3  C   UNL     1       6.112   5.233  15.699  0.00  0.00    +0.000 A 
ATOM      4  C   UNL     1       7.073   5.778  14.839  0.00  0.00    +0.000 A 
ATOM      5  C   UNL     1       7.338   5.146  13.630  0.00  0.00    +0.000 A 
ATOM      6 CL   UNL     1       8.480   5.830  12.542  0.00  0.00    +0.000 Cl
ATOM      7  C   UNL     1       6.673   3.970  13.288  0.00  0.00    +0.000 A 
ATOM      8  C   UNL     1       5.727   3.431  14.164  0.00  0.00    +0.000 A 
ATOM      9  C   UNL     1       5.434   4.073  15.372  0.00  0.00    +0.000 A 
ATOM     10  N   UNL     1       4.445   3.545  16.191  0.00  0.00    +0.000 NA
ATOM     11  C   UNL     1       4.102   4.145  17.294  0.00  0.00    +0.000 A 
ATOM     12  N   UNL     1       4.726   5.328  17.722  0.00  0.00    +0.000 N 
ENDROOT
BRANCH  11  13
ATOM     13  C   UNL     1       2.954   3.493  18.020  0.00  0.00    +0.000 A 
ATOM     14  C   UNL     1       3.053   2.343  18.802  0.00  0.00    +0.000 A 
ATOM     15  C   UNL     1       1.914   1.794  19.405  0.00  0.00    +0.000 A 
ATOM     16  C   UNL     1       0.657   2.347  19.177  0.00  0.00    +0.000 A 
ATOM     17  C   UNL     1       0.532   3.462  18.359  0.00  0.00    +0.000 A 
ATOM     18  C   UNL     1       1.673   4.036  17.794  0.00  0.00    +0.000 A 
ENDBRANCH  11  13
BRANCH  12  19
ATOM     19  C   UNL     1       4.461   6.047  18.983  0.00  0.00    +0.000 C 
BRANCH  19  20
ATOM     20  C   UNL     1       3.314   7.034  18.981  0.00  0.00    +0.000 A 
ATOM     21  C   UNL     1       3.086   7.814  17.831  0.00  0.00    +0.000 A 
ATOM     22  C   UNL     1       2.073   8.773  17.809  0.00  0.00    +0.000 A 
ATOM     23  C   UNL     1       1.262   8.944  18.927  0.00  0.00    +0.000 A 
ATOM     24 CL   UNL     1       0.063  10.177  18.933  0.00  0.00    +0.000 Cl
ATOM     25  C   UNL     1       1.424   8.127  20.044  0.00  0.00    +0.000 A 
ATOM     26  C   UNL     1       2.438   7.165  20.066  0.00  0.00    +0.000 A 
ENDBRANCH  19  20
ENDBRANCH  12  19
TORSDOF 3
ENDMDL
MODEL 6
REMARK VINA RESULT:      -8.1      4.745      6.943
REMARK  Name = 
REMARK  3 active torsions:
REMARK  status: ('A' for Active; 'I' for Inactive)
REMARK    1  A    between atoms: C_11  and  C_12
REMARK    2  A    between atoms: N_18  and  C_19
REMARK    3  A    between atoms: C_19  and  C_20
REMARK                            x       y       z     vdW  Elec       q    Type
REMARK                         _______ _______ _______ _____ _____    ______ ____
ROOT
ATOM      1  O   UNL     1       2.149   9.137  17.597  0.00  0.00    +0.000 OA
ATOM      2  C   UNL     1       1.837   8.535  18.626  0.00  0.00    +0.000 A 
ATOM      3  C   UNL     1       1.304   9.331  19.741  0.00  0.00    +0.000 A 
ATOM      4  C   UNL     1       1.255  10.729  19.682  0.00  0.00    +0.000 A 
ATOM      5  C   UNL     1       0.774  11.437  20.775  0.00  0.00    +0.000 A 
ATOM      6 CL   UNL     1       0.753  13.156  20.737  0.00  0.00    +0.000 Cl
ATOM      7  C   UNL     1       0.321  10.764  21.909  0.00  0.00    +0.000 A 
ATOM      8  C   UNL     1       0.363   9.368  21.946  0.00  0.00    +0.000 A 
ATOM      9  C   UNL     1       0.870   8.646  20.861  0.00  0.00    +0.000 A 
ATOM     10  N   UNL     1       0.954   7.263  20.955  0.00  0.00    +0.000 NA
ATOM     11  C   UNL     1       1.475   6.560  19.991  0.00  0.00    +0.000 A 
ATOM     12  N   UNL     1       1.946   7.154  18.808  0.00  0.00    +0.000 N 
ENDROOT
BRANCH  11  13
ATOM     13  C   UNL     1       1.575   5.087  20.287  0.00  0.00    +0.000 A 
ATOM     14  C   UNL     1       0.852   4.090  19.633  0.00  0.00    +0.000 A 
ATOM     15  C   UNL     1       0.990   2.748  20.011  0.00  0.00    +0.000 A 
ATOM     16  C   UNL     1       1.798   2.396  21.089  0.00  0.00    +0.000 A 
ATOM     17  C   UNL     1       2.487   3.382  21.785  0.00  0.00    +0.000 A 
ATOM     18  C   UNL     1       2.384   4.714  21.380  0.00  0.00    +0.000 A 
ENDBRANCH  11  13
BRANCH  12  19
ATOM     19  C   UNL     1       2.488   6.445  17.633  0.00  0.00    +0.000 C 
BRANCH  19  20
ATOM     20  C   UNL     1       3.901   5.916  17.743  0.00  0.00    +0.000 A 
ATOM     21  C   UNL     1       4.977   6.778  17.457  0.00  0.00    +0.000 A 
ATOM     22  C   UNL     1       6.292   6.315  17.494  0.00  0.00    +0.000 A 
ATOM     23  C   UNL     1       6.546   4.992  17.843  0.00  0.00    +0.000 A 
ATOM     24 CL   UNL     1       8.159   4.395  17.816  0.00  0.00    +0.000 Cl
ATOM     25  C   UNL     1       5.499   4.147  18.205  0.00  0.00    +0.000 A 
ATOM     26  C   UNL     1       4.181   4.612  18.170  0.00  0.00    +0.000 A 
ENDBRANCH  19  20
ENDBRANCH  12  19
TORSDOF 3
ENDMDL
MODEL 7
REMARK VINA RESULT:      -8.1      3.559      6.469
REMARK  Name = 
REMARK  3 active torsions:
REMARK  status: ('A' for Active; 'I' for Inactive)
REMARK    1  A    between atoms: C_11  and  C_12
REMARK    2  A    between atoms: N_18  and  C_19
REMARK    3  A    between atoms: C_19  and  C_20
REMARK                            x       y       z     vdW  Elec       q    Type
REMARK                         _______ _______ _______ _____ _____    ______ ____
ROOT
ATOM      1  O   UNL     1       5.931   7.306  17.408  0.00  0.00    +0.000 OA
ATOM      2  C   UNL     1       5.322   6.245  17.265  0.00  0.00    +0.000 A 
ATOM      3  C   UNL     1       5.700   5.394  16.128  0.00  0.00    +0.000 A 
ATOM      4  C   UNL     1       6.637   5.820  15.179  0.00  0.00    +0.000 A 
ATOM      5  C   UNL     1       6.937   4.993  14.103  0.00  0.00    +0.000 A 
ATOM      6 CL   UNL     1       8.048   5.523  12.903  0.00  0.00    +0.000 Cl
ATOM      7  C   UNL     1       6.331   3.743  13.984  0.00  0.00    +0.000 A 
ATOM      8  C   UNL     1       5.409   3.327  14.948  0.00  0.00    +0.000 A 
ATOM      9  C   UNL     1       5.081   4.162  16.021  0.00  0.00    +0.000 A 
ATOM     10  N   UNL     1       4.116   3.744  16.927  0.00  0.00    +0.000 NA
ATOM     11  C   UNL     1       3.740   4.517  17.904  0.00  0.00    +0.000 A 
ATOM     12  N   UNL     1       4.305   5.787  18.108  0.00  0.00    +0.000 N 
ENDROOT
BRANCH  11  13
ATOM     13  C   UNL     1       2.622   3.952  18.742  0.00  0.00    +0.000 A 
ATOM     14  C   UNL     1       2.548   4.030  20.132  0.00  0.00    +0.000 A 
ATOM     15  C   UNL     1       1.483   3.438  20.821  0.00  0.00    +0.000 A 
ATOM     16  C   UNL     1       0.518   2.703  20.136  0.00  0.00    +0.000 A 
ATOM     17  C   UNL     1       0.604   2.570  18.756  0.00  0.00    +0.000 A 
ATOM     18  C   UNL     1       1.642   3.200  18.065  0.00  0.00    +0.000 A 
ENDBRANCH  11  13
BRANCH  12  19
ATOM     19  C   UNL     1       4.000   6.708  19.219  0.00  0.00    +0.000 C 
BRANCH  19  20
ATOM     20  C   UNL     1       2.833   7.653  19.026  0.00  0.00    +0.000 A 
ATOM     21  C   UNL     1       1.994   7.934  20.121  0.00  0.00    +0.000 A 
ATOM     22  C   UNL     1       0.877   8.757  19.971  0.00  0.00    +0.000 A 
ATOM     23  C   UNL     1       0.604   9.327  18.731  0.00  0.00    +0.000 A 
ATOM     24 CL   UNL     1      -0.812  10.280  18.522  0.00  0.00    +0.000 Cl
ATOM     25  C   UNL     1       1.468   9.123  17.658  0.00  0.00    +0.000 A 
ATOM     26  C   UNL     1       2.588   8.300  17.808  0.00  0.00    +0.000 A 
ENDBRANCH  19  20
ENDBRANCH  12  19
TORSDOF 3
ENDMDL
MODEL 8
REMARK VINA RESULT:      -8.1      6.779      9.064
REMARK  Name = 
REMARK  3 active torsions:
REMARK  status: ('A' for Active; 'I' for Inactive)
REMARK    1  A    between atoms: C_11  and  C_12
REMARK    2  A    between atoms: N_18  and  C_19
REMARK    3  A    between atoms: C_19  and  C_20
REMARK                            x       y       z     vdW  Elec       q    Type
REMARK                         _______ _______ _______ _____ _____    ______ ____
ROOT
ATOM      1  O   UNL     1       2.534   8.393  17.074  0.00  0.00    +0.000 OA
ATOM      2  C   UNL     1       2.183   8.129  18.225  0.00  0.00    +0.000 A 
ATOM      3  C   UNL     1       2.517   6.796  18.747  0.00  0.00    +0.000 A 
ATOM      4  C   UNL     1       3.111   5.823  17.935  0.00  0.00    +0.000 A 
ATOM      5  C   UNL     1       3.377   4.567  18.466  0.00  0.00    +0.000 A 
ATOM      6 CL   UNL     1       4.062   3.346  17.468  0.00  0.00    +0.000 Cl
ATOM      7  C   UNL     1       3.079   4.286  19.799  0.00  0.00    +0.000 A 
ATOM      8  C   UNL     1       2.499   5.274  20.600  0.00  0.00    +0.000 A 
ATOM      9  C   UNL     1       2.204   6.533  20.068  0.00  0.00    +0.000 A 
ATOM     10  N   UNL     1       1.572   7.471  20.874  0.00  0.00    +0.000 NA
ATOM     11  C   UNL     1       1.227   8.633  20.400  0.00  0.00    +0.000 A 
ATOM     12  N   UNL     1       1.498   9.005  19.073  0.00  0.00    +0.000 N 
ENDROOT
BRANCH  11  13
ATOM     13  C   UNL     1       0.472   9.498  21.375  0.00  0.00    +0.000 A 
ATOM     14  C   UNL     1      -0.449   9.030  22.311  0.00  0.00    +0.000 A 
ATOM     15  C   UNL     1      -1.128   9.924  23.149  0.00  0.00    +0.000 A 
ATOM     16  C   UNL     1      -0.946  11.298  23.013  0.00  0.00    +0.000 A 
ATOM     17  C   UNL     1      -0.071  11.785  22.050  0.00  0.00    +0.000 A 
ATOM     18  C   UNL     1       0.639  10.891  21.246  0.00  0.00    +0.000 A 
ENDBRANCH  11  13
BRANCH  12  19
ATOM     19  C   UNL     1       1.212  10.316  18.459  0.00  0.00    +0.000 C 
BRANCH  19  20
ATOM     20  C   UNL     1      -0.235  10.618  18.130  0.00  0.00    +0.000 A 
ATOM     21  C   UNL     1      -1.016   9.624  17.511  0.00  0.00    +0.000 A 
ATOM     22  C   UNL     1      -2.337   9.881  17.143  0.00  0.00    +0.000 A 
ATOM     23  C   UNL     1      -2.897  11.125  17.414  0.00  0.00    +0.000 A 
ATOM     24 CL   UNL     1      -4.499  11.474  16.894  0.00  0.00    +0.000 Cl
ATOM     25  C   UNL     1      -2.162  12.093  18.095  0.00  0.00    +0.000 A 
ATOM     26  C   UNL     1      -0.839  11.835  18.466  0.00  0.00    +0.000 A 
ENDBRANCH  19  20
ENDBRANCH  12  19
TORSDOF 3
ENDMDL
MODEL 9
REMARK VINA RESULT:      -7.9     10.391     11.768
REMARK  Name = 
REMARK  3 active torsions:
REMARK  status: ('A' for Active; 'I' for Inactive)
REMARK    1  A    between atoms: C_11  and  C_12
REMARK    2  A    between atoms: N_18  and  C_19
REMARK    3  A    between atoms: C_19  and  C_20
REMARK                            x       y       z     vdW  Elec       q    Type
REMARK                         _______ _______ _______ _____ _____    ______ ____
ROOT
ATOM      1  O   UNL     1      -3.021  13.619  21.739  0.00  0.00    +0.000 OA
ATOM      2  C   UNL     1      -3.717  12.940  20.983  0.00  0.00    +0.000 A 
ATOM      3  C   UNL     1      -5.131  12.759  21.343  0.00  0.00    +0.000 A 
ATOM      4  C   UNL     1      -5.643  13.242  22.553  0.00  0.00    +0.000 A 
ATOM      5  C   UNL     1      -6.978  13.016  22.863  0.00  0.00    +0.000 A 
ATOM      6 CL   UNL     1      -7.609  13.560  24.367  0.00  0.00    +0.000 Cl
ATOM      7  C   UNL     1      -7.805  12.338  21.969  0.00  0.00    +0.000 A 
ATOM      8  C   UNL     1      -7.282  11.875  20.758  0.00  0.00    +0.000 A 
ATOM      9  C   UNL     1      -5.933  12.075  20.448  0.00  0.00    +0.000 A 
ATOM     10  N   UNL     1      -5.431  11.549  19.265  0.00  0.00    +0.000 NA
ATOM     11  C   UNL     1      -4.169  11.661  18.968  0.00  0.00    +0.000 A 
ATOM     12  N   UNL     1      -3.265  12.338  19.805  0.00  0.00    +0.000 N 
ENDROOT
BRANCH  11  13
ATOM     13  C   UNL     1      -3.769  10.959  17.697  0.00  0.00    +0.000 A 
ATOM     14  C   UNL     1      -3.065   9.757  17.635  0.00  0.00    +0.000 A 
ATOM     15  C   UNL     1      -2.708   9.206  16.398  0.00  0.00    +0.000 A 
ATOM     16  C   UNL     1      -2.988   9.883  15.214  0.00  0.00    +0.000 A 
ATOM     17  C   UNL     1      -3.643  11.107  15.259  0.00  0.00    +0.000 A 
ATOM     18  C   UNL     1      -4.039  11.635  16.490  0.00  0.00    +0.000 A 
ENDBRANCH  11  13
BRANCH  12  19
ATOM     19  C   UNL     1      -1.836  12.580  19.530  0.00  0.00    +0.000 C 
BRANCH  19  20
ATOM     20  C   UNL     1      -0.903  11.395  19.656  0.00  0.00    +0.000 A 
ATOM     21  C   UNL     1      -0.929  10.628  20.836  0.00  0.00    +0.000 A 
ATOM     22  C   UNL     1      -0.048   9.561  21.014  0.00  0.00    +0.000 A 
ATOM     23  C   UNL     1       0.850   9.235  20.002  0.00  0.00    +0.000 A 
ATOM     24 CL   UNL     1       1.990   7.971  20.245  0.00  0.00    +0.000 Cl
ATOM     25  C   UNL     1       0.836   9.934  18.797  0.00  0.00    +0.000 A 
ATOM     26  C   UNL     1      -0.049  11.002  18.618  0.00  0.00    +0.000 A 
ENDBRANCH  19  20
ENDBRANCH  12  19
TORSDOF 3
ENDMDL
