MODEL 1
REMARK VINA RESULT:      -7.3      0.000      0.000
REMARK  Name = 
REMARK  8 active torsions:
REMARK  status: ('A' for Active; 'I' for Inactive)
REMARK    1  A    between atoms: C_1  and  C_2
REMARK    2  A    between atoms: C_2  and  C_3
REMARK    3  A    between atoms: C_2  and  O_4
REMARK    4  A    between atoms: O_4  and  C_5
REMARK    5  A    between atoms: C_8  and  C_9
REMARK    6  A    between atoms: C_9  and  N_10
REMARK    7  A    between atoms: N_14  and  S_15
REMARK    8  A    between atoms: S_15  and  C_16
REMARK                            x       y       z     vdW  Elec       q    Type
REMARK                         _______ _______ _______ _____ _____    ______ ____
ROOT
ATOM      1  N   UNL     1      -0.298  11.552  18.714  0.00  0.00    +0.000 NA
ATOM      2  C   UNL     1      -1.779  11.570  18.696  0.00  0.00    +0.000 C 
ATOM      3  C   UNL     1      -2.559  11.893  19.987  0.00  0.00    +0.000 C 
ATOM      4  C   UNL     1      -2.794  13.365  20.415  0.00  0.00    +0.000 C 
ATOM      5  N   UNL     1      -2.670  13.495  21.908  0.00  0.00    +0.000 NA
ATOM      6  C   UNL     1      -1.955  14.720  22.445  0.00  0.00    +0.000 C 
ATOM      7  C   UNL     1      -1.710  14.708  23.956  0.00  0.00    +0.000 C 
ATOM      8  C   UNL     1      -0.858  15.950  24.170  0.00  0.00    +0.000 C 
ATOM      9  C   UNL     1       0.184  15.830  23.077  0.00  0.00    +0.000 C 
ATOM     10  C   UNL     1      -0.548  15.151  21.895  0.00  0.00    +0.000 C 
ATOM     11  C   UNL     1       0.400  14.092  21.360  0.00  0.00    +0.000 C 
ATOM     12  O   UNL     1       0.576  13.003  21.879  0.00  0.00    +0.000 OA
ATOM     13  N   UNL     1       1.129  14.528  20.243  0.00  0.00    +0.000 N 
ATOM     14  C   UNL     1       1.466  13.545  19.225  0.00  0.00    +0.000 C 
ATOM     15  C   UNL     1       0.172  12.960  18.601  0.00  0.00    +0.000 C 
ATOM     16  H   UNL     1       1.826  15.233  20.449  0.00  0.00    +0.000 HD
ENDROOT
BRANCH   5  17
ATOM     17  S   UNL     1      -4.038  12.852  22.760  0.00  0.00    +0.000 S 
ATOM     18  C   UNL     1      -4.788  14.275  23.553  0.00  0.00    +0.000 C 
ATOM     19  O   UNL     1      -5.011  12.384  21.792  0.00  0.00    +0.000 OA
ATOM     20  O   UNL     1      -3.575  11.971  23.809  0.00  0.00    +0.000 OA
ENDBRANCH   5  17
BRANCH   1  21
ATOM     21  C   UNL     1       0.290  10.733  19.800  0.00  0.00    +0.000 C 
BRANCH  21  25
ATOM     22  C   UNL     1       2.653   7.155  18.584  0.00  0.00    +0.000 A 
ATOM     23  C   UNL     1       2.188   7.238  19.891  0.00  0.00    +0.000 A 
ATOM     24  C   UNL     1       1.436   8.384  20.348  0.00  0.00    +0.000 A 
ATOM     25  C   UNL     1       1.168   9.486  19.516  0.00  0.00    +0.000 A 
ATOM     26  C   UNL     1       1.687   9.390  18.212  0.00  0.00    +0.000 A 
ATOM     27  C   UNL     1       2.395   8.257  17.763  0.00  0.00    +0.000 A 
BRANCH  22  28
ATOM     28  O   UNL     1       3.153   6.105  17.888  0.00  0.00    +0.000 OA
BRANCH  28  30
ATOM     29  C   UNL     1       1.570   4.083  17.702  0.00  0.00    +0.000 C 
ATOM     30  C   UNL     1       2.950   4.692  17.870  0.00  0.00    +0.000 C 
ATOM     31  C   UNL     1       3.973   3.990  16.972  0.00  0.00    +0.000 C 
ENDBRANCH  28  30
ENDBRANCH  22  28
ENDBRANCH  21  25
ENDBRANCH   1  21
TORSDOF 5
ENDMDL
MODEL 2
REMARK VINA RESULT:      -7.1      0.690      1.112
REMARK  Name = 
REMARK  8 active torsions:
REMARK  status: ('A' for Active; 'I' for Inactive)
REMARK    1  A    between atoms: C_1  and  C_2
REMARK    2  A    between atoms: C_2  and  C_3
REMARK    3  A    between atoms: C_2  and  O_4
REMARK    4  A    between atoms: O_4  and  C_5
REMARK    5  A    between atoms: C_8  and  C_9
REMARK    6  A    between atoms: C_9  and  N_10
REMARK    7  A    between atoms: N_14  and  S_15
REMARK    8  A    between atoms: S_15  and  C_16
REMARK                            x       y       z     vdW  Elec       q    Type
REMARK                         _______ _______ _______ _____ _____    ______ ____
ROOT
ATOM      1  N   UNL     1      -0.144  11.863  18.652  0.00  0.00    +0.000 NA
ATOM      2  C   UNL     1      -1.623  11.789  18.669  0.00  0.00    +0.000 C 
ATOM      3  C   UNL     1      -2.389  12.029  19.987  0.00  0.00    +0.000 C 
ATOM      4  C   UNL     1      -2.703  13.472  20.460  0.00  0.00    +0.000 C 
ATOM      5  N   UNL     1      -2.550  13.572  21.952  0.00  0.00    +0.000 NA
ATOM      6  C   UNL     1      -1.900  14.825  22.505  0.00  0.00    +0.000 C 
ATOM      7  C   UNL     1      -1.616  14.790  24.009  0.00  0.00    +0.000 C 
ATOM      8  C   UNL     1      -0.838  16.077  24.236  0.00  0.00    +0.000 C 
ATOM      9  C   UNL     1       0.183  16.051  23.116  0.00  0.00    +0.000 C 
ATOM     10  C   UNL     1      -0.536  15.357  21.933  0.00  0.00    +0.000 C 
ATOM     11  C   UNL     1       0.462  14.374  21.348  0.00  0.00    +0.000 C 
ATOM     12  O   UNL     1       0.719  13.285  21.833  0.00  0.00    +0.000 OA
ATOM     13  N   UNL     1       1.134  14.883  20.226  0.00  0.00    +0.000 N 
ATOM     14  C   UNL     1       1.506  13.949  19.174  0.00  0.00    +0.000 C 
ATOM     15  C   UNL     1       0.235  13.300  18.566  0.00  0.00    +0.000 C 
ATOM     16  H   UNL     1       1.791  15.625  20.434  0.00  0.00    +0.000 HD
ENDROOT
BRANCH   5  17
ATOM     17  S   UNL     1      -3.854  12.823  22.819  0.00  0.00    +0.000 S 
ATOM     18  C   UNL     1      -4.611  14.160  23.744  0.00  0.00    +0.000 C 
ATOM     19  O   UNL     1      -4.856  12.388  21.866  0.00  0.00    +0.000 OA
ATOM     20  O   UNL     1      -3.312  11.889  23.781  0.00  0.00    +0.000 OA
ENDBRANCH   5  17
BRANCH   1  21
ATOM     21  C   UNL     1       0.521  11.055  19.701  0.00  0.00    +0.000 C 
BRANCH  21  25
ATOM     22  C   UNL     1       2.365   7.018  19.287  0.00  0.00    +0.000 A 
ATOM     23  C   UNL     1       2.287   7.838  18.167  0.00  0.00    +0.000 A 
ATOM     24  C   UNL     1       1.681   9.147  18.236  0.00  0.00    +0.000 A 
ATOM     25  C   UNL     1       1.105   9.646  19.418  0.00  0.00    +0.000 A 
ATOM     26  C   UNL     1       1.164   8.777  20.524  0.00  0.00    +0.000 A 
ATOM     27  C   UNL     1       1.782   7.513  20.458  0.00  0.00    +0.000 A 
BRANCH  22  28
ATOM     28  O   UNL     1       3.081   5.890  19.511  0.00  0.00    +0.000 OA
BRANCH  28  30
ATOM     29  C   UNL     1       1.605   3.842  20.016  0.00  0.00    +0.000 C 
ATOM     30  C   UNL     1       2.844   4.485  19.419  0.00  0.00    +0.000 C 
ATOM     31  C   UNL     1       3.104   3.964  18.003  0.00  0.00    +0.000 C 
ENDBRANCH  28  30
ENDBRANCH  22  28
ENDBRANCH  21  25
ENDBRANCH   1  21
TORSDOF 5
ENDMDL
MODEL 3
REMARK VINA RESULT:      -7.0      0.980      1.252
REMARK  Name = 
REMARK  8 active torsions:
REMARK  status: ('A' for Active; 'I' for Inactive)
REMARK    1  A    between atoms: C_1  and  C_2
REMARK    2  A    between atoms: C_2  and  C_3
REMARK    3  A    between atoms: C_2  and  O_4
REMARK    4  A    between atoms: O_4  and  C_5
REMARK    5  A    between atoms: C_8  and  C_9
REMARK    6  A    between atoms: C_9  and  N_10
REMARK    7  A    between atoms: N_14  and  S_15
REMARK    8  A    between atoms: S_15  and  C_16
REMARK                            x       y       z     vdW  Elec       q    Type
REMARK                         _______ _______ _______ _____ _____    ______ ____
ROOT
ATOM      1  N   UNL     1      -0.467  11.676  18.792  0.00  0.00    +0.000 NA
ATOM      2  C   UNL     1      -1.943  11.741  18.875  0.00  0.00    +0.000 C 
ATOM      3  C   UNL     1      -2.622  12.128  20.207  0.00  0.00    +0.000 C 
ATOM      4  C   UNL     1      -2.782  13.618  20.602  0.00  0.00    +0.000 C 
ATOM      5  N   UNL     1      -2.550  13.789  22.078  0.00  0.00    +0.000 NA
ATOM      6  C   UNL     1      -1.763  15.006  22.525  0.00  0.00    +0.000 C 
ATOM      7  C   UNL     1      -1.414  15.031  24.015  0.00  0.00    +0.000 C 
ATOM      8  C   UNL     1      -0.512  16.251  24.130  0.00  0.00    +0.000 C 
ATOM      9  C   UNL     1       0.448  16.066  22.972  0.00  0.00    +0.000 C 
ATOM     10  C   UNL     1      -0.385  15.375  21.865  0.00  0.00    +0.000 C 
ATOM     11  C   UNL     1       0.490  14.271  21.301  0.00  0.00    +0.000 C 
ATOM     12  O   UNL     1       0.670  13.193  21.841  0.00  0.00    +0.000 OA
ATOM     13  N   UNL     1       1.152  14.649  20.123  0.00  0.00    +0.000 N 
ATOM     14  C   UNL     1       1.388  13.626  19.116  0.00  0.00    +0.000 C 
ATOM     15  C   UNL     1       0.037  13.064  18.602  0.00  0.00    +0.000 C 
ATOM     16  H   UNL     1       1.882  15.338  20.257  0.00  0.00    +0.000 HD
ENDROOT
BRANCH   5  17
ATOM     17  S   UNL     1      -3.874  13.216  23.042  0.00  0.00    +0.000 S 
ATOM     18  C   UNL     1      -5.169  12.844  21.859  0.00  0.00    +0.000 C 
ATOM     19  O   UNL     1      -3.504  11.944  23.632  0.00  0.00    +0.000 OA
ATOM     20  O   UNL     1      -4.354  14.293  23.880  0.00  0.00    +0.000 OA
ENDBRANCH   5  17
BRANCH   1  21
ATOM     21  C   UNL     1       0.172  10.871  19.860  0.00  0.00    +0.000 C 
BRANCH  21  25
ATOM     22  C   UNL     1       2.483   7.280  18.587  0.00  0.00    +0.000 A 
ATOM     23  C   UNL     1       2.096   7.391  19.918  0.00  0.00    +0.000 A 
ATOM     24  C   UNL     1       1.365   8.542  20.392  0.00  0.00    +0.000 A 
ATOM     25  C   UNL     1       1.040   9.623  19.553  0.00  0.00    +0.000 A 
ATOM     26  C   UNL     1       1.480   9.500  18.222  0.00  0.00    +0.000 A 
ATOM     27  C   UNL     1       2.168   8.361  17.758  0.00  0.00    +0.000 A 
BRANCH  22  28
ATOM     28  O   UNL     1       2.948   6.217  17.886  0.00  0.00    +0.000 OA
BRANCH  28  30
ATOM     29  C   UNL     1       5.042   6.322  16.392  0.00  0.00    +0.000 C 
ATOM     30  C   UNL     1       4.230   5.708  17.518  0.00  0.00    +0.000 C 
ATOM     31  C   UNL     1       5.105   5.451  18.749  0.00  0.00    +0.000 C 
ENDBRANCH  28  30
ENDBRANCH  22  28
ENDBRANCH  21  25
ENDBRANCH   1  21
TORSDOF 5
ENDMDL
MODEL 4
REMARK VINA RESULT:      -6.9      1.418      1.781
REMARK  Name = 
REMARK  8 active torsions:
REMARK  status: ('A' for Active; 'I' for Inactive)
REMARK    1  A    between atoms: C_1  and  C_2
REMARK    2  A    between atoms: C_2  and  C_3
REMARK    3  A    between atoms: C_2  and  O_4
REMARK    4  A    between atoms: O_4  and  C_5
REMARK    5  A    between atoms: C_8  and  C_9
REMARK    6  A    between atoms: C_9  and  N_10
REMARK    7  A    between atoms: N_14  and  S_15
REMARK    8  A    between atoms: S_15  and  C_16
REMARK                            x       y       z     vdW  Elec       q    Type
REMARK                         _______ _______ _______ _____ _____    ______ ____
ROOT
ATOM      1  N   UNL     1      -1.025  12.023  19.705  0.00  0.00    +0.000 NA
ATOM      2  C   UNL     1      -2.419  12.340  19.321  0.00  0.00    +0.000 C 
ATOM      3  C   UNL     1      -3.474  12.616  20.414  0.00  0.00    +0.000 C 
ATOM      4  C   UNL     1      -3.593  14.024  21.052  0.00  0.00    +0.000 C 
ATOM      5  N   UNL     1      -3.877  13.902  22.523  0.00  0.00    +0.000 NA
ATOM      6  C   UNL     1      -3.165  14.866  23.453  0.00  0.00    +0.000 C 
ATOM      7  C   UNL     1      -3.361  14.579  24.944  0.00  0.00    +0.000 C 
ATOM      8  C   UNL     1      -2.425  15.579  25.606  0.00  0.00    +0.000 C 
ATOM      9  C   UNL     1      -1.147  15.419  24.808  0.00  0.00    +0.000 C 
ATOM     10  C   UNL     1      -1.610  15.084  23.369  0.00  0.00    +0.000 C 
ATOM     11  C   UNL     1      -0.723  13.948  22.890  0.00  0.00    +0.000 C 
ATOM     12  O   UNL     1      -0.868  12.781  23.211  0.00  0.00    +0.000 OA
ATOM     13  N   UNL     1       0.348  14.392  22.100  0.00  0.00    +0.000 N 
ATOM     14  C   UNL     1       0.806  13.524  21.026  0.00  0.00    +0.000 C 
ATOM     15  C   UNL     1      -0.333  13.309  19.995  0.00  0.00    +0.000 C 
ATOM     16  H   UNL     1       1.058  14.905  22.610  0.00  0.00    +0.000 HD
ENDROOT
BRANCH   5  17
ATOM     17  S   UNL     1      -5.510  13.426  22.861  0.00  0.00    +0.000 S 
ATOM     18  C   UNL     1      -6.241  14.852  23.666  0.00  0.00    +0.000 C 
ATOM     19  O   UNL     1      -6.221  13.278  21.605  0.00  0.00    +0.000 OA
ATOM     20  O   UNL     1      -5.503  12.347  23.823  0.00  0.00    +0.000 OA
ENDBRANCH   5  17
BRANCH   1  21
ATOM     21  C   UNL     1      -0.898  10.950  20.720  0.00  0.00    +0.000 C 
BRANCH  21  25
ATOM     22  C   UNL     1       1.991   7.645  19.948  0.00  0.00    +0.000 A 
ATOM     23  C   UNL     1       1.369   7.716  21.189  0.00  0.00    +0.000 A 
ATOM     24  C   UNL     1       0.440   8.776  21.504  0.00  0.00    +0.000 A 
ATOM     25  C   UNL     1       0.146   9.810  20.596  0.00  0.00    +0.000 A 
ATOM     26  C   UNL     1       0.821   9.733  19.364  0.00  0.00    +0.000 A 
ATOM     27  C   UNL     1       1.704   8.680  19.052  0.00  0.00    +0.000 A 
BRANCH  22  28
ATOM     28  O   UNL     1       2.687   6.641  19.362  0.00  0.00    +0.000 OA
BRANCH  28  30
ATOM     29  C   UNL     1       4.366   6.586  17.410  0.00  0.00    +0.000 C 
ATOM     30  C   UNL     1       3.016   6.261  18.025  0.00  0.00    +0.000 C 
ATOM     31  C   UNL     1       2.619   4.809  17.742  0.00  0.00    +0.000 C 
ENDBRANCH  28  30
ENDBRANCH  22  28
ENDBRANCH  21  25
ENDBRANCH   1  21
TORSDOF 5
ENDMDL
MODEL 5
REMARK VINA RESULT:      -6.9      3.508      5.463
REMARK  Name = 
REMARK  8 active torsions:
REMARK  status: ('A' for Active; 'I' for Inactive)
REMARK    1  A    between atoms: C_1  and  C_2
REMARK    2  A    between atoms: C_2  and  C_3
REMARK    3  A    between atoms: C_2  and  O_4
REMARK    4  A    between atoms: O_4  and  C_5
REMARK    5  A    between atoms: C_8  and  C_9
REMARK    6  A    between atoms: C_9  and  N_10
REMARK    7  A    between atoms: N_14  and  S_15
REMARK    8  A    between atoms: S_15  and  C_16
REMARK                            x       y       z     vdW  Elec       q    Type
REMARK                         _______ _______ _______ _____ _____    ______ ____
ROOT
ATOM      1  N   UNL     1       0.574  12.397  20.868  0.00  0.00    +0.000 NA
ATOM      2  C   UNL     1       1.902  12.801  21.382  0.00  0.00    +0.000 C 
ATOM      3  C   UNL     1       2.809  13.716  20.532  0.00  0.00    +0.000 C 
ATOM      4  C   UNL     1       2.611  15.253  20.550  0.00  0.00    +0.000 C 
ATOM      5  N   UNL     1       2.817  15.816  19.171  0.00  0.00    +0.000 NA
ATOM      6  C   UNL     1       1.872  16.913  18.717  0.00  0.00    +0.000 C 
ATOM      7  C   UNL     1       2.022  17.320  17.249  0.00  0.00    +0.000 C 
ATOM      8  C   UNL     1       0.869  18.292  17.049  0.00  0.00    +0.000 C 
ATOM      9  C   UNL     1      -0.298  17.557  17.675  0.00  0.00    +0.000 C 
ATOM     10  C   UNL     1       0.314  16.755  18.849  0.00  0.00    +0.000 C 
ATOM     11  C   UNL     1      -0.303  15.369  18.784  0.00  0.00    +0.000 C 
ATOM     12  O   UNL     1       0.044  14.498  18.005  0.00  0.00    +0.000 OA
ATOM     13  N   UNL     1      -1.386  15.214  19.662  0.00  0.00    +0.000 N 
ATOM     14  C   UNL     1      -1.596  13.905  20.261  0.00  0.00    +0.000 C 
ATOM     15  C   UNL     1      -0.372  13.516  21.131  0.00  0.00    +0.000 C 
ATOM     16  H   UNL     1      -2.214  15.737  19.400  0.00  0.00    +0.000 HD
ENDROOT
BRANCH   5  17
ATOM     17  S   UNL     1       4.486  15.868  18.702  0.00  0.00    +0.000 S 
ATOM     18  C   UNL     1       5.384  15.339  20.163  0.00  0.00    +0.000 C 
ATOM     19  O   UNL     1       4.721  14.842  17.705  0.00  0.00    +0.000 OA
ATOM     20  O   UNL     1       4.865  17.238  18.438  0.00  0.00    +0.000 OA
ENDBRANCH   5  17
BRANCH   1  21
ATOM     21  C   UNL     1       0.592  11.843  19.493  0.00  0.00    +0.000 C 
BRANCH  21  25
ATOM     22  C   UNL     1       2.159   7.699  19.012  0.00  0.00    +0.000 A 
ATOM     23  C   UNL     1       2.244   8.577  17.937  0.00  0.00    +0.000 A 
ATOM     24  C   UNL     1       1.733   9.925  18.028  0.00  0.00    +0.000 A 
ATOM     25  C   UNL     1       1.092  10.409  19.183  0.00  0.00    +0.000 A 
ATOM     26  C   UNL     1       0.986   9.484  20.239  0.00  0.00    +0.000 A 
ATOM     27  C   UNL     1       1.512   8.180  20.154  0.00  0.00    +0.000 A 
BRANCH  22  28
ATOM     28  O   UNL     1       2.767   6.508  19.232  0.00  0.00    +0.000 OA
BRANCH  28  30
ATOM     29  C   UNL     1       1.517   4.542  20.330  0.00  0.00    +0.000 C 
ATOM     30  C   UNL     1       2.373   5.135  19.225  0.00  0.00    +0.000 C 
ATOM     31  C   UNL     1       1.865   4.705  17.846  0.00  0.00    +0.000 C 
ENDBRANCH  28  30
ENDBRANCH  22  28
ENDBRANCH  21  25
ENDBRANCH   1  21
TORSDOF 5
ENDMDL
MODEL 6
REMARK VINA RESULT:      -6.8      1.450      1.738
REMARK  Name = 
REMARK  8 active torsions:
REMARK  status: ('A' for Active; 'I' for Inactive)
REMARK    1  A    between atoms: C_1  and  C_2
REMARK    2  A    between atoms: C_2  and  C_3
REMARK    3  A    between atoms: C_2  and  O_4
REMARK    4  A    between atoms: O_4  and  C_5
REMARK    5  A    between atoms: C_8  and  C_9
REMARK    6  A    between atoms: C_9  and  N_10
REMARK    7  A    between atoms: N_14  and  S_15
REMARK    8  A    between atoms: S_15  and  C_16
REMARK                            x       y       z     vdW  Elec       q    Type
REMARK                         _______ _______ _______ _____ _____    ______ ____
ROOT
ATOM      1  N   UNL     1      -0.939  12.256  19.764  0.00  0.00    +0.000 NA
ATOM      2  C   UNL     1      -2.391  12.417  19.527  0.00  0.00    +0.000 C 
ATOM      3  C   UNL     1      -3.347  12.622  20.722  0.00  0.00    +0.000 C 
ATOM      4  C   UNL     1      -3.543  14.032  21.336  0.00  0.00    +0.000 C 
ATOM      5  N   UNL     1      -3.656  13.932  22.833  0.00  0.00    +0.000 NA
ATOM      6  C   UNL     1      -2.954  14.993  23.658  0.00  0.00    +0.000 C 
ATOM      7  C   UNL     1      -2.960  14.738  25.167  0.00  0.00    +0.000 C 
ATOM      8  C   UNL     1      -2.068  15.850  25.700  0.00  0.00    +0.000 C 
ATOM      9  C   UNL     1      -0.872  15.792  24.772  0.00  0.00    +0.000 C 
ATOM     10  C   UNL     1      -1.448  15.364  23.400  0.00  0.00    +0.000 C 
ATOM     11  C   UNL     1      -0.504  14.308  22.853  0.00  0.00    +0.000 C 
ATOM     12  O   UNL     1      -0.491  13.144  23.214  0.00  0.00    +0.000 OA
ATOM     13  N   UNL     1       0.427  14.831  21.942  0.00  0.00    +0.000 N 
ATOM     14  C   UNL     1       0.855  13.978  20.844  0.00  0.00    +0.000 C 
ATOM     15  C   UNL     1      -0.358  13.615  19.948  0.00  0.00    +0.000 C 
ATOM     16  H   UNL     1       1.129  15.429  22.359  0.00  0.00    +0.000 HD
ENDROOT
BRANCH   5  17
ATOM     17  S   UNL     1      -5.187  13.305  23.357  0.00  0.00    +0.000 S 
ATOM     18  C   UNL     1      -6.028  12.837  21.843  0.00  0.00    +0.000 C 
ATOM     19  O   UNL     1      -4.960  12.068  24.078  0.00  0.00    +0.000 OA
ATOM     20  O   UNL     1      -5.955  14.369  23.963  0.00  0.00    +0.000 OA
ENDBRANCH   5  17
BRANCH   1  21
ATOM     21  C   UNL     1      -0.595  11.236  20.783  0.00  0.00    +0.000 C 
BRANCH  21  25
ATOM     22  C   UNL     1       1.982   7.829  19.512  0.00  0.00    +0.000 A 
ATOM     23  C   UNL     1       1.499   7.854  20.815  0.00  0.00    +0.000 A 
ATOM     24  C   UNL     1       0.678   8.944  21.290  0.00  0.00    +0.000 A 
ATOM     25  C   UNL     1       0.356  10.049  20.481  0.00  0.00    +0.000 A 
ATOM     26  C   UNL     1       0.893  10.014  19.180  0.00  0.00    +0.000 A 
ATOM     27  C   UNL     1       1.669   8.935  18.714  0.00  0.00    +0.000 A 
BRANCH  22  28
ATOM     28  O   UNL     1       2.548   6.827  18.796  0.00  0.00    +0.000 OA
BRANCH  28  30
ATOM     29  C   UNL     1       2.267   4.383  18.036  0.00  0.00    +0.000 C 
ATOM     30  C   UNL     1       2.796   5.434  18.994  0.00  0.00    +0.000 C 
ATOM     31  C   UNL     1       4.264   5.171  19.343  0.00  0.00    +0.000 C 
ENDBRANCH  28  30
ENDBRANCH  22  28
ENDBRANCH  21  25
ENDBRANCH   1  21
TORSDOF 5
ENDMDL
MODEL 7
REMARK VINA RESULT:      -6.8      0.743      1.048
REMARK  Name = 
REMARK  8 active torsions:
REMARK  status: ('A' for Active; 'I' for Inactive)
REMARK    1  A    between atoms: C_1  and  C_2
REMARK    2  A    between atoms: C_2  and  C_3
REMARK    3  A    between atoms: C_2  and  O_4
REMARK    4  A    between atoms: O_4  and  C_5
REMARK    5  A    between atoms: C_8  and  C_9
REMARK    6  A    between atoms: C_9  and  N_10
REMARK    7  A    between atoms: N_14  and  S_15
REMARK    8  A    between atoms: S_15  and  C_16
REMARK                            x       y       z     vdW  Elec       q    Type
REMARK                         _______ _______ _______ _____ _____    ______ ____
ROOT
ATOM      1  N   UNL     1      -0.370  11.606  18.640  0.00  0.00    +0.000 NA
ATOM      2  C   UNL     1      -1.844  11.743  18.614  0.00  0.00    +0.000 C 
ATOM      3  C   UNL     1      -2.603  12.136  19.900  0.00  0.00    +0.000 C 
ATOM      4  C   UNL     1      -2.720  13.625  20.316  0.00  0.00    +0.000 C 
ATOM      5  N   UNL     1      -2.594  13.755  21.809  0.00  0.00    +0.000 NA
ATOM      6  C   UNL     1      -1.786  14.923  22.342  0.00  0.00    +0.000 C 
ATOM      7  C   UNL     1      -1.550  14.902  23.854  0.00  0.00    +0.000 C 
ATOM      8  C   UNL     1      -0.603  16.073  24.064  0.00  0.00    +0.000 C 
ATOM      9  C   UNL     1       0.433  15.863  22.978  0.00  0.00    +0.000 C 
ATOM     10  C   UNL     1      -0.346  15.236  21.796  0.00  0.00    +0.000 C 
ATOM     11  C   UNL     1       0.516  14.101  21.273  0.00  0.00    +0.000 C 
ATOM     12  O   UNL     1       0.603  13.005  21.801  0.00  0.00    +0.000 OA
ATOM     13  N   UNL     1       1.283  14.469  20.158  0.00  0.00    +0.000 N 
ATOM     14  C   UNL     1       1.546  13.455  19.148  0.00  0.00    +0.000 C 
ATOM     15  C   UNL     1       0.212  12.971  18.521  0.00  0.00    +0.000 C 
ATOM     16  H   UNL     1       2.033  15.118  20.362  0.00  0.00    +0.000 HD
ENDROOT
BRANCH   5  17
ATOM     17  S   UNL     1      -4.013  13.230  22.657  0.00  0.00    +0.000 S 
ATOM     18  C   UNL     1      -3.396  12.148  23.948  0.00  0.00    +0.000 C 
ATOM     19  O   UNL     1      -4.592  14.368  23.344  0.00  0.00    +0.000 OA
ATOM     20  O   UNL     1      -4.826  12.424  21.774  0.00  0.00    +0.000 OA
ENDBRANCH   5  17
BRANCH   1  21
ATOM     21  C   UNL     1       0.146  10.750  19.735  0.00  0.00    +0.000 C 
BRANCH  21  25
ATOM     22  C   UNL     1       2.662   7.259  18.576  0.00  0.00    +0.000 A 
ATOM     23  C   UNL     1       2.174   7.331  19.876  0.00  0.00    +0.000 A 
ATOM     24  C   UNL     1       1.372   8.449  20.314  0.00  0.00    +0.000 A 
ATOM     25  C   UNL     1       1.075   9.536  19.472  0.00  0.00    +0.000 A 
ATOM     26  C   UNL     1       1.616   9.453  18.176  0.00  0.00    +0.000 A 
ATOM     27  C   UNL     1       2.374   8.346  17.745  0.00  0.00    +0.000 A 
BRANCH  22  28
ATOM     28  O   UNL     1       3.211   6.225  17.893  0.00  0.00    +0.000 OA
BRANCH  28  30
ATOM     29  C   UNL     1       3.788   3.882  18.793  0.00  0.00    +0.000 C 
ATOM     30  C   UNL     1       3.036   4.808  17.854  0.00  0.00    +0.000 C 
ATOM     31  C   UNL     1       1.554   4.430  17.779  0.00  0.00    +0.000 C 
ENDBRANCH  28  30
ENDBRANCH  22  28
ENDBRANCH  21  25
ENDBRANCH   1  21
TORSDOF 5
ENDMDL
MODEL 8
REMARK VINA RESULT:      -6.8      0.967      1.052
REMARK  Name = 
REMARK  8 active torsions:
REMARK  status: ('A' for Active; 'I' for Inactive)
REMARK    1  A    between atoms: C_1  and  C_2
REMARK    2  A    between atoms: C_2  and  C_3
REMARK    3  A    between atoms: C_2  and  O_4
REMARK    4  A    between atoms: O_4  and  C_5
REMARK    5  A    between atoms: C_8  and  C_9
REMARK    6  A    between atoms: C_9  and  N_10
REMARK    7  A    between atoms: N_14  and  S_15
REMARK    8  A    between atoms: S_15  and  C_16
REMARK                            x       y       z     vdW  Elec       q    Type
REMARK                         _______ _______ _______ _____ _____    ______ ____
ROOT
ATOM      1  N   UNL     1       0.046  11.406  18.879  0.00  0.00    +0.000 NA
ATOM      2  C   UNL     1      -1.296  11.693  18.323  0.00  0.00    +0.000 C 
ATOM      3  C   UNL     1      -2.474  11.996  19.274  0.00  0.00    +0.000 C 
ATOM      4  C   UNL     1      -2.676  13.425  19.841  0.00  0.00    +0.000 C 
ATOM      5  N   UNL     1      -3.131  13.352  21.272  0.00  0.00    +0.000 NA
ATOM      6  C   UNL     1      -2.540  14.356  22.243  0.00  0.00    +0.000 C 
ATOM      7  C   UNL     1      -2.908  14.121  23.711  0.00  0.00    +0.000 C 
ATOM      8  C   UNL     1      -2.063  15.155  24.440  0.00  0.00    +0.000 C 
ATOM      9  C   UNL     1      -0.699  14.980  23.804  0.00  0.00    +0.000 C 
ATOM     10  C   UNL     1      -0.988  14.589  22.334  0.00  0.00    +0.000 C 
ATOM     11  C   UNL     1      -0.043  13.447  22.005  0.00  0.00    +0.000 C 
ATOM     12  O   UNL     1      -0.216  12.290  22.349  0.00  0.00    +0.000 OA
ATOM     13  N   UNL     1       1.111  13.874  21.331  0.00  0.00    +0.000 N 
ATOM     14  C   UNL     1       1.698  12.973  20.350  0.00  0.00    +0.000 C 
ATOM     15  C   UNL     1       0.690  12.709  19.201  0.00  0.00    +0.000 C 
ATOM     16  H   UNL     1       1.752  14.412  21.900  0.00  0.00    +0.000 HD
ENDROOT
BRANCH   5  17
ATOM     17  S   UNL     1      -4.790  12.871  21.433  0.00  0.00    +0.000 S 
ATOM     18  C   UNL     1      -5.698  14.411  21.570  0.00  0.00    +0.000 C 
ATOM     19  O   UNL     1      -5.222  12.270  20.186  0.00  0.00    +0.000 OA
ATOM     20  O   UNL     1      -4.960  12.159  22.681  0.00  0.00    +0.000 OA
ENDBRANCH   5  17
BRANCH   1  21
ATOM     21  C   UNL     1       0.059  10.371  19.941  0.00  0.00    +0.000 C 
BRANCH  21  25
ATOM     22  C   UNL     1       2.661   6.798  19.369  0.00  0.00    +0.000 A 
ATOM     23  C   UNL     1       2.019   6.971  20.590  0.00  0.00    +0.000 A 
ATOM     24  C   UNL     1       1.181   8.121  20.840  0.00  0.00    +0.000 A 
ATOM     25  C   UNL     1       1.001   9.140  19.887  0.00  0.00    +0.000 A 
ATOM     26  C   UNL     1       1.695   8.956  18.677  0.00  0.00    +0.000 A 
ATOM     27  C   UNL     1       2.488   7.818  18.428  0.00  0.00    +0.000 A 
BRANCH  22  28
ATOM     28  O   UNL     1       3.279   5.714  18.840  0.00  0.00    +0.000 OA
BRANCH  28  30
ATOM     29  C   UNL     1       1.439   4.308  17.713  0.00  0.00    +0.000 C 
ATOM     30  C   UNL     1       2.869   4.516  18.179  0.00  0.00    +0.000 C 
ATOM     31  C   UNL     1       3.866   4.107  17.092  0.00  0.00    +0.000 C 
ENDBRANCH  28  30
ENDBRANCH  22  28
ENDBRANCH  21  25
ENDBRANCH   1  21
TORSDOF 5
ENDMDL
MODEL 9
REMARK VINA RESULT:      -6.7      2.009      2.728
REMARK  Name = 
REMARK  8 active torsions:
REMARK  status: ('A' for Active; 'I' for Inactive)
REMARK    1  A    between atoms: C_1  and  C_2
REMARK    2  A    between atoms: C_2  and  C_3
REMARK    3  A    between atoms: C_2  and  O_4
REMARK    4  A    between atoms: O_4  and  C_5
REMARK    5  A    between atoms: C_8  and  C_9
REMARK    6  A    between atoms: C_9  and  N_10
REMARK    7  A    between atoms: N_14  and  S_15
REMARK    8  A    between atoms: S_15  and  C_16
REMARK                            x       y       z     vdW  Elec       q    Type
REMARK                         _______ _______ _______ _____ _____    ______ ____
ROOT
ATOM      1  N   UNL     1      -1.014  11.604  18.247  0.00  0.00    +0.000 NA
ATOM      2  C   UNL     1      -2.251  11.493  17.441  0.00  0.00    +0.000 C 
ATOM      3  C   UNL     1      -3.618  11.363  18.145  0.00  0.00    +0.000 C 
ATOM      4  C   UNL     1      -4.360  12.624  18.656  0.00  0.00    +0.000 C 
ATOM      5  N   UNL     1      -5.025  12.334  19.973  0.00  0.00    +0.000 NA
ATOM      6  C   UNL     1      -4.969  13.415  21.036  0.00  0.00    +0.000 C 
ATOM      7  C   UNL     1      -5.508  12.995  22.405  0.00  0.00    +0.000 C 
ATOM      8  C   UNL     1      -5.182  14.196  23.280  0.00  0.00    +0.000 C 
ATOM      9  C   UNL     1      -3.739  14.488  22.919  0.00  0.00    +0.000 C 
ATOM     10  C   UNL     1      -3.613  14.110  21.423  0.00  0.00    +0.000 C 
ATOM     11  C   UNL     1      -2.314  13.337  21.288  0.00  0.00    +0.000 C 
ATOM     12  O   UNL     1      -2.176  12.166  21.597  0.00  0.00    +0.000 OA
ATOM     13  N   UNL     1      -1.249  14.137  20.846  0.00  0.00    +0.000 N 
ATOM     14  C   UNL     1      -0.239  13.519  20.001  0.00  0.00    +0.000 C 
ATOM     15  C   UNL     1      -0.883  13.022  18.681  0.00  0.00    +0.000 C 
ATOM     16  H   UNL     1      -0.926  14.814  21.527  0.00  0.00    +0.000 HD
ENDROOT
BRANCH   5  17
ATOM     17  S   UNL     1      -6.448  11.355  19.813  0.00  0.00    +0.000 S 
ATOM     18  C   UNL     1      -7.688  12.463  19.141  0.00  0.00    +0.000 C 
ATOM     19  O   UNL     1      -6.214  10.359  18.786  0.00  0.00    +0.000 OA
ATOM     20  O   UNL     1      -6.899  10.952  21.127  0.00  0.00    +0.000 OA
ENDBRANCH   5  17
BRANCH   1  21
ATOM     21  C   UNL     1      -0.871  10.565  19.295  0.00  0.00    +0.000 C 
BRANCH  21  25
ATOM     22  C   UNL     1       2.462   7.621  19.012  0.00  0.00    +0.000 A 
ATOM     23  C   UNL     1       1.868   7.843  20.248  0.00  0.00    +0.000 A 
ATOM     24  C   UNL     1       0.799   8.801  20.405  0.00  0.00    +0.000 A 
ATOM     25  C   UNL     1       0.329   9.584  19.335  0.00  0.00    +0.000 A 
ATOM     26  C   UNL     1       0.977   9.365  18.105  0.00  0.00    +0.000 A 
ATOM     27  C   UNL     1       2.001   8.409  17.952  0.00  0.00    +0.000 A 
BRANCH  22  28
ATOM     28  O   UNL     1       3.287   6.631  18.591  0.00  0.00    +0.000 OA
BRANCH  28  30
ATOM     29  C   UNL     1       1.767   4.700  17.823  0.00  0.00    +0.000 C 
ATOM     30  C   UNL     1       3.132   5.287  18.134  0.00  0.00    +0.000 C 
ATOM     31  C   UNL     1       4.138   4.951  17.030  0.00  0.00    +0.000 C 
ENDBRANCH  28  30
ENDBRANCH  22  28
ENDBRANCH  21  25
ENDBRANCH   1  21
TORSDOF 5
ENDMDL
