MODEL 1
REMARK VINA RESULT:      -7.2      0.000      0.000
REMARK  Name = 
REMARK  4 active torsions:
REMARK  status: ('A' for Active; 'I' for Inactive)
REMARK    1  A    between atoms: N_2  and  C_4
REMARK    2  A    between atoms: C_7  and  N_8
REMARK    3  A    between atoms: N_8  and  N_9
REMARK    4  A    between atoms: C_10  and  C_12
REMARK                            x       y       z     vdW  Elec       q    Type
REMARK                         _______ _______ _______ _____ _____    ______ ____
ROOT
ATOM      1  N   UNL     1       5.024   6.053  17.524  0.00  0.00    +0.000 N 
ATOM      2  H   UNL     1       5.804   6.348  18.110  0.00  0.00    +0.000 HD
ENDROOT
BRANCH   1   6
ATOM      3  C   UNL     1       2.026   3.788  19.433  0.00  0.00    +0.000 A 
ATOM      4  C   UNL     1       2.202   3.698  18.048  0.00  0.00    +0.000 A 
ATOM      5  C   UNL     1       3.194   4.466  17.430  0.00  0.00    +0.000 A 
ATOM      6  C   UNL     1       4.002   5.342  18.173  0.00  0.00    +0.000 A 
ATOM      7  C   UNL     1       3.798   5.429  19.557  0.00  0.00    +0.000 A 
ATOM      8  C   UNL     1       2.819   4.654  20.193  0.00  0.00    +0.000 A 
BRANCH   3  10
ATOM      9  O   UNL     1       0.139   2.438  19.380  0.00  0.00    +0.000 OA
ATOM     10  N   UNL     1       1.011   2.957  20.092  0.00  0.00    +0.000 N 
ATOM     11  O   UNL     1       1.086   2.820  21.321  0.00  0.00    +0.000 OA
ENDBRANCH   3  10
ENDBRANCH   1   6
BRANCH   1  12
ATOM     12  N   UNL     1       5.258   5.835  16.198  0.00  0.00    +0.000 NA
ATOM     13  C   UNL     1       6.303   5.114  15.888  0.00  0.00    +0.000 C 
ATOM     14 CL   UNL     1       7.357   4.534  17.159  0.00  0.00    +0.000 Cl
BRANCH  13  15
ATOM     15  C   UNL     1       6.577   4.780  14.453  0.00  0.00    +0.000 A 
ATOM     16  C   UNL     1       5.815   3.796  13.806  0.00  0.00    +0.000 A 
ATOM     17  C   UNL     1       6.082   3.453  12.478  0.00  0.00    +0.000 A 
ATOM     18  C   UNL     1       7.111   4.088  11.785  0.00  0.00    +0.000 A 
ATOM     19  C   UNL     1       7.871   5.071  12.415  0.00  0.00    +0.000 A 
ATOM     20  C   UNL     1       7.607   5.416  13.743  0.00  0.00    +0.000 A 
ENDBRANCH  13  15
ENDBRANCH   1  12
TORSDOF 4
ENDMDL
MODEL 2
REMARK VINA RESULT:      -7.2      0.156      1.119
REMARK  Name = 
REMARK  4 active torsions:
REMARK  status: ('A' for Active; 'I' for Inactive)
REMARK    1  A    between atoms: N_2  and  C_4
REMARK    2  A    between atoms: C_7  and  N_8
REMARK    3  A    between atoms: N_8  and  N_9
REMARK    4  A    between atoms: C_10  and  C_12
REMARK                            x       y       z     vdW  Elec       q    Type
REMARK                         _______ _______ _______ _____ _____    ______ ____
ROOT
ATOM      1  N   UNL     1       4.865   6.155  17.470  0.00  0.00    +0.000 N 
ATOM      2  H   UNL     1       5.608   6.537  18.054  0.00  0.00    +0.000 HD
ENDROOT
BRANCH   1   6
ATOM      3  C   UNL     1       1.974   3.778  19.407  0.00  0.00    +0.000 A 
ATOM      4  C   UNL     1       1.983   3.879  18.012  0.00  0.00    +0.000 A 
ATOM      5  C   UNL     1       2.942   4.682  17.387  0.00  0.00    +0.000 A 
ATOM      6  C   UNL     1       3.883   5.405  18.138  0.00  0.00    +0.000 A 
ATOM      7  C   UNL     1       3.846   5.303  19.535  0.00  0.00    +0.000 A 
ATOM      8  C   UNL     1       2.902   4.490  20.174  0.00  0.00    +0.000 A 
BRANCH   3  10
ATOM      9  O   UNL     1       0.206   2.276  19.346  0.00  0.00    +0.000 OA
ATOM     10  N   UNL     1       0.993   2.907  20.067  0.00  0.00    +0.000 N 
ATOM     11  O   UNL     1       1.009   2.852  21.304  0.00  0.00    +0.000 OA
ENDBRANCH   3  10
ENDBRANCH   1   6
BRANCH   1  12
ATOM     12  N   UNL     1       5.144   5.887  16.163  0.00  0.00    +0.000 NA
ATOM     13  C   UNL     1       6.188   5.140  15.917  0.00  0.00    +0.000 C 
ATOM     14 CL   UNL     1       7.186   4.592  17.246  0.00  0.00    +0.000 Cl
BRANCH  13  15
ATOM     15  C   UNL     1       6.510   4.751  14.506  0.00  0.00    +0.000 A 
ATOM     16  C   UNL     1       7.523   5.426  13.809  0.00  0.00    +0.000 A 
ATOM     17  C   UNL     1       7.810   5.095  12.481  0.00  0.00    +0.000 A 
ATOM     18  C   UNL     1       7.089   4.089  11.840  0.00  0.00    +0.000 A 
ATOM     19  C   UNL     1       6.085   3.408  12.524  0.00  0.00    +0.000 A 
ATOM     20  C   UNL     1       5.795   3.736  13.851  0.00  0.00    +0.000 A 
ENDBRANCH  13  15
ENDBRANCH   1  12
TORSDOF 4
ENDMDL
MODEL 3
REMARK VINA RESULT:      -7.1      1.370      1.593
REMARK  Name = 
REMARK  4 active torsions:
REMARK  status: ('A' for Active; 'I' for Inactive)
REMARK    1  A    between atoms: N_2  and  C_4
REMARK    2  A    between atoms: C_7  and  N_8
REMARK    3  A    between atoms: N_8  and  N_9
REMARK    4  A    between atoms: C_10  and  C_12
REMARK                            x       y       z     vdW  Elec       q    Type
REMARK                         _______ _______ _______ _____ _____    ______ ____
ROOT
ATOM      1  N   UNL     1       6.059   5.127  18.188  0.00  0.00    +0.000 N 
ATOM      2  H   UNL     1       6.822   5.526  18.733  0.00  0.00    +0.000 HD
ENDROOT
BRANCH   1   6
ATOM      3  C   UNL     1       2.743   3.608  20.299  0.00  0.00    +0.000 A 
ATOM      4  C   UNL     1       2.913   4.989  20.155  0.00  0.00    +0.000 A 
ATOM      5  C   UNL     1       4.026   5.475  19.462  0.00  0.00    +0.000 A 
ATOM      6  C   UNL     1       4.986   4.601  18.926  0.00  0.00    +0.000 A 
ATOM      7  C   UNL     1       4.804   3.222  19.096  0.00  0.00    +0.000 A 
ATOM      8  C   UNL     1       3.686   2.719  19.774  0.00  0.00    +0.000 A 
BRANCH   3  10
ATOM      9  O   UNL     1       0.474   3.129  20.392  0.00  0.00    +0.000 OA
ATOM     10  N   UNL     1       1.557   3.091  20.994  0.00  0.00    +0.000 N 
ATOM     11  O   UNL     1       1.707   2.645  22.140  0.00  0.00    +0.000 OA
ENDBRANCH   3  10
ENDBRANCH   1   6
BRANCH   1  12
ATOM     12  N   UNL     1       6.342   4.616  16.956  0.00  0.00    +0.000 NA
ATOM     13  C   UNL     1       5.944   5.305  15.919  0.00  0.00    +0.000 C 
ATOM     14 CL   UNL     1       5.034   6.779  16.163  0.00  0.00    +0.000 Cl
BRANCH  13  15
ATOM     15  C   UNL     1       6.284   4.834  14.537  0.00  0.00    +0.000 A 
ATOM     16  C   UNL     1       5.472   3.882  13.904  0.00  0.00    +0.000 A 
ATOM     17  C   UNL     1       5.797   3.410  12.629  0.00  0.00    +0.000 A 
ATOM     18  C   UNL     1       6.934   3.884  11.976  0.00  0.00    +0.000 A 
ATOM     19  C   UNL     1       7.745   4.833  12.593  0.00  0.00    +0.000 A 
ATOM     20  C   UNL     1       7.424   5.307  13.868  0.00  0.00    +0.000 A 
ENDBRANCH  13  15
ENDBRANCH   1  12
TORSDOF 4
ENDMDL
MODEL 4
REMARK VINA RESULT:      -7.1      0.971      1.381
REMARK  Name = 
REMARK  4 active torsions:
REMARK  status: ('A' for Active; 'I' for Inactive)
REMARK    1  A    between atoms: N_2  and  C_4
REMARK    2  A    between atoms: C_7  and  N_8
REMARK    3  A    between atoms: N_8  and  N_9
REMARK    4  A    between atoms: C_10  and  C_12
REMARK                            x       y       z     vdW  Elec       q    Type
REMARK                         _______ _______ _______ _____ _____    ______ ____
ROOT
ATOM      1  N   UNL     1       5.484   6.094  17.890  0.00  0.00    +0.000 N 
ATOM      2  H   UNL     1       6.326   6.448  18.343  0.00  0.00    +0.000 HD
ENDROOT
BRANCH   1   6
ATOM      3  C   UNL     1       2.746   3.916  20.240  0.00  0.00    +0.000 A 
ATOM      4  C   UNL     1       2.542   5.280  20.004  0.00  0.00    +0.000 A 
ATOM      5  C   UNL     1       3.468   5.989  19.231  0.00  0.00    +0.000 A 
ATOM      6  C   UNL     1       4.609   5.360  18.707  0.00  0.00    +0.000 A 
ATOM      7  C   UNL     1       4.802   3.998  18.970  0.00  0.00    +0.000 A 
ATOM      8  C   UNL     1       3.876   3.270  19.728  0.00  0.00    +0.000 A 
BRANCH   3  10
ATOM      9  O   UNL     1       2.011   2.938  22.212  0.00  0.00    +0.000 OA
ATOM     10  N   UNL     1       1.758   3.158  21.018  0.00  0.00    +0.000 N 
ATOM     11  O   UNL     1       0.730   2.784  20.439  0.00  0.00    +0.000 OA
ENDBRANCH   3  10
ENDBRANCH   1   6
BRANCH   1  12
ATOM     12  N   UNL     1       5.529   5.838  16.552  0.00  0.00    +0.000 NA
ATOM     13  C   UNL     1       6.523   5.108  16.118  0.00  0.00    +0.000 C 
ATOM     14 CL   UNL     1       7.748   4.566  17.243  0.00  0.00    +0.000 Cl
BRANCH  13  15
ATOM     15  C   UNL     1       6.593   4.733  14.669  0.00  0.00    +0.000 A 
ATOM     16  C   UNL     1       5.660   3.832  14.134  0.00  0.00    +0.000 A 
ATOM     17  C   UNL     1       5.735   3.449  12.792  0.00  0.00    +0.000 A 
ATOM     18  C   UNL     1       6.740   3.961  11.973  0.00  0.00    +0.000 A 
ATOM     19  C   UNL     1       7.669   4.860  12.492  0.00  0.00    +0.000 A 
ATOM     20  C   UNL     1       7.598   5.245  13.834  0.00  0.00    +0.000 A 
ENDBRANCH  13  15
ENDBRANCH   1  12
TORSDOF 4
ENDMDL
MODEL 5
REMARK VINA RESULT:      -7.1      1.318      1.922
REMARK  Name = 
REMARK  4 active torsions:
REMARK  status: ('A' for Active; 'I' for Inactive)
REMARK    1  A    between atoms: N_2  and  C_4
REMARK    2  A    between atoms: C_7  and  N_8
REMARK    3  A    between atoms: N_8  and  N_9
REMARK    4  A    between atoms: C_10  and  C_12
REMARK                            x       y       z     vdW  Elec       q    Type
REMARK                         _______ _______ _______ _____ _____    ______ ____
ROOT
ATOM      1  N   UNL     1       6.082   5.108  18.148  0.00  0.00    +0.000 N 
ATOM      2  H   UNL     1       6.828   5.508  18.716  0.00  0.00    +0.000 HD
ENDROOT
BRANCH   1   6
ATOM      3  C   UNL     1       2.711   3.590  20.169  0.00  0.00    +0.000 A 
ATOM      4  C   UNL     1       2.969   4.964  20.166  0.00  0.00    +0.000 A 
ATOM      5  C   UNL     1       4.100   5.449  19.500  0.00  0.00    +0.000 A 
ATOM      6  C   UNL     1       4.990   4.577  18.853  0.00  0.00    +0.000 A 
ATOM      7  C   UNL     1       4.721   3.202  18.883  0.00  0.00    +0.000 A 
ATOM      8  C   UNL     1       3.584   2.703  19.531  0.00  0.00    +0.000 A 
BRANCH   3  10
ATOM      9  O   UNL     1       0.487   2.926  20.145  0.00  0.00    +0.000 OA
ATOM     10  N   UNL     1       1.506   3.079  20.835  0.00  0.00    +0.000 N 
ATOM     11  O   UNL     1       1.577   2.828  22.045  0.00  0.00    +0.000 OA
ENDBRANCH   3  10
ENDBRANCH   1   6
BRANCH   1  12
ATOM     12  N   UNL     1       6.404   4.602  16.923  0.00  0.00    +0.000 NA
ATOM     13  C   UNL     1       5.987   5.266  15.876  0.00  0.00    +0.000 C 
ATOM     14 CL   UNL     1       5.009   6.699  16.099  0.00  0.00    +0.000 Cl
BRANCH  13  15
ATOM     15  C   UNL     1       6.365   4.800  14.502  0.00  0.00    +0.000 A 
ATOM     16  C   UNL     1       7.444   5.398  13.834  0.00  0.00    +0.000 A 
ATOM     17  C   UNL     1       7.785   4.995  12.540  0.00  0.00    +0.000 A 
ATOM     18  C   UNL     1       7.053   3.994  11.903  0.00  0.00    +0.000 A 
ATOM     19  C   UNL     1       5.983   3.390  12.559  0.00  0.00    +0.000 A 
ATOM     20  C   UNL     1       5.639   3.790  13.853  0.00  0.00    +0.000 A 
ENDBRANCH  13  15
ENDBRANCH   1  12
TORSDOF 4
ENDMDL
MODEL 6
REMARK VINA RESULT:      -7.1      1.367      1.416
REMARK  Name = 
REMARK  4 active torsions:
REMARK  status: ('A' for Active; 'I' for Inactive)
REMARK    1  A    between atoms: N_2  and  C_4
REMARK    2  A    between atoms: C_7  and  N_8
REMARK    3  A    between atoms: N_8  and  N_9
REMARK    4  A    between atoms: C_10  and  C_12
REMARK                            x       y       z     vdW  Elec       q    Type
REMARK                         _______ _______ _______ _____ _____    ______ ____
ROOT
ATOM      1  N   UNL     1       6.090   5.163  18.130  0.00  0.00    +0.000 N 
ATOM      2  H   UNL     1       6.852   5.513  18.710  0.00  0.00    +0.000 HD
ENDROOT
BRANCH   1   6
ATOM      3  C   UNL     1       2.801   3.667  20.299  0.00  0.00    +0.000 A 
ATOM      4  C   UNL     1       3.716   2.787  19.711  0.00  0.00    +0.000 A 
ATOM      5  C   UNL     1       4.795   3.302  18.985  0.00  0.00    +0.000 A 
ATOM      6  C   UNL     1       4.963   4.686  18.818  0.00  0.00    +0.000 A 
ATOM      7  C   UNL     1       4.026   5.549  19.401  0.00  0.00    +0.000 A 
ATOM      8  C   UNL     1       2.950   5.050  20.146  0.00  0.00    +0.000 A 
BRANCH   3  10
ATOM      9  O   UNL     1       0.598   2.976  20.525  0.00  0.00    +0.000 OA
ATOM     10  N   UNL     1       1.688   3.134  21.094  0.00  0.00    +0.000 N 
ATOM     11  O   UNL     1       1.902   2.872  22.285  0.00  0.00    +0.000 OA
ENDBRANCH   3  10
ENDBRANCH   1   6
BRANCH   1  12
ATOM     12  N   UNL     1       6.395   4.654  16.902  0.00  0.00    +0.000 NA
ATOM     13  C   UNL     1       5.971   5.320  15.860  0.00  0.00    +0.000 C 
ATOM     14 CL   UNL     1       5.004   6.759  16.092  0.00  0.00    +0.000 Cl
BRANCH  13  15
ATOM     15  C   UNL     1       6.330   4.852  14.482  0.00  0.00    +0.000 A 
ATOM     16  C   UNL     1       5.553   3.867  13.853  0.00  0.00    +0.000 A 
ATOM     17  C   UNL     1       5.897   3.399  12.582  0.00  0.00    +0.000 A 
ATOM     18  C   UNL     1       7.018   3.909  11.928  0.00  0.00    +0.000 A 
ATOM     19  C   UNL     1       7.793   4.891  12.540  0.00  0.00    +0.000 A 
ATOM     20  C   UNL     1       7.453   5.361  13.811  0.00  0.00    +0.000 A 
ENDBRANCH  13  15
ENDBRANCH   1  12
TORSDOF 4
ENDMDL
MODEL 7
REMARK VINA RESULT:      -7.0      1.388      1.959
REMARK  Name = 
REMARK  4 active torsions:
REMARK  status: ('A' for Active; 'I' for Inactive)
REMARK    1  A    between atoms: N_2  and  C_4
REMARK    2  A    between atoms: C_7  and  N_8
REMARK    3  A    between atoms: N_8  and  N_9
REMARK    4  A    between atoms: C_10  and  C_12
REMARK                            x       y       z     vdW  Elec       q    Type
REMARK                         _______ _______ _______ _____ _____    ______ ____
ROOT
ATOM      1  N   UNL     1       6.096   5.072  18.209  0.00  0.00    +0.000 N 
ATOM      2  H   UNL     1       6.850   5.433  18.793  0.00  0.00    +0.000 HD
ENDROOT
BRANCH   1   6
ATOM      3  C   UNL     1       2.829   3.511  20.365  0.00  0.00    +0.000 A 
ATOM      4  C   UNL     1       3.811   2.654  19.857  0.00  0.00    +0.000 A 
ATOM      5  C   UNL     1       4.882   3.189  19.133  0.00  0.00    +0.000 A 
ATOM      6  C   UNL     1       4.976   4.569  18.891  0.00  0.00    +0.000 A 
ATOM      7  C   UNL     1       3.973   5.408  19.395  0.00  0.00    +0.000 A 
ATOM      8  C   UNL     1       2.903   4.889  20.136  0.00  0.00    +0.000 A 
BRANCH   3  10
ATOM      9  O   UNL     1       2.003   2.401  22.228  0.00  0.00    +0.000 OA
ATOM     10  N   UNL     1       1.723   2.959  21.158  0.00  0.00    +0.000 N 
ATOM     11  O   UNL     1       0.574   3.085  20.712  0.00  0.00    +0.000 OA
ENDBRANCH   3  10
ENDBRANCH   1   6
BRANCH   1  12
ATOM     12  N   UNL     1       6.413   4.578  16.978  0.00  0.00    +0.000 NA
ATOM     13  C   UNL     1       5.992   5.251  15.939  0.00  0.00    +0.000 C 
ATOM     14 CL   UNL     1       5.012   6.681  16.180  0.00  0.00    +0.000 Cl
BRANCH  13  15
ATOM     15  C   UNL     1       6.364   4.800  14.560  0.00  0.00    +0.000 A 
ATOM     16  C   UNL     1       7.468   5.373  13.911  0.00  0.00    +0.000 A 
ATOM     17  C   UNL     1       7.805   4.984  12.611  0.00  0.00    +0.000 A 
ATOM     18  C   UNL     1       7.045   4.020  11.950  0.00  0.00    +0.000 A 
ATOM     19  C   UNL     1       5.951   3.440  12.587  0.00  0.00    +0.000 A 
ATOM     20  C   UNL     1       5.610   3.827  13.886  0.00  0.00    +0.000 A 
ENDBRANCH  13  15
ENDBRANCH   1  12
TORSDOF 4
ENDMDL
MODEL 8
REMARK VINA RESULT:      -7.0      1.074      1.311
REMARK  Name = 
REMARK  4 active torsions:
REMARK  status: ('A' for Active; 'I' for Inactive)
REMARK    1  A    between atoms: N_2  and  C_4
REMARK    2  A    between atoms: C_7  and  N_8
REMARK    3  A    between atoms: N_8  and  N_9
REMARK    4  A    between atoms: C_10  and  C_12
REMARK                            x       y       z     vdW  Elec       q    Type
REMARK                         _______ _______ _______ _____ _____    ______ ____
ROOT
ATOM      1  N   UNL     1       4.627   6.246  17.524  0.00  0.00    +0.000 N 
ATOM      2  H   UNL     1       5.281   6.923  17.916  0.00  0.00    +0.000 HD
ENDROOT
BRANCH   1   6
ATOM      3  C   UNL     1       2.807   3.731  20.375  0.00  0.00    +0.000 A 
ATOM      4  C   UNL     1       3.805   3.233  19.531  0.00  0.00    +0.000 A 
ATOM      5  C   UNL     1       4.389   4.079  18.583  0.00  0.00    +0.000 A 
ATOM      6  C   UNL     1       3.976   5.414  18.450  0.00  0.00    +0.000 A 
ATOM      7  C   UNL     1       2.964   5.889  19.294  0.00  0.00    +0.000 A 
ATOM      8  C   UNL     1       2.381   5.059  20.260  0.00  0.00    +0.000 A 
BRANCH   3  10
ATOM      9  O   UNL     1       2.990   2.209  22.117  0.00  0.00    +0.000 OA
ATOM     10  N   UNL     1       2.217   2.858  21.397  0.00  0.00    +0.000 N 
ATOM     11  O   UNL     1       0.982   2.823  21.483  0.00  0.00    +0.000 OA
ENDBRANCH   3  10
ENDBRANCH   1   6
BRANCH   1  12
ATOM     12  N   UNL     1       4.840   5.801  16.253  0.00  0.00    +0.000 NA
ATOM     13  C   UNL     1       6.076   5.541  15.913  0.00  0.00    +0.000 C 
ATOM     14 CL   UNL     1       7.364   5.833  17.059  0.00  0.00    +0.000 Cl
BRANCH  13  15
ATOM     15  C   UNL     1       6.371   4.984  14.553  0.00  0.00    +0.000 A 
ATOM     16  C   UNL     1       5.520   4.019  13.993  0.00  0.00    +0.000 A 
ATOM     17  C   UNL     1       5.803   3.468  12.740  0.00  0.00    +0.000 A 
ATOM     18  C   UNL     1       6.934   3.875  12.036  0.00  0.00    +0.000 A 
ATOM     19  C   UNL     1       7.783   4.837  12.579  0.00  0.00    +0.000 A 
ATOM     20  C   UNL     1       7.504   5.390  13.832  0.00  0.00    +0.000 A 
ENDBRANCH  13  15
ENDBRANCH   1  12
TORSDOF 4
ENDMDL
MODEL 9
REMARK VINA RESULT:      -6.9      5.078      8.323
REMARK  Name = 
REMARK  4 active torsions:
REMARK  status: ('A' for Active; 'I' for Inactive)
REMARK    1  A    between atoms: N_2  and  C_4
REMARK    2  A    between atoms: C_7  and  N_8
REMARK    3  A    between atoms: N_8  and  N_9
REMARK    4  A    between atoms: C_10  and  C_12
REMARK                            x       y       z     vdW  Elec       q    Type
REMARK                         _______ _______ _______ _____ _____    ______ ____
ROOT
ATOM      1  N   UNL     1       2.410   7.228  18.139  0.00  0.00    +0.000 N 
ATOM      2  H   UNL     1       1.766   6.952  17.398  0.00  0.00    +0.000 HD
ENDROOT
BRANCH   1   6
ATOM      3  C   UNL     1       6.228   5.445  18.138  0.00  0.00    +0.000 A 
ATOM      4  C   UNL     1       5.834   6.265  17.075  0.00  0.00    +0.000 A 
ATOM      5  C   UNL     1       4.558   6.838  17.087  0.00  0.00    +0.000 A 
ATOM      6  C   UNL     1       3.660   6.588  18.136  0.00  0.00    +0.000 A 
ATOM      7  C   UNL     1       4.069   5.751  19.183  0.00  0.00    +0.000 A 
ATOM      8  C   UNL     1       5.350   5.183  19.194  0.00  0.00    +0.000 A 
BRANCH   3  10
ATOM      9  O   UNL     1       8.007   4.382  17.093  0.00  0.00    +0.000 OA
ATOM     10  N   UNL     1       7.580   4.871  18.149  0.00  0.00    +0.000 N 
ATOM     11  O   UNL     1       8.215   4.910  19.212  0.00  0.00    +0.000 OA
ENDBRANCH   3  10
ENDBRANCH   1   6
BRANCH   1  12
ATOM     12  N   UNL     1       1.887   7.679  19.314  0.00  0.00    +0.000 NA
ATOM     13  C   UNL     1       1.427   8.903  19.331  0.00  0.00    +0.000 C 
ATOM     14 CL   UNL     1       1.564   9.894  17.896  0.00  0.00    +0.000 Cl
BRANCH  13  15
ATOM     15  C   UNL     1       0.777   9.437  20.572  0.00  0.00    +0.000 A 
ATOM     16  C   UNL     1       1.064   8.855  21.816  0.00  0.00    +0.000 A 
ATOM     17  C   UNL     1       0.439   9.323  22.976  0.00  0.00    +0.000 A 
ATOM     18  C   UNL     1      -0.475  10.372  22.904  0.00  0.00    +0.000 A 
ATOM     19  C   UNL     1      -0.763  10.961  21.675  0.00  0.00    +0.000 A 
ATOM     20  C   UNL     1      -0.141  10.496  20.513  0.00  0.00    +0.000 A 
ENDBRANCH  13  15
ENDBRANCH   1  12
TORSDOF 4
ENDMDL
