MODEL 1
REMARK VINA RESULT:      -8.3      0.000      0.000
REMARK  Name = 
REMARK  4 active torsions:
REMARK  status: ('A' for Active; 'I' for Inactive)
REMARK    1  A    between atoms: C_2  and  C_3
REMARK    2  A    between atoms: C_3  and  C_4
REMARK    3  A    between atoms: N_13  and  C_14
REMARK    4  A    between atoms: C_14  and  C_15
REMARK                            x       y       z     vdW  Elec       q    Type
REMARK                         _______ _______ _______ _____ _____    ______ ____
ROOT
ATOM      1  C   UNL     1       7.178   4.781  13.252  0.00  0.00    +0.000 C 
ATOM      2  O   UNL     1       7.949   5.711  13.005  0.00  0.00    +0.000 OA
ATOM      3  N   UNL     1       6.391   4.763  14.385  0.00  0.00    +0.000 N 
ATOM      4  C   UNL     1       5.464   3.722  14.757  0.00  0.00    +0.000 C 
ATOM      5  C   UNL     1       5.054   4.015  16.188  0.00  0.00    +0.000 C 
ATOM      6  C   UNL     1       5.801   5.308  16.611  0.00  0.00    +0.000 C 
ATOM      7  C   UNL     1       7.010   5.020  17.519  0.00  0.00    +0.000 C 
ATOM      8  C   UNL     1       6.593   4.532  18.900  0.00  0.00    +0.000 C 
ATOM      9  C   UNL     1       5.580   5.485  19.509  0.00  0.00    +0.000 C 
ATOM     10  N   UNL     1       4.468   5.765  18.612  0.00  0.00    +0.000 N 
ATOM     11  C   UNL     1       4.752   6.174  17.308  0.00  0.00    +0.000 C 
ATOM     12  O   UNL     1       4.069   6.995  16.702  0.00  0.00    +0.000 OA
ATOM     13  C   UNL     1       6.285   5.902  15.280  0.00  0.00    +0.000 C 
ENDROOT
BRANCH   1  14
ATOM     14  C   UNL     1       7.081   3.574  12.315  0.00  0.00    +0.000 C 
BRANCH  14  16
ATOM     15  C   UNL     1       5.148   2.252  11.384  0.00  0.00    +0.000 C 
ATOM     16  C   UNL     1       5.689   3.415  11.772  0.00  0.00    +0.000 C 
ENDBRANCH  14  16
ENDBRANCH   1  14
BRANCH  10  17
ATOM     17  C   UNL     1       3.198   6.152  19.218  0.00  0.00    +0.000 C 
BRANCH  17  18
ATOM     18  C   UNL     1       2.428   4.953  19.722  0.00  0.00    +0.000 A 
ATOM     19  C   UNL     1       2.455   4.593  21.081  0.00  0.00    +0.000 A 
ATOM     20  C   UNL     1       1.798   3.442  21.533  0.00  0.00    +0.000 A 
ATOM     21  C   UNL     1       1.089   2.644  20.634  0.00  0.00    +0.000 A 
ATOM     22  C   UNL     1       1.030   3.014  19.299  0.00  0.00    +0.000 A 
ATOM     23  F   UNL     1       0.339   2.252  18.435  0.00  0.00    +0.000 F 
ATOM     24  C   UNL     1       1.688   4.156  18.843  0.00  0.00    +0.000 A 
ATOM     25  F   UNL     1       1.615   4.487  17.546  0.00  0.00    +0.000 F 
ENDBRANCH  17  18
ENDBRANCH  10  17
TORSDOF 4
ENDMDL
MODEL 2
REMARK VINA RESULT:      -8.2      1.171      1.527
REMARK  Name = 
REMARK  4 active torsions:
REMARK  status: ('A' for Active; 'I' for Inactive)
REMARK    1  A    between atoms: C_2  and  C_3
REMARK    2  A    between atoms: C_3  and  C_4
REMARK    3  A    between atoms: N_13  and  C_14
REMARK    4  A    between atoms: C_14  and  C_15
REMARK                            x       y       z     vdW  Elec       q    Type
REMARK                         _______ _______ _______ _____ _____    ______ ____
ROOT
ATOM      1  C   UNL     1       7.363   4.853  13.174  0.00  0.00    +0.000 C 
ATOM      2  O   UNL     1       8.082   5.821  12.920  0.00  0.00    +0.000 OA
ATOM      3  N   UNL     1       6.600   4.787  14.322  0.00  0.00    +0.000 N 
ATOM      4  C   UNL     1       5.734   3.699  14.704  0.00  0.00    +0.000 C 
ATOM      5  C   UNL     1       5.339   3.960  16.145  0.00  0.00    +0.000 C 
ATOM      6  C   UNL     1       6.031   5.285  16.564  0.00  0.00    +0.000 C 
ATOM      7  C   UNL     1       7.271   5.050  17.445  0.00  0.00    +0.000 C 
ATOM      8  C   UNL     1       6.906   4.531  18.830  0.00  0.00    +0.000 C 
ATOM      9  C   UNL     1       5.861   5.428  19.468  0.00  0.00    +0.000 C 
ATOM     10  N   UNL     1       4.718   5.660  18.596  0.00  0.00    +0.000 N 
ATOM     11  C   UNL     1       4.955   6.093  17.290  0.00  0.00    +0.000 C 
ATOM     12  O   UNL     1       4.220   6.885  16.705  0.00  0.00    +0.000 OA
ATOM     13  C   UNL     1       6.457   5.913  15.229  0.00  0.00    +0.000 C 
ENDROOT
BRANCH   1  14
ATOM     14  C   UNL     1       7.306   3.650  12.229  0.00  0.00    +0.000 C 
BRANCH  14  16
ATOM     15  C   UNL     1       5.408   2.139  11.543  0.00  0.00    +0.000 C 
ATOM     16  C   UNL     1       5.896   3.362  11.796  0.00  0.00    +0.000 C 
ENDBRANCH  14  16
ENDBRANCH   1  14
BRANCH  10  17
ATOM     17  C   UNL     1       3.443   5.979  19.231  0.00  0.00    +0.000 C 
BRANCH  17  18
ATOM     18  C   UNL     1       2.537   4.772  19.309  0.00  0.00    +0.000 A 
ATOM     19  C   UNL     1       2.057   4.148  18.143  0.00  0.00    +0.000 A 
ATOM     20  C   UNL     1       1.163   3.074  18.219  0.00  0.00    +0.000 A 
ATOM     21  C   UNL     1       0.749   2.596  19.464  0.00  0.00    +0.000 A 
ATOM     22  C   UNL     1       1.247   3.184  20.617  0.00  0.00    +0.000 A 
ATOM     23  F   UNL     1       0.857   2.718  21.814  0.00  0.00    +0.000 F 
ATOM     24  C   UNL     1       2.133   4.259  20.545  0.00  0.00    +0.000 A 
ATOM     25  F   UNL     1       2.595   4.809  21.678  0.00  0.00    +0.000 F 
ENDBRANCH  17  18
ENDBRANCH  10  17
TORSDOF 4
ENDMDL
MODEL 3
REMARK VINA RESULT:      -7.3      1.425      1.557
REMARK  Name = 
REMARK  4 active torsions:
REMARK  status: ('A' for Active; 'I' for Inactive)
REMARK    1  A    between atoms: C_2  and  C_3
REMARK    2  A    between atoms: C_3  and  C_4
REMARK    3  A    between atoms: N_13  and  C_14
REMARK    4  A    between atoms: C_14  and  C_15
REMARK                            x       y       z     vdW  Elec       q    Type
REMARK                         _______ _______ _______ _____ _____    ______ ____
ROOT
ATOM      1  C   UNL     1       7.017   4.769  12.917  0.00  0.00    +0.000 C 
ATOM      2  O   UNL     1       7.440   5.845  12.491  0.00  0.00    +0.000 OA
ATOM      3  N   UNL     1       6.503   4.635  14.191  0.00  0.00    +0.000 N 
ATOM      4  C   UNL     1       5.989   3.421  14.774  0.00  0.00    +0.000 C 
ATOM      5  C   UNL     1       5.804   3.710  16.252  0.00  0.00    +0.000 C 
ATOM      6  C   UNL     1       6.238   5.183  16.477  0.00  0.00    +0.000 C 
ATOM      7  C   UNL     1       7.633   5.296  17.116  0.00  0.00    +0.000 C 
ATOM      8  C   UNL     1       7.646   4.827  18.566  0.00  0.00    +0.000 C 
ATOM      9  C   UNL     1       6.552   5.527  19.352  0.00  0.00    +0.000 C 
ATOM     10  N   UNL     1       5.251   5.432  18.704  0.00  0.00    +0.000 N 
ATOM     11  C   UNL     1       5.150   5.796  17.360  0.00  0.00    +0.000 C 
ATOM     12  O   UNL     1       4.164   6.359  16.892  0.00  0.00    +0.000 OA
ATOM     13  C   UNL     1       6.269   5.775  15.060  0.00  0.00    +0.000 C 
ENDROOT
BRANCH   1  14
ATOM     14  C   UNL     1       7.071   3.508  12.051  0.00  0.00    +0.000 C 
BRANCH  14  16
ATOM     15  C   UNL     1       4.636   3.466  11.403  0.00  0.00    +0.000 C 
ATOM     16  C   UNL     1       5.715   2.871  11.928  0.00  0.00    +0.000 C 
ENDBRANCH  14  16
ENDBRANCH   1  14
BRANCH  10  17
ATOM     17  C   UNL     1       4.069   5.520  19.555  0.00  0.00    +0.000 C 
BRANCH  17  18
ATOM     18  C   UNL     1       3.116   4.372  19.311  0.00  0.00    +0.000 A 
ATOM     19  C   UNL     1       1.728   4.587  19.230  0.00  0.00    +0.000 A 
ATOM     20  C   UNL     1       0.843   3.513  19.074  0.00  0.00    +0.000 A 
ATOM     21  C   UNL     1       1.335   2.210  18.978  0.00  0.00    +0.000 A 
ATOM     22  C   UNL     1       2.704   1.997  19.021  0.00  0.00    +0.000 A 
ATOM     23  F   UNL     1       3.178   0.745  18.918  0.00  0.00    +0.000 F 
ATOM     24  C   UNL     1       3.589   3.063  19.183  0.00  0.00    +0.000 A 
ATOM     25  F   UNL     1       4.908   2.825  19.224  0.00  0.00    +0.000 F 
ENDBRANCH  17  18
ENDBRANCH  10  17
TORSDOF 4
ENDMDL
MODEL 4
REMARK VINA RESULT:      -7.0      3.066      4.397
REMARK  Name = 
REMARK  4 active torsions:
REMARK  status: ('A' for Active; 'I' for Inactive)
REMARK    1  A    between atoms: C_2  and  C_3
REMARK    2  A    between atoms: C_3  and  C_4
REMARK    3  A    between atoms: N_13  and  C_14
REMARK    4  A    between atoms: C_14  and  C_15
REMARK                            x       y       z     vdW  Elec       q    Type
REMARK                         _______ _______ _______ _____ _____    ______ ____
ROOT
ATOM      1  C   UNL     1       7.055   4.697  15.538  0.00  0.00    +0.000 C 
ATOM      2  O   UNL     1       7.736   3.741  15.915  0.00  0.00    +0.000 OA
ATOM      3  N   UNL     1       5.976   5.160  16.264  0.00  0.00    +0.000 N 
ATOM      4  C   UNL     1       5.123   6.265  15.904  0.00  0.00    +0.000 C 
ATOM      5  C   UNL     1       3.939   6.210  16.851  0.00  0.00    +0.000 C 
ATOM      6  C   UNL     1       4.176   4.999  17.792  0.00  0.00    +0.000 C 
ATOM      7  C   UNL     1       3.320   3.778  17.410  0.00  0.00    +0.000 C 
ATOM      8  C   UNL     1       1.839   4.000  17.688  0.00  0.00    +0.000 C 
ATOM      9  C   UNL     1       1.638   4.467  19.118  0.00  0.00    +0.000 C 
ATOM     10  N   UNL     1       2.488   5.600  19.460  0.00  0.00    +0.000 N 
ATOM     11  C   UNL     1       3.856   5.508  19.198  0.00  0.00    +0.000 C 
ATOM     12  O   UNL     1       4.711   6.000  19.929  0.00  0.00    +0.000 OA
ATOM     13  C   UNL     1       5.663   4.669  17.595  0.00  0.00    +0.000 C 
ENDROOT
BRANCH   1  14
ATOM     14  C   UNL     1       7.361   5.405  14.216  0.00  0.00    +0.000 C 
BRANCH  14  16
ATOM     15  C   UNL     1       6.050   3.690  12.915  0.00  0.00    +0.000 C 
ATOM     16  C   UNL     1       7.109   4.501  13.042  0.00  0.00    +0.000 C 
ENDBRANCH  14  16
ENDBRANCH   1  14
BRANCH  10  17
ATOM     17  C   UNL     1       2.025   6.491  20.518  0.00  0.00    +0.000 C 
BRANCH  17  18
ATOM     18  C   UNL     1       1.659   7.857  19.982  0.00  0.00    +0.000 A 
ATOM     19  C   UNL     1       1.938   8.212  18.650  0.00  0.00    +0.000 A 
ATOM     20  C   UNL     1       1.661   9.500  18.177  0.00  0.00    +0.000 A 
ATOM     21  C   UNL     1       1.084  10.447  19.026  0.00  0.00    +0.000 A 
ATOM     22  C   UNL     1       0.775  10.091  20.329  0.00  0.00    +0.000 A 
ATOM     23  F   UNL     1       0.211  10.999  21.142  0.00  0.00    +0.000 F 
ATOM     24  C   UNL     1       1.055   8.811  20.807  0.00  0.00    +0.000 A 
ATOM     25  F   UNL     1       0.746   8.497  22.073  0.00  0.00    +0.000 F 
ENDBRANCH  17  18
ENDBRANCH  10  17
TORSDOF 4
ENDMDL
MODEL 5
REMARK VINA RESULT:      -6.9      1.958      2.470
REMARK  Name = 
REMARK  4 active torsions:
REMARK  status: ('A' for Active; 'I' for Inactive)
REMARK    1  A    between atoms: C_2  and  C_3
REMARK    2  A    between atoms: C_3  and  C_4
REMARK    3  A    between atoms: N_13  and  C_14
REMARK    4  A    between atoms: C_14  and  C_15
REMARK                            x       y       z     vdW  Elec       q    Type
REMARK                         _______ _______ _______ _____ _____    ______ ____
ROOT
ATOM      1  C   UNL     1       5.781   3.581  12.197  0.00  0.00    +0.000 C 
ATOM      2  O   UNL     1       4.680   3.575  11.643  0.00  0.00    +0.000 OA
ATOM      3  N   UNL     1       5.924   3.876  13.538  0.00  0.00    +0.000 N 
ATOM      4  C   UNL     1       7.165   3.910  14.271  0.00  0.00    +0.000 C 
ATOM      5  C   UNL     1       6.846   4.542  15.612  0.00  0.00    +0.000 C 
ATOM      6  C   UNL     1       5.327   4.860  15.605  0.00  0.00    +0.000 C 
ATOM      7  C   UNL     1       5.037   6.353  15.368  0.00  0.00    +0.000 C 
ATOM      8  C   UNL     1       5.449   7.218  16.553  0.00  0.00    +0.000 C 
ATOM      9  C   UNL     1       4.846   6.671  17.835  0.00  0.00    +0.000 C 
ATOM     10  N   UNL     1       5.107   5.249  18.012  0.00  0.00    +0.000 N 
ATOM     11  C   UNL     1       4.805   4.382  16.960  0.00  0.00    +0.000 C 
ATOM     12  O   UNL     1       4.373   3.246  17.135  0.00  0.00    +0.000 OA
ATOM     13  C   UNL     1       4.786   4.036  14.427  0.00  0.00    +0.000 C 
ENDROOT
BRANCH   1  14
ATOM     14  C   UNL     1       7.058   3.287  11.407  0.00  0.00    +0.000 C 
BRANCH  14  16
ATOM     15  C   UNL     1       6.333   0.909  10.992  0.00  0.00    +0.000 C 
ATOM     16  C   UNL     1       7.288   1.809  11.270  0.00  0.00    +0.000 C 
ENDBRANCH  14  16
ENDBRANCH   1  14
BRANCH  10  17
ATOM     17  C   UNL     1       5.120   4.734  19.377  0.00  0.00    +0.000 C 
BRANCH  17  18
ATOM     18  C   UNL     1       3.724   4.456  19.886  0.00  0.00    +0.000 A 
ATOM     19  C   UNL     1       2.749   5.469  19.917  0.00  0.00    +0.000 A 
ATOM     20  C   UNL     1       1.478   5.227  20.454  0.00  0.00    +0.000 A 
ATOM     21  C   UNL     1       1.159   3.962  20.950  0.00  0.00    +0.000 A 
ATOM     22  C   UNL     1       2.105   2.950  20.889  0.00  0.00    +0.000 A 
ATOM     23  F   UNL     1       1.795   1.730  21.357  0.00  0.00    +0.000 F 
ATOM     24  C   UNL     1       3.374   3.189  20.361  0.00  0.00    +0.000 A 
ATOM     25  F   UNL     1       4.269   2.191  20.318  0.00  0.00    +0.000 F 
ENDBRANCH  17  18
ENDBRANCH  10  17
TORSDOF 4
ENDMDL
MODEL 6
REMARK VINA RESULT:      -6.8      2.479      7.251
REMARK  Name = 
REMARK  4 active torsions:
REMARK  status: ('A' for Active; 'I' for Inactive)
REMARK    1  A    between atoms: C_2  and  C_3
REMARK    2  A    between atoms: C_3  and  C_4
REMARK    3  A    between atoms: N_13  and  C_14
REMARK    4  A    between atoms: C_14  and  C_15
REMARK                            x       y       z     vdW  Elec       q    Type
REMARK                         _______ _______ _______ _____ _____    ______ ____
ROOT
ATOM      1  C   UNL     1       2.031   4.743  20.532  0.00  0.00    +0.000 C 
ATOM      2  O   UNL     1       2.261   5.451  21.514  0.00  0.00    +0.000 OA
ATOM      3  N   UNL     1       2.879   4.701  19.444  0.00  0.00    +0.000 N 
ATOM      4  C   UNL     1       2.694   3.908  18.254  0.00  0.00    +0.000 C 
ATOM      5  C   UNL     1       3.721   4.404  17.253  0.00  0.00    +0.000 C 
ATOM      6  C   UNL     1       4.520   5.533  17.956  0.00  0.00    +0.000 C 
ATOM      7  C   UNL     1       4.092   6.937  17.493  0.00  0.00    +0.000 C 
ATOM      8  C   UNL     1       4.504   7.223  16.055  0.00  0.00    +0.000 C 
ATOM      9  C   UNL     1       5.984   6.940  15.868  0.00  0.00    +0.000 C 
ATOM     10  N   UNL     1       6.365   5.619  16.348  0.00  0.00    +0.000 N 
ATOM     11  C   UNL     1       5.989   5.248  17.641  0.00  0.00    +0.000 C 
ATOM     12  O   UNL     1       6.696   4.556  18.369  0.00  0.00    +0.000 OA
ATOM     13  C   UNL     1       4.178   5.352  19.443  0.00  0.00    +0.000 C 
ENDROOT
BRANCH   1  14
ATOM     14  C   UNL     1       0.763   3.889  20.460  0.00  0.00    +0.000 C 
BRANCH  14  16
ATOM     15  C   UNL     1       2.054   2.194  21.807  0.00  0.00    +0.000 C 
ATOM     16  C   UNL     1       0.974   2.543  21.095  0.00  0.00    +0.000 C 
ENDBRANCH  14  16
ENDBRANCH   1  14
BRANCH  10  17
ATOM     17  C   UNL     1       7.536   4.996  15.742  0.00  0.00    +0.000 C 
BRANCH  17  18
ATOM     18  C   UNL     1       7.314   4.689  14.278  0.00  0.00    +0.000 A 
ATOM     19  C   UNL     1       8.035   5.365  13.278  0.00  0.00    +0.000 A 
ATOM     20  C   UNL     1       7.777   5.128  11.922  0.00  0.00    +0.000 A 
ATOM     21  C   UNL     1       6.807   4.197  11.548  0.00  0.00    +0.000 A 
ATOM     22  C   UNL     1       6.119   3.502  12.530  0.00  0.00    +0.000 A 
ATOM     23  F   UNL     1       5.193   2.598  12.170  0.00  0.00    +0.000 F 
ATOM     24  C   UNL     1       6.368   3.739  13.882  0.00  0.00    +0.000 A 
ATOM     25  F   UNL     1       5.685   3.052  14.809  0.00  0.00    +0.000 F 
ENDBRANCH  17  18
ENDBRANCH  10  17
TORSDOF 4
ENDMDL
MODEL 7
REMARK VINA RESULT:      -6.6      6.844      8.839
REMARK  Name = 
REMARK  4 active torsions:
REMARK  status: ('A' for Active; 'I' for Inactive)
REMARK    1  A    between atoms: C_2  and  C_3
REMARK    2  A    between atoms: C_3  and  C_4
REMARK    3  A    between atoms: N_13  and  C_14
REMARK    4  A    between atoms: C_14  and  C_15
REMARK                            x       y       z     vdW  Elec       q    Type
REMARK                         _______ _______ _______ _____ _____    ______ ____
ROOT
ATOM      1  C   UNL     1       2.792   6.944  18.555  0.00  0.00    +0.000 C 
ATOM      2  O   UNL     1       3.122   6.759  17.382  0.00  0.00    +0.000 OA
ATOM      3  N   UNL     1       1.977   7.992  18.931  0.00  0.00    +0.000 N 
ATOM      4  C   UNL     1       1.541   8.288  20.273  0.00  0.00    +0.000 C 
ATOM      5  C   UNL     1       0.907   9.665  20.216  0.00  0.00    +0.000 C 
ATOM      6  C   UNL     1       0.998  10.138  18.741  0.00  0.00    +0.000 C 
ATOM      7  C   UNL     1       2.121  11.168  18.519  0.00  0.00    +0.000 C 
ATOM      8  C   UNL     1       1.813  12.509  19.173  0.00  0.00    +0.000 C 
ATOM      9  C   UNL     1       0.440  12.996  18.748  0.00  0.00    +0.000 C 
ATOM     10  N   UNL     1      -0.594  11.988  18.937  0.00  0.00    +0.000 N 
ATOM     11  C   UNL     1      -0.381  10.712  18.412  0.00  0.00    +0.000 C 
ATOM     12  O   UNL     1      -1.282  10.026  17.937  0.00  0.00    +0.000 OA
ATOM     13  C   UNL     1       1.316   8.852  17.964  0.00  0.00    +0.000 C 
ENDROOT
BRANCH   1  14
ATOM     14  C   UNL     1       3.302   6.024  19.666  0.00  0.00    +0.000 C 
BRANCH  14  16
ATOM     15  C   UNL     1       1.558   4.498  20.658  0.00  0.00    +0.000 C 
ATOM     16  C   UNL     1       2.498   4.756  19.738  0.00  0.00    +0.000 C 
ENDBRANCH  14  16
ENDBRANCH   1  14
BRANCH  10  17
ATOM     17  C   UNL     1      -1.961  12.456  19.133  0.00  0.00    +0.000 C 
BRANCH  17  18
ATOM     18  C   UNL     1      -2.354  12.447  20.593  0.00  0.00    +0.000 A 
ATOM     19  C   UNL     1      -1.428  12.091  21.590  0.00  0.00    +0.000 A 
ATOM     20  C   UNL     1      -1.814  12.016  22.934  0.00  0.00    +0.000 A 
ATOM     21  C   UNL     1      -3.127  12.315  23.302  0.00  0.00    +0.000 A 
ATOM     22  C   UNL     1      -4.034  12.701  22.327  0.00  0.00    +0.000 A 
ATOM     23  F   UNL     1      -5.294  12.998  22.682  0.00  0.00    +0.000 F 
ATOM     24  C   UNL     1      -3.656  12.771  20.987  0.00  0.00    +0.000 A 
ATOM     25  F   UNL     1      -4.556  13.145  20.066  0.00  0.00    +0.000 F 
ENDBRANCH  17  18
ENDBRANCH  10  17
TORSDOF 4
ENDMDL
MODEL 8
REMARK VINA RESULT:      -6.5      1.941      2.462
REMARK  Name = 
REMARK  4 active torsions:
REMARK  status: ('A' for Active; 'I' for Inactive)
REMARK    1  A    between atoms: C_2  and  C_3
REMARK    2  A    between atoms: C_3  and  C_4
REMARK    3  A    between atoms: N_13  and  C_14
REMARK    4  A    between atoms: C_14  and  C_15
REMARK                            x       y       z     vdW  Elec       q    Type
REMARK                         _______ _______ _______ _____ _____    ______ ____
ROOT
ATOM      1  C   UNL     1       5.814   3.547  12.229  0.00  0.00    +0.000 C 
ATOM      2  O   UNL     1       4.715   3.482  11.674  0.00  0.00    +0.000 OA
ATOM      3  N   UNL     1       5.942   3.854  13.568  0.00  0.00    +0.000 N 
ATOM      4  C   UNL     1       7.179   3.953  14.301  0.00  0.00    +0.000 C 
ATOM      5  C   UNL     1       6.828   4.574  15.641  0.00  0.00    +0.000 C 
ATOM      6  C   UNL     1       5.295   4.814  15.632  0.00  0.00    +0.000 C 
ATOM      7  C   UNL     1       4.930   6.290  15.389  0.00  0.00    +0.000 C 
ATOM      8  C   UNL     1       5.297   7.178  16.571  0.00  0.00    +0.000 C 
ATOM      9  C   UNL     1       4.722   6.607  17.855  0.00  0.00    +0.000 C 
ATOM     10  N   UNL     1       5.055   5.201  18.037  0.00  0.00    +0.000 N 
ATOM     11  C   UNL     1       4.798   4.315  16.989  0.00  0.00    +0.000 C 
ATOM     12  O   UNL     1       4.423   3.159  17.167  0.00  0.00    +0.000 OA
ATOM     13  C   UNL     1       4.797   3.959  14.457  0.00  0.00    +0.000 C 
ENDROOT
BRANCH   1  14
ATOM     14  C   UNL     1       7.105   3.315  11.440  0.00  0.00    +0.000 C 
BRANCH  14  16
ATOM     15  C   UNL     1       6.326   0.940  11.115  0.00  0.00    +0.000 C 
ATOM     16  C   UNL     1       7.303   1.857  11.133  0.00  0.00    +0.000 C 
ENDBRANCH  14  16
ENDBRANCH   1  14
BRANCH  10  17
ATOM     17  C   UNL     1       5.093   4.692  19.404  0.00  0.00    +0.000 C 
BRANCH  17  18
ATOM     18  C   UNL     1       3.725   4.262  19.882  0.00  0.00    +0.000 A 
ATOM     19  C   UNL     1       3.404   2.902  20.034  0.00  0.00    +0.000 A 
ATOM     20  C   UNL     1       2.114   2.505  20.410  0.00  0.00    +0.000 A 
ATOM     21  C   UNL     1       1.132   3.466  20.656  0.00  0.00    +0.000 A 
ATOM     22  C   UNL     1       1.453   4.810  20.543  0.00  0.00    +0.000 A 
ATOM     23  F   UNL     1       0.512   5.735  20.790  0.00  0.00    +0.000 F 
ATOM     24  C   UNL     1       2.735   5.209  20.163  0.00  0.00    +0.000 A 
ATOM     25  F   UNL     1       3.015   6.516  20.058  0.00  0.00    +0.000 F 
ENDBRANCH  17  18
ENDBRANCH  10  17
TORSDOF 4
ENDMDL
MODEL 9
REMARK VINA RESULT:      -6.5      3.479      7.882
REMARK  Name = 
REMARK  4 active torsions:
REMARK  status: ('A' for Active; 'I' for Inactive)
REMARK    1  A    between atoms: C_2  and  C_3
REMARK    2  A    between atoms: C_3  and  C_4
REMARK    3  A    between atoms: N_13  and  C_14
REMARK    4  A    between atoms: C_14  and  C_15
REMARK                            x       y       z     vdW  Elec       q    Type
REMARK                         _______ _______ _______ _____ _____    ______ ____
ROOT
ATOM      1  C   UNL     1       0.850   9.241  19.599  0.00  0.00    +0.000 C 
ATOM      2  O   UNL     1       0.338   9.867  18.669  0.00  0.00    +0.000 OA
ATOM      3  N   UNL     1       1.704   8.179  19.384  0.00  0.00    +0.000 N 
ATOM      4  C   UNL     1       2.348   7.388  20.403  0.00  0.00    +0.000 C 
ATOM      5  C   UNL     1       2.951   6.192  19.691  0.00  0.00    +0.000 C 
ATOM      6  C   UNL     1       2.619   6.356  18.184  0.00  0.00    +0.000 C 
ATOM      7  C   UNL     1       1.466   5.443  17.731  0.00  0.00    +0.000 C 
ATOM      8  C   UNL     1       1.862   3.972  17.721  0.00  0.00    +0.000 C 
ATOM      9  C   UNL     1       3.144   3.779  16.932  0.00  0.00    +0.000 C 
ATOM     10  N   UNL     1       4.204   4.681  17.360  0.00  0.00    +0.000 N 
ATOM     11  C   UNL     1       3.922   6.046  17.445  0.00  0.00    +0.000 C 
ATOM     12  O   UNL     1       4.741   6.916  17.164  0.00  0.00    +0.000 OA
ATOM     13  C   UNL     1       2.193   7.826  18.062  0.00  0.00    +0.000 C 
ENDROOT
BRANCH   1  14
ATOM     14  C   UNL     1       0.534   9.598  21.053  0.00  0.00    +0.000 C 
BRANCH  14  16
ATOM     15  C   UNL     1      -0.576  11.640  22.028  0.00  0.00    +0.000 C 
ATOM     16  C   UNL     1       0.335  11.078  21.221  0.00  0.00    +0.000 C 
ENDBRANCH  14  16
ENDBRANCH   1  14
BRANCH  10  17
ATOM     17  C   UNL     1       5.581   4.253  17.139  0.00  0.00    +0.000 C 
BRANCH  17  18
ATOM     18  C   UNL     1       5.954   4.295  15.674  0.00  0.00    +0.000 A 
ATOM     19  C   UNL     1       5.241   3.544  14.723  0.00  0.00    +0.000 A 
ATOM     20  C   UNL     1       5.632   3.531  13.378  0.00  0.00    +0.000 A 
ATOM     21  C   UNL     1       6.732   4.284  12.963  0.00  0.00    +0.000 A 
ATOM     22  C   UNL     1       7.416   5.054  13.891  0.00  0.00    +0.000 A 
ATOM     23  F   UNL     1       8.468   5.787  13.490  0.00  0.00    +0.000 F 
ATOM     24  C   UNL     1       7.034   5.065  15.232  0.00  0.00    +0.000 A 
ATOM     25  F   UNL     1       7.717   5.818  16.107  0.00  0.00    +0.000 F 
ENDBRANCH  17  18
ENDBRANCH  10  17
TORSDOF 4
ENDMDL
