MODEL 1
REMARK VINA RESULT:      -7.4      0.000      0.000
REMARK  Name = 
REMARK  6 active torsions:
REMARK  status: ('A' for Active; 'I' for Inactive)
REMARK    1  A    between atoms: C_1  and  C_2
REMARK    2  A    between atoms: C_2  and  O_3
REMARK    3  A    between atoms: O_3  and  C_4
REMARK    4  A    between atoms: N_10  and  N_11
REMARK    5  A    between atoms: C_12  and  C_14
REMARK    6  A    between atoms: C_17  and  C_18
REMARK                            x       y       z     vdW  Elec       q    Type
REMARK                         _______ _______ _______ _____ _____    ______ ____
ROOT
ATOM      1  N   UNL     1       2.297   7.265  20.112  0.00  0.00    +0.000 N 
ATOM      2  C   UNL     1       2.264   5.922  19.754  0.00  0.00    +0.000 C 
ATOM      3  O   UNL     1       1.579   5.050  20.272  0.00  0.00    +0.000 OA
ATOM      4  H   UNL     1       2.734   7.918  19.482  0.00  0.00    +0.000 HD
ENDROOT
BRANCH   1  11
ATOM      5  C   UNL     1      -1.574  12.045  20.817  0.00  0.00    +0.000 C 
ATOM      6  O   UNL     1      -2.382  12.275  21.708  0.00  0.00    +0.000 OA
ATOM      7  N   UNL     1      -0.450  11.257  20.975  0.00  0.00    +0.000 N 
ATOM      8  C   UNL     1       0.435  10.886  19.876  0.00  0.00    +0.000 C 
ATOM      9  C   UNL     1       0.410   9.380  19.646  0.00  0.00    +0.000 C 
ATOM     10  C   UNL     1       0.699   8.680  20.962  0.00  0.00    +0.000 C 
ATOM     11  N   UNL     1       1.566   7.728  21.160  0.00  0.00    +0.000 NA
ATOM     12  C   UNL     1      -0.163   9.105  22.138  0.00  0.00    +0.000 C 
ATOM     13  C   UNL     1      -0.166  10.624  22.258  0.00  0.00    +0.000 C 
BRANCH   5  14
ATOM     14  O   UNL     1      -1.713  12.478  19.537  0.00  0.00    +0.000 OA
BRANCH  14  16
ATOM     15  C   UNL     1      -2.433  11.295  17.600  0.00  0.00    +0.000 C 
ATOM     16  C   UNL     1      -2.888  12.032  18.847  0.00  0.00    +0.000 C 
ENDBRANCH  14  16
ENDBRANCH   5  14
ENDBRANCH   1  11
BRANCH   2  17
ATOM     17  C   UNL     1       3.155   5.579  18.606  0.00  0.00    +0.000 A 
ATOM     18  C   UNL     1       3.917   6.560  17.954  0.00  0.00    +0.000 A 
ATOM     19  C   UNL     1       4.739   6.217  16.877  0.00  0.00    +0.000 A 
ATOM     20  C   UNL     1       4.826   4.887  16.442  0.00  0.00    +0.000 A 
ATOM     21  C   UNL     1       4.075   3.905  17.110  0.00  0.00    +0.000 A 
ATOM     22  C   UNL     1       3.251   4.246  18.188  0.00  0.00    +0.000 A 
BRANCH  20  23
ATOM     23  C   UNL     1       5.726   4.507  15.288  0.00  0.00    +0.000 C 
ATOM     24  F   UNL     1       6.235   3.247  15.393  0.00  0.00    +0.000 F 
ATOM     25  F   UNL     1       5.085   4.550  14.088  0.00  0.00    +0.000 F 
ATOM     26  F   UNL     1       6.802   5.332  15.171  0.00  0.00    +0.000 F 
ENDBRANCH  20  23
ENDBRANCH   2  17
TORSDOF 5
ENDMDL
MODEL 2
REMARK VINA RESULT:      -7.4      0.231      1.251
REMARK  Name = 
REMARK  6 active torsions:
REMARK  status: ('A' for Active; 'I' for Inactive)
REMARK    1  A    between atoms: C_1  and  C_2
REMARK    2  A    between atoms: C_2  and  O_3
REMARK    3  A    between atoms: O_3  and  C_4
REMARK    4  A    between atoms: N_10  and  N_11
REMARK    5  A    between atoms: C_12  and  C_14
REMARK    6  A    between atoms: C_17  and  C_18
REMARK                            x       y       z     vdW  Elec       q    Type
REMARK                         _______ _______ _______ _____ _____    ______ ____
ROOT
ATOM      1  N   UNL     1       2.393   7.271  20.018  0.00  0.00    +0.000 N 
ATOM      2  C   UNL     1       2.303   5.924  19.685  0.00  0.00    +0.000 C 
ATOM      3  O   UNL     1       1.586   5.091  20.222  0.00  0.00    +0.000 OA
ATOM      4  H   UNL     1       2.853   7.894  19.374  0.00  0.00    +0.000 HD
ENDROOT
BRANCH   1  11
ATOM      5  C   UNL     1      -1.593  11.979  20.556  0.00  0.00    +0.000 C 
ATOM      6  O   UNL     1      -2.374  12.245  21.459  0.00  0.00    +0.000 OA
ATOM      7  N   UNL     1      -0.439  11.234  20.721  0.00  0.00    +0.000 N 
ATOM      8  C   UNL     1       0.415  10.815  19.616  0.00  0.00    +0.000 C 
ATOM      9  C   UNL     1       0.427   9.297  19.487  0.00  0.00    +0.000 C 
ATOM     10  C   UNL     1       0.785   8.695  20.834  0.00  0.00    +0.000 C 
ATOM     11  N   UNL     1       1.687   7.782  21.061  0.00  0.00    +0.000 NA
ATOM     12  C   UNL     1      -0.045   9.174  22.012  0.00  0.00    +0.000 C 
ATOM     13  C   UNL     1      -0.090  10.697  22.032  0.00  0.00    +0.000 C 
BRANCH   5  14
ATOM     14  O   UNL     1      -1.791  12.320  19.256  0.00  0.00    +0.000 OA
BRANCH  14  16
ATOM     15  C   UNL     1      -2.712  10.653  17.826  0.00  0.00    +0.000 C 
ATOM     16  C   UNL     1      -3.022  11.877  18.671  0.00  0.00    +0.000 C 
ENDBRANCH  14  16
ENDBRANCH   5  14
ENDBRANCH   1  11
BRANCH   2  17
ATOM     17  C   UNL     1       3.173   5.524  18.540  0.00  0.00    +0.000 A 
ATOM     18  C   UNL     1       3.258   4.189  18.119  0.00  0.00    +0.000 A 
ATOM     19  C   UNL     1       4.083   3.837  17.047  0.00  0.00    +0.000 A 
ATOM     20  C   UNL     1       4.826   4.813  16.368  0.00  0.00    +0.000 A 
ATOM     21  C   UNL     1       4.723   6.152  16.781  0.00  0.00    +0.000 A 
ATOM     22  C   UNL     1       3.898   6.507  17.854  0.00  0.00    +0.000 A 
BRANCH  20  23
ATOM     23  C   UNL     1       5.708   4.440  15.198  0.00  0.00    +0.000 C 
ATOM     24  F   UNL     1       6.771   5.279  15.034  0.00  0.00    +0.000 F 
ATOM     25  F   UNL     1       6.236   3.191  15.317  0.00  0.00    +0.000 F 
ATOM     26  F   UNL     1       5.038   4.456  14.013  0.00  0.00    +0.000 F 
ENDBRANCH  20  23
ENDBRANCH   2  17
TORSDOF 5
ENDMDL
MODEL 3
REMARK VINA RESULT:      -7.3      6.361      8.532
REMARK  Name = 
REMARK  6 active torsions:
REMARK  status: ('A' for Active; 'I' for Inactive)
REMARK    1  A    between atoms: C_1  and  C_2
REMARK    2  A    between atoms: C_2  and  O_3
REMARK    3  A    between atoms: O_3  and  C_4
REMARK    4  A    between atoms: N_10  and  N_11
REMARK    5  A    between atoms: C_12  and  C_14
REMARK    6  A    between atoms: C_17  and  C_18
REMARK                            x       y       z     vdW  Elec       q    Type
REMARK                         _______ _______ _______ _____ _____    ______ ____
ROOT
ATOM      1  N   UNL     1       7.518   7.505  16.724  0.00  0.00    +0.000 N 
ATOM      2  C   UNL     1       8.042   7.678  18.000  0.00  0.00    +0.000 C 
ATOM      3  O   UNL     1       8.225   6.800  18.833  0.00  0.00    +0.000 OA
ATOM      4  H   UNL     1       7.612   8.257  16.061  0.00  0.00    +0.000 HD
ENDROOT
BRANCH   1  11
ATOM      5  C   UNL     1       2.555   4.037  18.021  0.00  0.00    +0.000 C 
ATOM      6  O   UNL     1       2.108   3.058  17.438  0.00  0.00    +0.000 OA
ATOM      7  N   UNL     1       3.879   4.434  17.969  0.00  0.00    +0.000 N 
ATOM      8  C   UNL     1       4.373   5.671  18.562  0.00  0.00    +0.000 C 
ATOM      9  C   UNL     1       4.895   6.616  17.487  0.00  0.00    +0.000 C 
ATOM     10  C   UNL     1       5.904   5.872  16.632  0.00  0.00    +0.000 C 
ATOM     11  N   UNL     1       7.095   6.284  16.301  0.00  0.00    +0.000 NA
ATOM     12  C   UNL     1       5.435   4.543  16.063  0.00  0.00    +0.000 C 
ATOM     13  C   UNL     1       4.844   3.683  17.173  0.00  0.00    +0.000 C 
BRANCH   5  14
ATOM     14  O   UNL     1       1.796   4.903  18.742  0.00  0.00    +0.000 OA
BRANCH  14  16
ATOM     15  C   UNL     1       2.071   4.138  20.980  0.00  0.00    +0.000 C 
ATOM     16  C   UNL     1       1.079   4.339  19.848  0.00  0.00    +0.000 C 
ENDBRANCH  14  16
ENDBRANCH   5  14
ENDBRANCH   1  11
BRANCH   2  17
ATOM     17  C   UNL     1       8.421   9.087  18.313  0.00  0.00    +0.000 A 
ATOM     18  C   UNL     1       8.080  10.143  17.455  0.00  0.00    +0.000 A 
ATOM     19  C   UNL     1       8.451  11.454  17.765  0.00  0.00    +0.000 A 
ATOM     20  C   UNL     1       9.154  11.737  18.945  0.00  0.00    +0.000 A 
ATOM     21  C   UNL     1       9.476  10.678  19.811  0.00  0.00    +0.000 A 
ATOM     22  C   UNL     1       9.108   9.364  19.501  0.00  0.00    +0.000 A 
BRANCH  20  23
ATOM     23  C   UNL     1       9.544  13.155  19.294  0.00  0.00    +0.000 C 
ATOM     24  F   UNL     1      10.336  13.745  18.354  0.00  0.00    +0.000 F 
ATOM     25  F   UNL     1       8.466  13.973  19.440  0.00  0.00    +0.000 F 
ATOM     26  F   UNL     1      10.237  13.233  20.463  0.00  0.00    +0.000 F 
ENDBRANCH  20  23
ENDBRANCH   2  17
TORSDOF 5
ENDMDL
MODEL 4
REMARK VINA RESULT:      -7.3      5.322      9.038
REMARK  Name = 
REMARK  6 active torsions:
REMARK  status: ('A' for Active; 'I' for Inactive)
REMARK    1  A    between atoms: C_1  and  C_2
REMARK    2  A    between atoms: C_2  and  O_3
REMARK    3  A    between atoms: O_3  and  C_4
REMARK    4  A    between atoms: N_10  and  N_11
REMARK    5  A    between atoms: C_12  and  C_14
REMARK    6  A    between atoms: C_17  and  C_18
REMARK                            x       y       z     vdW  Elec       q    Type
REMARK                         _______ _______ _______ _____ _____    ______ ____
ROOT
ATOM      1  N   UNL     1       1.497   8.685  17.793  0.00  0.00    +0.000 N 
ATOM      2  C   UNL     1       1.253  10.016  18.113  0.00  0.00    +0.000 C 
ATOM      3  O   UNL     1       2.096  10.871  18.348  0.00  0.00    +0.000 OA
ATOM      4  H   UNL     1       0.741   8.137  17.416  0.00  0.00    +0.000 HD
ENDROOT
BRANCH   1  11
ATOM      5  C   UNL     1       4.031   3.359  19.676  0.00  0.00    +0.000 C 
ATOM      6  O   UNL     1       5.125   2.875  19.416  0.00  0.00    +0.000 OA
ATOM      7  N   UNL     1       3.748   4.711  19.627  0.00  0.00    +0.000 N 
ATOM      8  C   UNL     1       2.411   5.263  19.814  0.00  0.00    +0.000 C 
ATOM      9  C   UNL     1       1.924   5.945  18.542  0.00  0.00    +0.000 C 
ATOM     10  C   UNL     1       2.972   6.949  18.095  0.00  0.00    +0.000 C 
ATOM     11  N   UNL     1       2.764   8.193  17.767  0.00  0.00    +0.000 NA
ATOM     12  C   UNL     1       4.387   6.413  17.965  0.00  0.00    +0.000 C 
ATOM     13  C   UNL     1       4.779   5.666  19.235  0.00  0.00    +0.000 C 
BRANCH   5  14
ATOM     14  O   UNL     1       2.929   2.623  19.980  0.00  0.00    +0.000 OA
BRANCH  14  16
ATOM     15  C   UNL     1       0.869   2.267  18.840  0.00  0.00    +0.000 C 
ATOM     16  C   UNL     1       2.340   1.896  18.894  0.00  0.00    +0.000 C 
ENDBRANCH  14  16
ENDBRANCH   5  14
ENDBRANCH   1  11
BRANCH   2  17
ATOM     17  C   UNL     1      -0.195  10.378  18.131  0.00  0.00    +0.000 A 
ATOM     18  C   UNL     1      -1.134   9.676  17.362  0.00  0.00    +0.000 A 
ATOM     19  C   UNL     1      -2.483  10.037  17.390  0.00  0.00    +0.000 A 
ATOM     20  C   UNL     1      -2.922  11.096  18.198  0.00  0.00    +0.000 A 
ATOM     21  C   UNL     1      -1.981  11.784  18.982  0.00  0.00    +0.000 A 
ATOM     22  C   UNL     1      -0.628  11.425  18.955  0.00  0.00    +0.000 A 
BRANCH  20  23
ATOM     23  C   UNL     1      -4.383  11.481  18.245  0.00  0.00    +0.000 C 
ATOM     24  F   UNL     1      -4.696  12.285  19.302  0.00  0.00    +0.000 F 
ATOM     25  F   UNL     1      -4.783  12.156  17.133  0.00  0.00    +0.000 F 
ATOM     26  F   UNL     1      -5.205  10.400  18.347  0.00  0.00    +0.000 F 
ENDBRANCH  20  23
ENDBRANCH   2  17
TORSDOF 5
ENDMDL
MODEL 5
REMARK VINA RESULT:      -7.3      0.902      1.324
REMARK  Name = 
REMARK  6 active torsions:
REMARK  status: ('A' for Active; 'I' for Inactive)
REMARK    1  A    between atoms: C_1  and  C_2
REMARK    2  A    between atoms: C_2  and  O_3
REMARK    3  A    between atoms: O_3  and  C_4
REMARK    4  A    between atoms: N_10  and  N_11
REMARK    5  A    between atoms: C_12  and  C_14
REMARK    6  A    between atoms: C_17  and  C_18
REMARK                            x       y       z     vdW  Elec       q    Type
REMARK                         _______ _______ _______ _____ _____    ______ ____
ROOT
ATOM      1  N   UNL     1       1.959   7.734  20.604  0.00  0.00    +0.000 N 
ATOM      2  C   UNL     1       2.011   6.387  20.263  0.00  0.00    +0.000 C 
ATOM      3  O   UNL     1       1.400   5.477  20.809  0.00  0.00    +0.000 OA
ATOM      4  H   UNL     1       2.335   8.406  19.955  0.00  0.00    +0.000 HD
ENDROOT
BRANCH   1  11
ATOM      5  C   UNL     1      -2.204  12.254  21.355  0.00  0.00    +0.000 C 
ATOM      6  O   UNL     1      -3.004  12.441  22.262  0.00  0.00    +0.000 OA
ATOM      7  N   UNL     1      -1.026  11.544  21.493  0.00  0.00    +0.000 N 
ATOM      8  C   UNL     1      -0.145  11.220  20.377  0.00  0.00    +0.000 C 
ATOM      9  C   UNL     1      -0.075   9.713  20.163  0.00  0.00    +0.000 C 
ATOM     10  C   UNL     1       0.291   9.050  21.478  0.00  0.00    +0.000 C 
ATOM     11  N   UNL     1       1.224   8.159  21.665  0.00  0.00    +0.000 NA
ATOM     12  C   UNL     1      -0.569   9.431  22.671  0.00  0.00    +0.000 C 
ATOM     13  C   UNL     1      -0.670  10.947  22.775  0.00  0.00    +0.000 C 
BRANCH   5  14
ATOM     14  O   UNL     1      -2.401  12.661  20.073  0.00  0.00    +0.000 OA
BRANCH  14  16
ATOM     15  C   UNL     1      -3.390  11.431  18.290  0.00  0.00    +0.000 C 
ATOM     16  C   UNL     1      -3.666  12.317  19.493  0.00  0.00    +0.000 C 
ENDBRANCH  14  16
ENDBRANCH   5  14
ENDBRANCH   1  11
BRANCH   2  17
ATOM     17  C   UNL     1       2.894   6.090  19.097  0.00  0.00    +0.000 A 
ATOM     18  C   UNL     1       3.360   4.792  18.845  0.00  0.00    +0.000 A 
ATOM     19  C   UNL     1       4.192   4.539  17.750  0.00  0.00    +0.000 A 
ATOM     20  C   UNL     1       4.559   5.574  16.879  0.00  0.00    +0.000 A 
ATOM     21  C   UNL     1       4.074   6.870  17.125  0.00  0.00    +0.000 A 
ATOM     22  C   UNL     1       3.243   7.126  18.221  0.00  0.00    +0.000 A 
BRANCH  20  23
ATOM     23  C   UNL     1       5.445   5.304  15.684  0.00  0.00    +0.000 C 
ATOM     24  F   UNL     1       5.208   4.095  15.099  0.00  0.00    +0.000 F 
ATOM     25  F   UNL     1       5.293   6.230  14.699  0.00  0.00    +0.000 F 
ATOM     26  F   UNL     1       6.768   5.307  16.004  0.00  0.00    +0.000 F 
ENDBRANCH  20  23
ENDBRANCH   2  17
TORSDOF 5
ENDMDL
MODEL 6
REMARK VINA RESULT:      -7.2      1.004      1.356
REMARK  Name = 
REMARK  6 active torsions:
REMARK  status: ('A' for Active; 'I' for Inactive)
REMARK    1  A    between atoms: C_1  and  C_2
REMARK    2  A    between atoms: C_2  and  O_3
REMARK    3  A    between atoms: O_3  and  C_4
REMARK    4  A    between atoms: N_10  and  N_11
REMARK    5  A    between atoms: C_12  and  C_14
REMARK    6  A    between atoms: C_17  and  C_18
REMARK                            x       y       z     vdW  Elec       q    Type
REMARK                         _______ _______ _______ _____ _____    ______ ____
ROOT
ATOM      1  N   UNL     1       2.152   7.137  20.177  0.00  0.00    +0.000 N 
ATOM      2  C   UNL     1       2.156   5.803  19.787  0.00  0.00    +0.000 C 
ATOM      3  O   UNL     1       1.473   4.906  20.264  0.00  0.00    +0.000 OA
ATOM      4  H   UNL     1       2.594   7.813  19.575  0.00  0.00    +0.000 HD
ENDROOT
BRANCH   1  11
ATOM      5  C   UNL     1      -1.228  12.230  21.164  0.00  0.00    +0.000 C 
ATOM      6  O   UNL     1      -2.085  12.451  22.010  0.00  0.00    +0.000 OA
ATOM      7  N   UNL     1      -0.214  11.301  21.310  0.00  0.00    +0.000 N 
ATOM      8  C   UNL     1       0.722  10.956  20.247  0.00  0.00    +0.000 C 
ATOM      9  C   UNL     1       0.555   9.500  19.830  0.00  0.00    +0.000 C 
ATOM     10  C   UNL     1       0.645   8.625  21.068  0.00  0.00    +0.000 C 
ATOM     11  N   UNL     1       1.381   7.560  21.214  0.00  0.00    +0.000 NA
ATOM     12  C   UNL     1      -0.271   9.012  22.217  0.00  0.00    +0.000 C 
ATOM     13  C   UNL     1      -0.120  10.497  22.524  0.00  0.00    +0.000 C 
BRANCH   5  14
ATOM     14  O   UNL     1      -1.200  12.820  19.940  0.00  0.00    +0.000 OA
BRANCH  14  16
ATOM     15  C   UNL     1       0.285  14.582  19.341  0.00  0.00    +0.000 C 
ATOM     16  C   UNL     1      -1.073  14.247  19.933  0.00  0.00    +0.000 C 
ENDBRANCH  14  16
ENDBRANCH   5  14
ENDBRANCH   1  11
BRANCH   2  17
ATOM     17  C   UNL     1       3.086   5.505  18.658  0.00  0.00    +0.000 A 
ATOM     18  C   UNL     1       3.769   6.528  17.985  0.00  0.00    +0.000 A 
ATOM     19  C   UNL     1       4.630   6.226  16.926  0.00  0.00    +0.000 A 
ATOM     20  C   UNL     1       4.835   4.896  16.530  0.00  0.00    +0.000 A 
ATOM     21  C   UNL     1       4.162   3.873  17.220  0.00  0.00    +0.000 A 
ATOM     22  C   UNL     1       3.299   4.173  18.279  0.00  0.00    +0.000 A 
BRANCH  20  23
ATOM     23  C   UNL     1       5.777   4.562  15.396  0.00  0.00    +0.000 C 
ATOM     24  F   UNL     1       6.901   5.334  15.382  0.00  0.00    +0.000 F 
ATOM     25  F   UNL     1       6.212   3.273  15.440  0.00  0.00    +0.000 F 
ATOM     26  F   UNL     1       5.201   4.724  14.174  0.00  0.00    +0.000 F 
ENDBRANCH  20  23
ENDBRANCH   2  17
TORSDOF 5
ENDMDL
MODEL 7
REMARK VINA RESULT:      -7.2      5.327      8.986
REMARK  Name = 
REMARK  6 active torsions:
REMARK  status: ('A' for Active; 'I' for Inactive)
REMARK    1  A    between atoms: C_1  and  C_2
REMARK    2  A    between atoms: C_2  and  O_3
REMARK    3  A    between atoms: O_3  and  C_4
REMARK    4  A    between atoms: N_10  and  N_11
REMARK    5  A    between atoms: C_12  and  C_14
REMARK    6  A    between atoms: C_17  and  C_18
REMARK                            x       y       z     vdW  Elec       q    Type
REMARK                         _______ _______ _______ _____ _____    ______ ____
ROOT
ATOM      1  N   UNL     1       1.429   8.730  17.788  0.00  0.00    +0.000 N 
ATOM      2  C   UNL     1       1.167  10.041  18.166  0.00  0.00    +0.000 C 
ATOM      3  O   UNL     1       1.997  10.890  18.464  0.00  0.00    +0.000 OA
ATOM      4  H   UNL     1       0.687   8.195  17.366  0.00  0.00    +0.000 HD
ENDROOT
BRANCH   1  11
ATOM      5  C   UNL     1       3.994   3.423  19.683  0.00  0.00    +0.000 C 
ATOM      6  O   UNL     1       5.094   2.949  19.430  0.00  0.00    +0.000 OA
ATOM      7  N   UNL     1       3.701   4.773  19.633  0.00  0.00    +0.000 N 
ATOM      8  C   UNL     1       2.358   5.314  19.812  0.00  0.00    +0.000 C 
ATOM      9  C   UNL     1       1.874   5.993  18.537  0.00  0.00    +0.000 C 
ATOM     10  C   UNL     1       2.916   7.006  18.098  0.00  0.00    +0.000 C 
ATOM     11  N   UNL     1       2.700   8.248  17.770  0.00  0.00    +0.000 NA
ATOM     12  C   UNL     1       4.337   6.481  17.977  0.00  0.00    +0.000 C 
ATOM     13  C   UNL     1       4.726   5.737  19.249  0.00  0.00    +0.000 C 
BRANCH   5  14
ATOM     14  O   UNL     1       2.897   2.678  19.980  0.00  0.00    +0.000 OA
BRANCH  14  16
ATOM     15  C   UNL     1       0.903   2.275  18.742  0.00  0.00    +0.000 C 
ATOM     16  C   UNL     1       2.363   1.892  18.907  0.00  0.00    +0.000 C 
ENDBRANCH  14  16
ENDBRANCH   5  14
ENDBRANCH   1  11
BRANCH   2  17
ATOM     17  C   UNL     1      -0.284  10.393  18.166  0.00  0.00    +0.000 A 
ATOM     18  C   UNL     1      -0.794  11.393  19.007  0.00  0.00    +0.000 A 
ATOM     19  C   UNL     1      -2.157  11.701  18.995  0.00  0.00    +0.000 A 
ATOM     20  C   UNL     1      -3.033  11.026  18.132  0.00  0.00    +0.000 A 
ATOM     21  C   UNL     1      -2.514  10.038  17.278  0.00  0.00    +0.000 A 
ATOM     22  C   UNL     1      -1.150   9.727  17.289  0.00  0.00    +0.000 A 
BRANCH  20  23
ATOM     23  C   UNL     1      -4.505  11.366  18.102  0.00  0.00    +0.000 C 
ATOM     24  F   UNL     1      -5.306  10.332  18.490  0.00  0.00    +0.000 F 
ATOM     25  F   UNL     1      -4.820  12.407  18.920  0.00  0.00    +0.000 F 
ATOM     26  F   UNL     1      -4.935  11.720  16.859  0.00  0.00    +0.000 F 
ENDBRANCH  20  23
ENDBRANCH   2  17
TORSDOF 5
ENDMDL
MODEL 8
REMARK VINA RESULT:      -7.2      1.067      1.621
REMARK  Name = 
REMARK  6 active torsions:
REMARK  status: ('A' for Active; 'I' for Inactive)
REMARK    1  A    between atoms: C_1  and  C_2
REMARK    2  A    between atoms: C_2  and  O_3
REMARK    3  A    between atoms: O_3  and  C_4
REMARK    4  A    between atoms: N_10  and  N_11
REMARK    5  A    between atoms: C_12  and  C_14
REMARK    6  A    between atoms: C_17  and  C_18
REMARK                            x       y       z     vdW  Elec       q    Type
REMARK                         _______ _______ _______ _____ _____    ______ ____
ROOT
ATOM      1  N   UNL     1       2.187   7.195  20.277  0.00  0.00    +0.000 N 
ATOM      2  C   UNL     1       2.220   5.852  19.921  0.00  0.00    +0.000 C 
ATOM      3  O   UNL     1       1.513   4.963  20.378  0.00  0.00    +0.000 OA
ATOM      4  H   UNL     1       2.662   7.859  19.687  0.00  0.00    +0.000 HD
ENDROOT
BRANCH   1  11
ATOM      5  C   UNL     1      -1.193  12.335  20.979  0.00  0.00    +0.000 C 
ATOM      6  O   UNL     1      -2.101  12.575  21.764  0.00  0.00    +0.000 OA
ATOM      7  N   UNL     1      -0.202  11.397  21.203  0.00  0.00    +0.000 N 
ATOM      8  C   UNL     1       0.799  11.029  20.208  0.00  0.00    +0.000 C 
ATOM      9  C   UNL     1       0.643   9.570  19.798  0.00  0.00    +0.000 C 
ATOM     10  C   UNL     1       0.642   8.710  21.049  0.00  0.00    +0.000 C 
ATOM     11  N   UNL     1       1.355   7.639  21.256  0.00  0.00    +0.000 NA
ATOM     12  C   UNL     1      -0.343   9.121  22.131  0.00  0.00    +0.000 C 
ATOM     13  C   UNL     1      -0.196  10.607  22.430  0.00  0.00    +0.000 C 
BRANCH   5  14
ATOM     14  O   UNL     1      -1.079  12.908  19.753  0.00  0.00    +0.000 OA
BRANCH  14  16
ATOM     15  C   UNL     1       0.436  14.577  18.983  0.00  0.00    +0.000 C 
ATOM     16  C   UNL     1      -0.856  14.324  19.740  0.00  0.00    +0.000 C 
ENDBRANCH  14  16
ENDBRANCH   5  14
ENDBRANCH   1  11
BRANCH   2  17
ATOM     17  C   UNL     1       3.216   5.532  18.856  0.00  0.00    +0.000 A 
ATOM     18  C   UNL     1       3.758   4.244  18.726  0.00  0.00    +0.000 A 
ATOM     19  C   UNL     1       4.694   3.969  17.726  0.00  0.00    +0.000 A 
ATOM     20  C   UNL     1       5.094   4.969  16.828  0.00  0.00    +0.000 A 
ATOM     21  C   UNL     1       4.533   6.252  16.950  0.00  0.00    +0.000 A 
ATOM     22  C   UNL     1       3.597   6.531  17.952  0.00  0.00    +0.000 A 
BRANCH  20  23
ATOM     23  C   UNL     1       6.094   4.674  15.734  0.00  0.00    +0.000 C 
ATOM     24  F   UNL     1       7.388   4.868  16.117  0.00  0.00    +0.000 F 
ATOM     25  F   UNL     1       6.025   3.387  15.295  0.00  0.00    +0.000 F 
ATOM     26  F   UNL     1       5.913   5.457  14.635  0.00  0.00    +0.000 F 
ENDBRANCH  20  23
ENDBRANCH   2  17
TORSDOF 5
ENDMDL
MODEL 9
REMARK VINA RESULT:      -7.2      1.312      1.751
REMARK  Name = 
REMARK  6 active torsions:
REMARK  status: ('A' for Active; 'I' for Inactive)
REMARK    1  A    between atoms: C_1  and  C_2
REMARK    2  A    between atoms: C_2  and  O_3
REMARK    3  A    between atoms: O_3  and  C_4
REMARK    4  A    between atoms: N_10  and  N_11
REMARK    5  A    between atoms: C_12  and  C_14
REMARK    6  A    between atoms: C_17  and  C_18
REMARK                            x       y       z     vdW  Elec       q    Type
REMARK                         _______ _______ _______ _____ _____    ______ ____
ROOT
ATOM      1  N   UNL     1       2.152   7.251  20.530  0.00  0.00    +0.000 N 
ATOM      2  C   UNL     1       2.301   5.980  19.987  0.00  0.00    +0.000 C 
ATOM      3  O   UNL     1       1.562   5.022  20.171  0.00  0.00    +0.000 OA
ATOM      4  H   UNL     1       2.696   8.005  20.141  0.00  0.00    +0.000 HD
ENDROOT
BRANCH   1  11
ATOM      5  C   UNL     1      -1.169  12.340  21.716  0.00  0.00    +0.000 C 
ATOM      6  O   UNL     1      -2.216  12.466  22.338  0.00  0.00    +0.000 OA
ATOM      7  N   UNL     1      -0.271  11.306  21.909  0.00  0.00    +0.000 N 
ATOM      8  C   UNL     1       0.907  11.096  21.075  0.00  0.00    +0.000 C 
ATOM      9  C   UNL     1       0.804   9.779  20.317  0.00  0.00    +0.000 C 
ATOM     10  C   UNL     1       0.517   8.666  21.308  0.00  0.00    +0.000 C 
ATOM     11  N   UNL     1       1.144   7.527  21.399  0.00  0.00    +0.000 NA
ATOM     12  C   UNL     1      -0.662   8.897  22.237  0.00  0.00    +0.000 C 
ATOM     13  C   UNL     1      -0.544  10.267  22.895  0.00  0.00    +0.000 C 
BRANCH   5  14
ATOM     14  O   UNL     1      -0.785  13.161  20.704  0.00  0.00    +0.000 OA
BRANCH  14  16
ATOM     15  C   UNL     1      -0.546  13.130  18.334  0.00  0.00    +0.000 C 
ATOM     16  C   UNL     1      -1.533  13.050  19.486  0.00  0.00    +0.000 C 
ENDBRANCH  14  16
ENDBRANCH   5  14
ENDBRANCH   1  11
BRANCH   2  17
ATOM     17  C   UNL     1       3.480   5.842  19.083  0.00  0.00    +0.000 A 
ATOM     18  C   UNL     1       4.498   4.913  19.346  0.00  0.00    +0.000 A 
ATOM     19  C   UNL     1       5.597   4.806  18.488  0.00  0.00    +0.000 A 
ATOM     20  C   UNL     1       5.691   5.612  17.345  0.00  0.00    +0.000 A 
ATOM     21  C   UNL     1       4.659   6.528  17.075  0.00  0.00    +0.000 A 
ATOM     22  C   UNL     1       3.559   6.638  17.933  0.00  0.00    +0.000 A 
BRANCH  20  23
ATOM     23  C   UNL     1       6.868   5.490  16.405  0.00  0.00    +0.000 C 
ATOM     24  F   UNL     1       7.741   6.534  16.494  0.00  0.00    +0.000 F 
ATOM     25  F   UNL     1       7.605   4.369  16.632  0.00  0.00    +0.000 F 
ATOM     26  F   UNL     1       6.489   5.434  15.099  0.00  0.00    +0.000 F 
ENDBRANCH  20  23
ENDBRANCH   2  17
TORSDOF 5
ENDMDL
