MODEL 1
REMARK VINA RESULT:      -7.8      0.000      0.000
REMARK  Name = 
REMARK  13 active torsions:
REMARK  status: ('A' for Active; 'I' for Inactive)
REMARK    1  A    between atoms: C_1  and  O_2
REMARK    2  A    between atoms: O_2  and  C_3
REMARK    3  A    between atoms: C_8  and  O_9
REMARK    4  A    between atoms: O_9  and  C_10
REMARK    5  A    between atoms: N_14  and  C_15
REMARK    6  A    between atoms: C_15  and  C_16
REMARK    7  A    between atoms: C_16  and  C_17
REMARK    8  A    between atoms: C_17  and  N_18
REMARK    9  A    between atoms: N_18  and  C_19
REMARK   10  A    between atoms: N_18  and  C_20
REMARK   11  A    between atoms: C_20  and  C_21
REMARK   12  A    between atoms: C_21  and  C_22
REMARK   13  A    between atoms: C_28  and  C_29
REMARK                            x       y       z     vdW  Elec       q    Type
REMARK                         _______ _______ _______ _____ _____    ______ ____
ROOT
ATOM      1  C   UNL     1       2.484   7.162  19.257  0.00  0.00    +0.000 C 
ENDROOT
BRANCH   1  11
ATOM      2  C   UNL     1      -1.357  12.461  21.977  0.00  0.00    +0.000 A 
ATOM      3  C   UNL     1      -0.932  11.133  22.190  0.00  0.00    +0.000 A 
ATOM      4  C   UNL     1      -0.453  10.349  21.142  0.00  0.00    +0.000 A 
ATOM      5  C   UNL     1      -0.385  10.882  19.848  0.00  0.00    +0.000 A 
ATOM      6  C   UNL     1      -0.869  12.193  19.624  0.00  0.00    +0.000 A 
ATOM      7  C   UNL     1      -1.353  12.987  20.675  0.00  0.00    +0.000 A 
ATOM      8  C   UNL     1       0.020  10.014  18.677  0.00  0.00    +0.000 C 
ATOM      9  C   UNL     1       1.387   9.318  18.664  0.00  0.00    +0.000 C 
ATOM     10  O   UNL     1       2.128   9.459  17.687  0.00  0.00    +0.000 OA
ATOM     11  N   UNL     1       1.647   8.346  19.632  0.00  0.00    +0.000 N 
ATOM     12  C   UNL     1       1.395   8.616  21.048  0.00  0.00    +0.000 C 
ATOM     13  C   UNL     1      -0.066   8.915  21.412  0.00  0.00    +0.000 C 
BRANCH   2  15
ATOM     14  C   UNL     1      -3.051  12.818  23.576  0.00  0.00    +0.000 C 
ATOM     15  O   UNL     1      -1.840  13.273  22.984  0.00  0.00    +0.000 OA
ENDBRANCH   2  15
BRANCH   7  16
ATOM     16  O   UNL     1      -1.824  14.267  20.551  0.00  0.00    +0.000 OA
ATOM     17  C   UNL     1      -0.943  15.262  20.053  0.00  0.00    +0.000 C 
ENDBRANCH   7  16
ENDBRANCH   1  11
BRANCH   1  18
ATOM     18  C   UNL     1       1.900   5.759  19.511  0.00  0.00    +0.000 C 
BRANCH  18  19
ATOM     19  C   UNL     1       2.421   5.008  20.818  0.00  0.00    +0.000 C 
BRANCH  19  20
ATOM     20  N   UNL     1       1.802   3.703  21.224  0.00  0.00    +0.000 NA
ATOM     21  C   UNL     1       0.740   3.389  20.224  0.00  0.00    +0.000 C 
BRANCH  20  22
ATOM     22  C   UNL     1       2.749   2.507  21.229  0.00  0.00    +0.000 C 
BRANCH  22  23
ATOM     23  C   UNL     1       4.199   2.609  20.632  0.00  0.00    +0.000 C 
BRANCH  23  24
ATOM     24  C   UNL     1       4.286   3.151  19.171  0.00  0.00    +0.000 A 
ATOM     25  C   UNL     1       3.631   2.374  18.214  0.00  0.00    +0.000 A 
ATOM     26  S   UNL     1       3.169   3.302  16.877  0.00  0.00    +0.000 S 
ATOM     27  C   UNL     1       4.595   4.224  17.084  0.00  0.00    +0.000 A 
ATOM     28  C   UNL     1       5.270   4.843  16.024  0.00  0.00    +0.000 A 
ATOM     29  C   UNL     1       6.357   5.628  16.307  0.00  0.00    +0.000 A 
ATOM     30  C   UNL     1       6.644   5.962  17.630  0.00  0.00    +0.000 A 
ATOM     31  C   UNL     1       7.640   7.079  17.772  0.00  0.00    +0.000 C 
ATOM     32  C   UNL     1       5.958   5.303  18.716  0.00  0.00    +0.000 A 
ATOM     33  C   UNL     1       4.987   4.267  18.438  0.00  0.00    +0.000 A 
ENDBRANCH  23  24
ENDBRANCH  22  23
ENDBRANCH  20  22
ENDBRANCH  19  20
ENDBRANCH  18  19
ENDBRANCH   1  18
TORSDOF 9
ENDMDL
MODEL 2
REMARK VINA RESULT:      -7.5      6.279      9.263
REMARK  Name = 
REMARK  13 active torsions:
REMARK  status: ('A' for Active; 'I' for Inactive)
REMARK    1  A    between atoms: C_1  and  O_2
REMARK    2  A    between atoms: O_2  and  C_3
REMARK    3  A    between atoms: C_8  and  O_9
REMARK    4  A    between atoms: O_9  and  C_10
REMARK    5  A    between atoms: N_14  and  C_15
REMARK    6  A    between atoms: C_15  and  C_16
REMARK    7  A    between atoms: C_16  and  C_17
REMARK    8  A    between atoms: C_17  and  N_18
REMARK    9  A    between atoms: N_18  and  C_19
REMARK   10  A    between atoms: N_18  and  C_20
REMARK   11  A    between atoms: C_20  and  C_21
REMARK   12  A    between atoms: C_21  and  C_22
REMARK   13  A    between atoms: C_28  and  C_29
REMARK                            x       y       z     vdW  Elec       q    Type
REMARK                         _______ _______ _______ _____ _____    ______ ____
ROOT
ATOM      1  C   UNL     1       8.591   9.238  19.043  0.00  0.00    +0.000 C 
ENDROOT
BRANCH   1  11
ATOM      2  C   UNL     1      11.275  15.763  18.374  0.00  0.00    +0.000 A 
ATOM      3  C   UNL     1      10.926  14.594  17.666  0.00  0.00    +0.000 A 
ATOM      4  C   UNL     1      10.759  13.374  18.318  0.00  0.00    +0.000 A 
ATOM      5  C   UNL     1      10.937  13.296  19.706  0.00  0.00    +0.000 A 
ATOM      6  C   UNL     1      11.349  14.456  20.406  0.00  0.00    +0.000 A 
ATOM      7  C   UNL     1      11.518  15.686  19.755  0.00  0.00    +0.000 A 
ATOM      8  C   UNL     1      10.877  11.962  20.417  0.00  0.00    +0.000 C 
ATOM      9  C   UNL     1       9.611  11.101  20.344  0.00  0.00    +0.000 C 
ATOM     10  O   UNL     1       9.097  10.690  21.388  0.00  0.00    +0.000 OA
ATOM     11  N   UNL     1       9.222  10.594  19.103  0.00  0.00    +0.000 N 
ATOM     12  C   UNL     1       9.128  11.471  17.934  0.00  0.00    +0.000 C 
ATOM     13  C   UNL     1      10.441  12.141  17.507  0.00  0.00    +0.000 C 
BRANCH   2  15
ATOM     14  C   UNL     1      10.252  17.592  17.296  0.00  0.00    +0.000 C 
ATOM     15  O   UNL     1      11.452  16.991  17.769  0.00  0.00    +0.000 OA
ENDBRANCH   2  15
BRANCH   7  16
ATOM     16  O   UNL     1      11.897  16.857  20.356  0.00  0.00    +0.000 OA
ATOM     17  C   UNL     1      11.029  17.428  21.322  0.00  0.00    +0.000 C 
ENDBRANCH   7  16
ENDBRANCH   1  11
BRANCH   1  18
ATOM     18  C   UNL     1       8.059   8.750  17.682  0.00  0.00    +0.000 C 
BRANCH  18  19
ATOM     19  C   UNL     1       7.776   7.186  17.559  0.00  0.00    +0.000 C 
BRANCH  19  20
ATOM     20  N   UNL     1       6.991   6.660  16.392  0.00  0.00    +0.000 NA
ATOM     21  C   UNL     1       7.470   5.272  16.128  0.00  0.00    +0.000 C 
BRANCH  20  22
ATOM     22  C   UNL     1       5.485   6.556  16.616  0.00  0.00    +0.000 C 
BRANCH  22  23
ATOM     23  C   UNL     1       4.701   5.232  16.302  0.00  0.00    +0.000 C 
BRANCH  23  24
ATOM     24  C   UNL     1       3.919   4.614  17.503  0.00  0.00    +0.000 A 
ATOM     25  C   UNL     1       3.716   3.235  17.427  0.00  0.00    +0.000 A 
ATOM     26  S   UNL     1       3.524   2.554  18.964  0.00  0.00    +0.000 S 
ATOM     27  C   UNL     1       2.722   3.986  19.447  0.00  0.00    +0.000 A 
ATOM     28  C   UNL     1       1.722   4.013  20.427  0.00  0.00    +0.000 A 
ATOM     29  C   UNL     1       1.201   5.224  20.800  0.00  0.00    +0.000 A 
ATOM     30  C   UNL     1       1.804   6.402  20.361  0.00  0.00    +0.000 A 
ATOM     31  C   UNL     1       1.348   7.630  21.099  0.00  0.00    +0.000 C 
ATOM     32  C   UNL     1       2.818   6.366  19.334  0.00  0.00    +0.000 A 
ATOM     33  C   UNL     1       3.195   5.105  18.732  0.00  0.00    +0.000 A 
ENDBRANCH  23  24
ENDBRANCH  22  23
ENDBRANCH  20  22
ENDBRANCH  19  20
ENDBRANCH  18  19
ENDBRANCH   1  18
TORSDOF 9
ENDMDL
MODEL 3
REMARK VINA RESULT:      -7.4      1.298      1.913
REMARK  Name = 
REMARK  13 active torsions:
REMARK  status: ('A' for Active; 'I' for Inactive)
REMARK    1  A    between atoms: C_1  and  O_2
REMARK    2  A    between atoms: O_2  and  C_3
REMARK    3  A    between atoms: C_8  and  O_9
REMARK    4  A    between atoms: O_9  and  C_10
REMARK    5  A    between atoms: N_14  and  C_15
REMARK    6  A    between atoms: C_15  and  C_16
REMARK    7  A    between atoms: C_16  and  C_17
REMARK    8  A    between atoms: C_17  and  N_18
REMARK    9  A    between atoms: N_18  and  C_19
REMARK   10  A    between atoms: N_18  and  C_20
REMARK   11  A    between atoms: C_20  and  C_21
REMARK   12  A    between atoms: C_21  and  C_22
REMARK   13  A    between atoms: C_28  and  C_29
REMARK                            x       y       z     vdW  Elec       q    Type
REMARK                         _______ _______ _______ _____ _____    ______ ____
ROOT
ATOM      1  C   UNL     1       2.302   7.487  19.217  0.00  0.00    +0.000 C 
ENDROOT
BRANCH   1  11
ATOM      2  C   UNL     1      -1.601  12.475  22.399  0.00  0.00    +0.000 A 
ATOM      3  C   UNL     1      -1.125  11.152  22.514  0.00  0.00    +0.000 A 
ATOM      4  C   UNL     1      -0.662  10.449  21.403  0.00  0.00    +0.000 A 
ATOM      5  C   UNL     1      -0.663  11.061  20.142  0.00  0.00    +0.000 A 
ATOM      6  C   UNL     1      -1.199  12.365  20.017  0.00  0.00    +0.000 A 
ATOM      7  C   UNL     1      -1.666  13.077  21.131  0.00  0.00    +0.000 A 
ATOM      8  C   UNL     1      -0.277  10.279  18.906  0.00  0.00    +0.000 C 
ATOM      9  C   UNL     1       1.111   9.634  18.798  0.00  0.00    +0.000 C 
ATOM     10  O   UNL     1       1.807   9.859  17.805  0.00  0.00    +0.000 OA
ATOM     11  N   UNL     1       1.442   8.616  19.695  0.00  0.00    +0.000 N 
ATOM     12  C   UNL     1       1.238   8.792  21.134  0.00  0.00    +0.000 C 
ATOM     13  C   UNL     1      -0.216   9.017  21.570  0.00  0.00    +0.000 C 
BRANCH   2  15
ATOM     14  C   UNL     1      -3.350  12.805  23.943  0.00  0.00    +0.000 C 
ATOM     15  O   UNL     1      -2.070  13.208  23.471  0.00  0.00    +0.000 OA
ENDBRANCH   2  15
BRANCH   7  16
ATOM     16  O   UNL     1      -2.184  14.345  21.104  0.00  0.00    +0.000 OA
ATOM     17  C   UNL     1      -1.303  15.425  20.836  0.00  0.00    +0.000 C 
ENDBRANCH   7  16
ENDBRANCH   1  11
BRANCH   1  18
ATOM     18  C   UNL     1       2.202   6.142  19.961  0.00  0.00    +0.000 C 
BRANCH  18  19
ATOM     19  C   UNL     1       1.762   4.885  19.084  0.00  0.00    +0.000 C 
BRANCH  19  20
ATOM     20  N   UNL     1       1.779   3.512  19.688  0.00  0.00    +0.000 NA
ATOM     21  C   UNL     1       1.409   2.551  18.608  0.00  0.00    +0.000 C 
BRANCH  20  22
ATOM     22  C   UNL     1       3.132   3.053  20.223  0.00  0.00    +0.000 C 
BRANCH  22  23
ATOM     23  C   UNL     1       4.261   2.540  19.259  0.00  0.00    +0.000 C 
BRANCH  23  24
ATOM     24  C   UNL     1       5.116   3.652  18.574  0.00  0.00    +0.000 A 
ATOM     25  C   UNL     1       5.411   4.751  19.384  0.00  0.00    +0.000 A 
ATOM     26  S   UNL     1       6.829   5.524  18.881  0.00  0.00    +0.000 S 
ATOM     27  C   UNL     1       6.408   5.144  17.267  0.00  0.00    +0.000 A 
ATOM     28  C   UNL     1       6.771   5.937  16.171  0.00  0.00    +0.000 A 
ATOM     29  C   UNL     1       6.455   5.500  14.911  0.00  0.00    +0.000 A 
ATOM     30  C   UNL     1       5.975   4.204  14.728  0.00  0.00    +0.000 A 
ATOM     31  C   UNL     1       5.988   3.748  13.295  0.00  0.00    +0.000 C 
ATOM     32  C   UNL     1       5.582   3.402  15.863  0.00  0.00    +0.000 A 
ATOM     33  C   UNL     1       5.658   3.952  17.199  0.00  0.00    +0.000 A 
ENDBRANCH  23  24
ENDBRANCH  22  23
ENDBRANCH  20  22
ENDBRANCH  19  20
ENDBRANCH  18  19
ENDBRANCH   1  18
TORSDOF 9
ENDMDL
MODEL 4
REMARK VINA RESULT:      -7.3      2.590      4.399
REMARK  Name = 
REMARK  13 active torsions:
REMARK  status: ('A' for Active; 'I' for Inactive)
REMARK    1  A    between atoms: C_1  and  O_2
REMARK    2  A    between atoms: O_2  and  C_3
REMARK    3  A    between atoms: C_8  and  O_9
REMARK    4  A    between atoms: O_9  and  C_10
REMARK    5  A    between atoms: N_14  and  C_15
REMARK    6  A    between atoms: C_15  and  C_16
REMARK    7  A    between atoms: C_16  and  C_17
REMARK    8  A    between atoms: C_17  and  N_18
REMARK    9  A    between atoms: N_18  and  C_19
REMARK   10  A    between atoms: N_18  and  C_20
REMARK   11  A    between atoms: C_20  and  C_21
REMARK   12  A    between atoms: C_21  and  C_22
REMARK   13  A    between atoms: C_28  and  C_29
REMARK                            x       y       z     vdW  Elec       q    Type
REMARK                         _______ _______ _______ _____ _____    ______ ____
ROOT
ATOM      1  C   UNL     1       0.897  10.302  20.996  0.00  0.00    +0.000 C 
ENDROOT
BRANCH   1  11
ATOM      2  C   UNL     1      -5.474  13.400  21.185  0.00  0.00    +0.000 A 
ATOM      3  C   UNL     1      -4.326  13.199  20.391  0.00  0.00    +0.000 A 
ATOM      4  C   UNL     1      -3.116  12.796  20.955  0.00  0.00    +0.000 A 
ATOM      5  C   UNL     1      -3.030  12.581  22.337  0.00  0.00    +0.000 A 
ATOM      6  C   UNL     1      -4.166  12.843  23.140  0.00  0.00    +0.000 A 
ATOM      7  C   UNL     1      -5.385  13.248  22.578  0.00  0.00    +0.000 A 
ATOM      8  C   UNL     1      -1.702  12.258  22.985  0.00  0.00    +0.000 C 
ATOM      9  C   UNL     1      -0.909  11.018  22.553  0.00  0.00    +0.000 C 
ATOM     10  O   UNL     1      -0.527  10.216  23.410  0.00  0.00    +0.000 OA
ATOM     11  N   UNL     1      -0.423  10.962  21.246  0.00  0.00    +0.000 N 
ATOM     12  C   UNL     1      -1.303  11.239  20.109  0.00  0.00    +0.000 C 
ATOM     13  C   UNL     1      -1.902  12.652  20.070  0.00  0.00    +0.000 C 
BRANCH   2  15
ATOM     14  C   UNL     1      -7.365  12.803  19.910  0.00  0.00    +0.000 C 
ATOM     15  O   UNL     1      -6.691  13.800  20.670  0.00  0.00    +0.000 OA
ENDBRANCH   2  15
BRANCH   7  16
ATOM     16  O   UNL     1      -6.535  13.507  23.277  0.00  0.00    +0.000 OA
ATOM     17  C   UNL     1      -7.150  12.438  23.979  0.00  0.00    +0.000 C 
ENDBRANCH   7  16
ENDBRANCH   1  11
BRANCH   1  18
ATOM     18  C   UNL     1       0.959   9.199  19.922  0.00  0.00    +0.000 C 
BRANCH  18  19
ATOM     19  C   UNL     1       1.773   7.885  20.314  0.00  0.00    +0.000 C 
BRANCH  19  20
ATOM     20  N   UNL     1       2.149   6.896  19.248  0.00  0.00    +0.000 NA
ATOM     21  C   UNL     1       2.759   7.668  18.127  0.00  0.00    +0.000 C 
BRANCH  20  22
ATOM     22  C   UNL     1       3.186   5.856  19.663  0.00  0.00    +0.000 C 
BRANCH  22  23
ATOM     23  C   UNL     1       3.562   4.656  18.721  0.00  0.00    +0.000 C 
BRANCH  23  24
ATOM     24  C   UNL     1       4.915   4.803  17.956  0.00  0.00    +0.000 A 
ATOM     25  C   UNL     1       5.903   5.517  18.637  0.00  0.00    +0.000 A 
ATOM     26  S   UNL     1       7.451   5.063  18.130  0.00  0.00    +0.000 S 
ATOM     27  C   UNL     1       6.822   4.847  16.555  0.00  0.00    +0.000 A 
ATOM     28  C   UNL     1       7.581   5.034  15.392  0.00  0.00    +0.000 A 
ATOM     29  C   UNL     1       7.005   4.754  14.181  0.00  0.00    +0.000 A 
ATOM     30  C   UNL     1       5.773   4.105  14.133  0.00  0.00    +0.000 A 
ATOM     31  C   UNL     1       5.420   3.567  12.774  0.00  0.00    +0.000 C 
ATOM     32  C   UNL     1       4.987   3.937  15.333  0.00  0.00    +0.000 A 
ATOM     33  C   UNL     1       5.464   4.470  16.591  0.00  0.00    +0.000 A 
ENDBRANCH  23  24
ENDBRANCH  22  23
ENDBRANCH  20  22
ENDBRANCH  19  20
ENDBRANCH  18  19
ENDBRANCH   1  18
TORSDOF 9
ENDMDL
MODEL 5
REMARK VINA RESULT:      -7.3      1.545      2.339
REMARK  Name = 
REMARK  13 active torsions:
REMARK  status: ('A' for Active; 'I' for Inactive)
REMARK    1  A    between atoms: C_1  and  O_2
REMARK    2  A    between atoms: O_2  and  C_3
REMARK    3  A    between atoms: C_8  and  O_9
REMARK    4  A    between atoms: O_9  and  C_10
REMARK    5  A    between atoms: N_14  and  C_15
REMARK    6  A    between atoms: C_15  and  C_16
REMARK    7  A    between atoms: C_16  and  C_17
REMARK    8  A    between atoms: C_17  and  N_18
REMARK    9  A    between atoms: N_18  and  C_19
REMARK   10  A    between atoms: N_18  and  C_20
REMARK   11  A    between atoms: C_20  and  C_21
REMARK   12  A    between atoms: C_21  and  C_22
REMARK   13  A    between atoms: C_28  and  C_29
REMARK                            x       y       z     vdW  Elec       q    Type
REMARK                         _______ _______ _______ _____ _____    ______ ____
ROOT
ATOM      1  C   UNL     1       2.764   7.305  18.860  0.00  0.00    +0.000 C 
ENDROOT
BRANCH   1  11
ATOM      2  C   UNL     1      -1.386  11.909  22.296  0.00  0.00    +0.000 A 
ATOM      3  C   UNL     1      -0.818  10.620  22.356  0.00  0.00    +0.000 A 
ATOM      4  C   UNL     1      -0.337   9.985  21.211  0.00  0.00    +0.000 A 
ATOM      5  C   UNL     1      -0.412  10.635  19.972  0.00  0.00    +0.000 A 
ATOM      6  C   UNL     1      -1.040  11.902  19.903  0.00  0.00    +0.000 A 
ATOM      7  C   UNL     1      -1.525  12.545  21.051  0.00  0.00    +0.000 A 
ATOM      8  C   UNL     1      -0.006   9.921  18.702  0.00  0.00    +0.000 C 
ATOM      9  C   UNL     1       1.419   9.377  18.541  0.00  0.00    +0.000 C 
ATOM     10  O   UNL     1       2.073   9.681  17.539  0.00  0.00    +0.000 OA
ATOM     11  N   UNL     1       1.842   8.357  19.394  0.00  0.00    +0.000 N 
ATOM     12  C   UNL     1       1.664   8.472  20.843  0.00  0.00    +0.000 C 
ATOM     13  C   UNL     1       0.209   8.583  21.320  0.00  0.00    +0.000 C 
BRANCH   2  15
ATOM     14  C   UNL     1      -3.163  12.139  23.827  0.00  0.00    +0.000 C 
ATOM     15  O   UNL     1      -1.876  12.573  23.402  0.00  0.00    +0.000 OA
ENDBRANCH   2  15
BRANCH   7  16
ATOM     16  O   UNL     1      -2.129  13.774  21.078  0.00  0.00    +0.000 OA
ATOM     17  C   UNL     1      -3.470  13.874  20.624  0.00  0.00    +0.000 C 
ENDBRANCH   7  16
ENDBRANCH   1  11
BRANCH   1  18
ATOM     18  C   UNL     1       2.166   5.925  18.525  0.00  0.00    +0.000 C 
BRANCH  18  19
ATOM     19  C   UNL     1       1.574   5.100  19.754  0.00  0.00    +0.000 C 
BRANCH  19  20
ATOM     20  N   UNL     1       2.447   4.124  20.487  0.00  0.00    +0.000 NA
ATOM     21  C   UNL     1       1.680   2.850  20.607  0.00  0.00    +0.000 C 
BRANCH  20  22
ATOM     22  C   UNL     1       3.756   3.769  19.786  0.00  0.00    +0.000 C 
BRANCH  22  23
ATOM     23  C   UNL     1       3.807   3.494  18.240  0.00  0.00    +0.000 C 
BRANCH  23  24
ATOM     24  C   UNL     1       5.049   4.076  17.496  0.00  0.00    +0.000 A 
ATOM     25  C   UNL     1       5.778   5.024  18.218  0.00  0.00    +0.000 A 
ATOM     26  S   UNL     1       7.390   5.082  17.707  0.00  0.00    +0.000 S 
ATOM     27  C   UNL     1       6.848   4.758  16.117  0.00  0.00    +0.000 A 
ATOM     28  C   UNL     1       7.510   5.217  14.971  0.00  0.00    +0.000 A 
ATOM     29  C   UNL     1       7.041   4.832  13.743  0.00  0.00    +0.000 A 
ATOM     30  C   UNL     1       6.062   3.845  13.655  0.00  0.00    +0.000 A 
ATOM     31  C   UNL     1       5.882   3.289  12.269  0.00  0.00    +0.000 C 
ATOM     32  C   UNL     1       5.369   3.393  14.838  0.00  0.00    +0.000 A 
ATOM     33  C   UNL     1       5.668   3.987  16.123  0.00  0.00    +0.000 A 
ENDBRANCH  23  24
ENDBRANCH  22  23
ENDBRANCH  20  22
ENDBRANCH  19  20
ENDBRANCH  18  19
ENDBRANCH   1  18
TORSDOF 9
ENDMDL
MODEL 6
REMARK VINA RESULT:      -7.2      6.217      9.308
REMARK  Name = 
REMARK  13 active torsions:
REMARK  status: ('A' for Active; 'I' for Inactive)
REMARK    1  A    between atoms: C_1  and  O_2
REMARK    2  A    between atoms: O_2  and  C_3
REMARK    3  A    between atoms: C_8  and  O_9
REMARK    4  A    between atoms: O_9  and  C_10
REMARK    5  A    between atoms: N_14  and  C_15
REMARK    6  A    between atoms: C_15  and  C_16
REMARK    7  A    between atoms: C_16  and  C_17
REMARK    8  A    between atoms: C_17  and  N_18
REMARK    9  A    between atoms: N_18  and  C_19
REMARK   10  A    between atoms: N_18  and  C_20
REMARK   11  A    between atoms: C_20  and  C_21
REMARK   12  A    between atoms: C_21  and  C_22
REMARK   13  A    between atoms: C_28  and  C_29
REMARK                            x       y       z     vdW  Elec       q    Type
REMARK                         _______ _______ _______ _____ _____    ______ ____
ROOT
ATOM      1  C   UNL     1       8.584   9.073  18.992  0.00  0.00    +0.000 C 
ENDROOT
BRANCH   1  11
ATOM      2  C   UNL     1      11.440  15.533  18.410  0.00  0.00    +0.000 A 
ATOM      3  C   UNL     1      11.155  14.343  17.708  0.00  0.00    +0.000 A 
ATOM      4  C   UNL     1      10.892  13.150  18.380  0.00  0.00    +0.000 A 
ATOM      5  C   UNL     1      10.906  13.122  19.780  0.00  0.00    +0.000 A 
ATOM      6  C   UNL     1      11.254  14.301  20.483  0.00  0.00    +0.000 A 
ATOM      7  C   UNL     1      11.519  15.504  19.812  0.00  0.00    +0.000 A 
ATOM      8  C   UNL     1      10.741  11.817  20.527  0.00  0.00    +0.000 C 
ATOM      9  C   UNL     1       9.477  10.969  20.336  0.00  0.00    +0.000 C 
ATOM     10  O   UNL     1       8.838  10.605  21.327  0.00  0.00    +0.000 OA
ATOM     11  N   UNL     1       9.227  10.422  19.077  0.00  0.00    +0.000 N 
ATOM     12  C   UNL     1       9.285  11.256  17.875  0.00  0.00    +0.000 C 
ATOM     13  C   UNL     1      10.650  11.893  17.581  0.00  0.00    +0.000 C 
BRANCH   2  15
ATOM     14  C   UNL     1      10.600  17.296  17.091  0.00  0.00    +0.000 C 
ATOM     15  O   UNL     1      11.707  16.735  17.787  0.00  0.00    +0.000 OA
ENDBRANCH   2  15
BRANCH   7  16
ATOM     16  O   UNL     1      11.846  16.692  20.411  0.00  0.00    +0.000 OA
ATOM     17  C   UNL     1      11.299  16.973  21.690  0.00  0.00    +0.000 C 
ENDBRANCH   7  16
ENDBRANCH   1  11
BRANCH   1  18
ATOM     18  C   UNL     1       7.949   8.660  17.650  0.00  0.00    +0.000 C 
BRANCH  18  19
ATOM     19  C   UNL     1       6.992   7.386  17.689  0.00  0.00    +0.000 C 
BRANCH  19  20
ATOM     20  N   UNL     1       6.961   6.442  16.522  0.00  0.00    +0.000 NA
ATOM     21  C   UNL     1       7.458   5.122  17.010  0.00  0.00    +0.000 C 
BRANCH  20  22
ATOM     22  C   UNL     1       5.579   6.184  15.930  0.00  0.00    +0.000 C 
BRANCH  22  23
ATOM     23  C   UNL     1       4.625   5.088  16.526  0.00  0.00    +0.000 C 
BRANCH  23  24
ATOM     24  C   UNL     1       3.781   5.532  17.762  0.00  0.00    +0.000 A 
ATOM     25  C   UNL     1       3.391   4.495  18.612  0.00  0.00    +0.000 A 
ATOM     26  S   UNL     1       3.128   5.054  20.187  0.00  0.00    +0.000 S 
ATOM     27  C   UNL     1       2.536   6.514  19.519  0.00  0.00    +0.000 A 
ATOM     28  C   UNL     1       1.562   7.304  20.143  0.00  0.00    +0.000 A 
ATOM     29  C   UNL     1       1.216   8.497  19.565  0.00  0.00    +0.000 A 
ATOM     30  C   UNL     1       1.969   8.996  18.504  0.00  0.00    +0.000 A 
ATOM     31  C   UNL     1       1.695  10.441  18.190  0.00  0.00    +0.000 C 
ATOM     32  C   UNL     1       2.955   8.167  17.852  0.00  0.00    +0.000 A 
ATOM     33  C   UNL     1       3.148   6.798  18.282  0.00  0.00    +0.000 A 
ENDBRANCH  23  24
ENDBRANCH  22  23
ENDBRANCH  20  22
ENDBRANCH  19  20
ENDBRANCH  18  19
ENDBRANCH   1  18
TORSDOF 9
ENDMDL
MODEL 7
REMARK VINA RESULT:      -7.1      4.261     10.781
REMARK  Name = 
REMARK  13 active torsions:
REMARK  status: ('A' for Active; 'I' for Inactive)
REMARK    1  A    between atoms: C_1  and  O_2
REMARK    2  A    between atoms: O_2  and  C_3
REMARK    3  A    between atoms: C_8  and  O_9
REMARK    4  A    between atoms: O_9  and  C_10
REMARK    5  A    between atoms: N_14  and  C_15
REMARK    6  A    between atoms: C_15  and  C_16
REMARK    7  A    between atoms: C_16  and  C_17
REMARK    8  A    between atoms: C_17  and  N_18
REMARK    9  A    between atoms: N_18  and  C_19
REMARK   10  A    between atoms: N_18  and  C_20
REMARK   11  A    between atoms: C_20  and  C_21
REMARK   12  A    between atoms: C_21  and  C_22
REMARK   13  A    between atoms: C_28  and  C_29
REMARK                            x       y       z     vdW  Elec       q    Type
REMARK                         _______ _______ _______ _____ _____    ______ ____
ROOT
ATOM      1  C   UNL     1      -0.825  11.288  20.475  0.00  0.00    +0.000 C 
ENDROOT
BRANCH   1  11
ATOM      2  C   UNL     1       2.557   5.111  19.682  0.00  0.00    +0.000 A 
ATOM      3  C   UNL     1       2.092   6.044  20.632  0.00  0.00    +0.000 A 
ATOM      4  C   UNL     1       1.786   7.355  20.271  0.00  0.00    +0.000 A 
ATOM      5  C   UNL     1       1.937   7.764  18.939  0.00  0.00    +0.000 A 
ATOM      6  C   UNL     1       2.463   6.844  17.999  0.00  0.00    +0.000 A 
ATOM      7  C   UNL     1       2.773   5.525  18.357  0.00  0.00    +0.000 A 
ATOM      8  C   UNL     1       1.725   9.209  18.547  0.00  0.00    +0.000 C 
ATOM      9  C   UNL     1       0.373   9.890  18.799  0.00  0.00    +0.000 C 
ATOM     10  O   UNL     1      -0.195  10.468  17.869  0.00  0.00    +0.000 OA
ATOM     11  N   UNL     1      -0.052  10.057  20.118  0.00  0.00    +0.000 N 
ATOM     12  C   UNL     1      -0.036   8.934  21.057  0.00  0.00    +0.000 C 
ATOM     13  C   UNL     1       1.348   8.330  21.337  0.00  0.00    +0.000 C 
BRANCH   2  15
ATOM     14  C   UNL     1       1.783   3.038  20.492  0.00  0.00    +0.000 C 
ATOM     15  O   UNL     1       2.874   3.804  19.995  0.00  0.00    +0.000 OA
ENDBRANCH   2  15
BRANCH   7  16
ATOM     16  O   UNL     1       3.269   4.567  17.512  0.00  0.00    +0.000 OA
ATOM     17  C   UNL     1       4.565   4.759  16.967  0.00  0.00    +0.000 C 
ENDBRANCH   7  16
ENDBRANCH   1  11
BRANCH   1  18
ATOM     18  C   UNL     1      -0.943  11.657  21.967  0.00  0.00    +0.000 C 
BRANCH  18  19
ATOM     19  C   UNL     1      -0.443  13.116  22.370  0.00  0.00    +0.000 C 
BRANCH  19  20
ATOM     20  N   UNL     1      -1.067  13.820  23.541  0.00  0.00    +0.000 NA
ATOM     21  C   UNL     1      -0.920  15.285  23.303  0.00  0.00    +0.000 C 
BRANCH  20  22
ATOM     22  C   UNL     1      -2.559  13.567  23.732  0.00  0.00    +0.000 C 
BRANCH  22  23
ATOM     23  C   UNL     1      -3.626  14.195  22.766  0.00  0.00    +0.000 C 
BRANCH  23  24
ATOM     24  C   UNL     1      -5.002  13.460  22.716  0.00  0.00    +0.000 A 
ATOM     25  C   UNL     1      -5.625  13.291  23.955  0.00  0.00    +0.000 A 
ATOM     26  S   UNL     1      -7.303  13.157  23.788  0.00  0.00    +0.000 S 
ATOM     27  C   UNL     1      -7.043  12.331  22.313  0.00  0.00    +0.000 A 
ATOM     28  C   UNL     1      -7.917  11.356  21.814  0.00  0.00    +0.000 A 
ATOM     29  C   UNL     1      -7.661  10.814  20.582  0.00  0.00    +0.000 A 
ATOM     30  C   UNL     1      -6.677  11.375  19.770  0.00  0.00    +0.000 A 
ATOM     31  C   UNL     1      -6.728  10.906  18.342  0.00  0.00    +0.000 C 
ATOM     32  C   UNL     1      -5.767  12.363  20.299  0.00  0.00    +0.000 A 
ATOM     33  C   UNL     1      -5.853  12.756  21.689  0.00  0.00    +0.000 A 
ENDBRANCH  23  24
ENDBRANCH  22  23
ENDBRANCH  20  22
ENDBRANCH  19  20
ENDBRANCH  18  19
ENDBRANCH   1  18
TORSDOF 9
ENDMDL
MODEL 8
REMARK VINA RESULT:      -7.0      3.854      9.919
REMARK  Name = 
REMARK  13 active torsions:
REMARK  status: ('A' for Active; 'I' for Inactive)
REMARK    1  A    between atoms: C_1  and  O_2
REMARK    2  A    between atoms: O_2  and  C_3
REMARK    3  A    between atoms: C_8  and  O_9
REMARK    4  A    between atoms: O_9  and  C_10
REMARK    5  A    between atoms: N_14  and  C_15
REMARK    6  A    between atoms: C_15  and  C_16
REMARK    7  A    between atoms: C_16  and  C_17
REMARK    8  A    between atoms: C_17  and  N_18
REMARK    9  A    between atoms: N_18  and  C_19
REMARK   10  A    between atoms: N_18  and  C_20
REMARK   11  A    between atoms: C_20  and  C_21
REMARK   12  A    between atoms: C_21  and  C_22
REMARK   13  A    between atoms: C_28  and  C_29
REMARK                            x       y       z     vdW  Elec       q    Type
REMARK                         _______ _______ _______ _____ _____    ______ ____
ROOT
ATOM      1  C   UNL     1       0.505  11.022  19.865  0.00  0.00    +0.000 C 
ENDROOT
BRANCH   1  11
ATOM      2  C   UNL     1       2.214   4.145  19.797  0.00  0.00    +0.000 A 
ATOM      3  C   UNL     1       1.861   5.225  20.633  0.00  0.00    +0.000 A 
ATOM      4  C   UNL     1       1.978   6.545  20.200  0.00  0.00    +0.000 A 
ATOM      5  C   UNL     1       2.452   6.814  18.909  0.00  0.00    +0.000 A 
ATOM      6  C   UNL     1       2.866   5.733  18.095  0.00  0.00    +0.000 A 
ATOM      7  C   UNL     1       2.750   4.403  18.525  0.00  0.00    +0.000 A 
ATOM      8  C   UNL     1       2.698   8.238  18.460  0.00  0.00    +0.000 C 
ATOM      9  C   UNL     1       1.553   9.258  18.455  0.00  0.00    +0.000 C 
ATOM     10  O   UNL     1       1.322   9.902  17.428  0.00  0.00    +0.000 OA
ATOM     11  N   UNL     1       0.973   9.613  19.673  0.00  0.00    +0.000 N 
ATOM     12  C   UNL     1       0.534   8.586  20.620  0.00  0.00    +0.000 C 
ATOM     13  C   UNL     1       1.641   7.666  21.153  0.00  0.00    +0.000 C 
BRANCH   2  15
ATOM     14  C   UNL     1       2.042   2.628  21.592  0.00  0.00    +0.000 C 
ATOM     15  O   UNL     1       2.117   2.823  20.185  0.00  0.00    +0.000 OA
ENDBRANCH   2  15
BRANCH   7  16
ATOM     16  O   UNL     1       3.110   3.298  17.799  0.00  0.00    +0.000 OA
ATOM     17  C   UNL     1       4.026   3.468  16.728  0.00  0.00    +0.000 C 
ENDBRANCH   7  16
ENDBRANCH   1  11
BRANCH   1  18
ATOM     18  C   UNL     1       0.105  11.461  21.287  0.00  0.00    +0.000 C 
BRANCH  18  19
ATOM     19  C   UNL     1      -0.325  12.987  21.456  0.00  0.00    +0.000 C 
BRANCH  19  20
ATOM     20  N   UNL     1      -1.252  13.381  22.569  0.00  0.00    +0.000 NA
ATOM     21  C   UNL     1      -1.798  14.728  22.231  0.00  0.00    +0.000 C 
BRANCH  20  22
ATOM     22  C   UNL     1      -2.459  12.469  22.764  0.00  0.00    +0.000 C 
BRANCH  22  23
ATOM     23  C   UNL     1      -3.926  13.027  22.699  0.00  0.00    +0.000 C 
BRANCH  23  24
ATOM     24  C   UNL     1      -4.667  12.810  21.343  0.00  0.00    +0.000 A 
ATOM     25  C   UNL     1      -6.060  12.880  21.416  0.00  0.00    +0.000 A 
ATOM     26  S   UNL     1      -6.733  13.330  19.930  0.00  0.00    +0.000 S 
ATOM     27  C   UNL     1      -5.490  12.447  19.153  0.00  0.00    +0.000 A 
ATOM     28  C   UNL     1      -5.651  11.827  17.908  0.00  0.00    +0.000 A 
ATOM     29  C   UNL     1      -4.568  11.215  17.334  0.00  0.00    +0.000 A 
ATOM     30  C   UNL     1      -3.300  11.393  17.885  0.00  0.00    +0.000 A 
ATOM     31  C   UNL     1      -2.179  10.954  16.985  0.00  0.00    +0.000 C 
ATOM     32  C   UNL     1      -3.145  12.014  19.180  0.00  0.00    +0.000 A 
ATOM     33  C   UNL     1      -4.312  12.430  19.928  0.00  0.00    +0.000 A 
ENDBRANCH  23  24
ENDBRANCH  22  23
ENDBRANCH  20  22
ENDBRANCH  19  20
ENDBRANCH  18  19
ENDBRANCH   1  18
TORSDOF 9
ENDMDL
MODEL 9
REMARK VINA RESULT:      -6.9      1.953      2.683
REMARK  Name = 
REMARK  13 active torsions:
REMARK  status: ('A' for Active; 'I' for Inactive)
REMARK    1  A    between atoms: C_1  and  O_2
REMARK    2  A    between atoms: O_2  and  C_3
REMARK    3  A    between atoms: C_8  and  O_9
REMARK    4  A    between atoms: O_9  and  C_10
REMARK    5  A    between atoms: N_14  and  C_15
REMARK    6  A    between atoms: C_15  and  C_16
REMARK    7  A    between atoms: C_16  and  C_17
REMARK    8  A    between atoms: C_17  and  N_18
REMARK    9  A    between atoms: N_18  and  C_19
REMARK   10  A    between atoms: N_18  and  C_20
REMARK   11  A    between atoms: C_20  and  C_21
REMARK   12  A    between atoms: C_21  and  C_22
REMARK   13  A    between atoms: C_28  and  C_29
REMARK                            x       y       z     vdW  Elec       q    Type
REMARK                         _______ _______ _______ _____ _____    ______ ____
ROOT
ATOM      1  C   UNL     1       1.774   6.030  20.778  0.00  0.00    +0.000 C 
ENDROOT
BRANCH   1  11
ATOM      2  C   UNL     1       0.701  13.031  20.513  0.00  0.00    +0.000 A 
ATOM      3  C   UNL     1       0.352  11.848  21.197  0.00  0.00    +0.000 A 
ATOM      4  C   UNL     1       0.554  10.593  20.624  0.00  0.00    +0.000 A 
ATOM      5  C   UNL     1       1.116  10.494  19.344  0.00  0.00    +0.000 A 
ATOM      6  C   UNL     1       1.407  11.683  18.634  0.00  0.00    +0.000 A 
ATOM      7  C   UNL     1       1.207  12.948  19.205  0.00  0.00    +0.000 A 
ATOM      8  C   UNL     1       1.234   9.152  18.656  0.00  0.00    +0.000 C 
ATOM      9  C   UNL     1       2.041   8.018  19.302  0.00  0.00    +0.000 C 
ATOM     10  O   UNL     1       2.916   7.448  18.645  0.00  0.00    +0.000 OA
ATOM     11  N   UNL     1       1.595   7.494  20.516  0.00  0.00    +0.000 N 
ATOM     12  C   UNL     1       1.260   8.377  21.634  0.00  0.00    +0.000 C 
ATOM     13  C   UNL     1       0.110   9.360  21.374  0.00  0.00    +0.000 C 
BRANCH   2  15
ATOM     14  C   UNL     1      -0.833  14.741  21.039  0.00  0.00    +0.000 C 
ATOM     15  O   UNL     1       0.518  14.293  21.041  0.00  0.00    +0.000 OA
ENDBRANCH   2  15
BRANCH   7  16
ATOM     16  O   UNL     1       1.476  14.146  18.598  0.00  0.00    +0.000 OA
ATOM     17  C   UNL     1       2.745  14.319  17.986  0.00  0.00    +0.000 C 
ENDBRANCH   7  16
ENDBRANCH   1  11
BRANCH   1  18
ATOM     18  C   UNL     1       1.180   5.039  19.760  0.00  0.00    +0.000 C 
BRANCH  18  19
ATOM     19  C   UNL     1       0.966   3.546  20.277  0.00  0.00    +0.000 C 
BRANCH  19  20
ATOM     20  N   UNL     1       1.684   2.413  19.603  0.00  0.00    +0.000 NA
ATOM     21  C   UNL     1       0.748   1.834  18.596  0.00  0.00    +0.000 C 
BRANCH  20  22
ATOM     22  C   UNL     1       2.944   2.806  18.838  0.00  0.00    +0.000 C 
BRANCH  22  23
ATOM     23  C   UNL     1       4.264   3.212  19.587  0.00  0.00    +0.000 C 
BRANCH  23  24
ATOM     24  C   UNL     1       5.247   4.113  18.775  0.00  0.00    +0.000 A 
ATOM     25  C   UNL     1       5.774   5.195  19.483  0.00  0.00    +0.000 A 
ATOM     26  S   UNL     1       7.267   5.677  18.849  0.00  0.00    +0.000 S 
ATOM     27  C   UNL     1       6.684   5.270  17.293  0.00  0.00    +0.000 A 
ATOM     28  C   UNL     1       7.104   5.915  16.123  0.00  0.00    +0.000 A 
ATOM     29  C   UNL     1       6.639   5.457  14.918  0.00  0.00    +0.000 A 
ATOM     30  C   UNL     1       5.936   4.254  14.859  0.00  0.00    +0.000 A 
ATOM     31  C   UNL     1       5.780   3.710  13.466  0.00  0.00    +0.000 C 
ATOM     32  C   UNL     1       5.489   3.608  16.070  0.00  0.00    +0.000 A 
ATOM     33  C   UNL     1       5.742   4.223  17.356  0.00  0.00    +0.000 A 
ENDBRANCH  23  24
ENDBRANCH  22  23
ENDBRANCH  20  22
ENDBRANCH  19  20
ENDBRANCH  18  19
ENDBRANCH   1  18
TORSDOF 9
ENDMDL
