MODEL 1
REMARK VINA RESULT:      -8.1      0.000      0.000
REMARK  Name = 
REMARK  5 active torsions:
REMARK  status: ('A' for Active; 'I' for Inactive)
REMARK    1  A    between atoms: C_2  and  O_3
REMARK    2  A    between atoms: C_2  and  C_4
REMARK    3  A    between atoms: C_4  and  C_5
REMARK    4  A    between atoms: N_9  and  C_10
REMARK    5  A    between atoms: C_12  and  C_13
REMARK                            x       y       z     vdW  Elec       q    Type
REMARK                         _______ _______ _______ _____ _____    ______ ____
ROOT
ATOM      1  C   UNL     1       5.143   4.176  16.826  0.00  0.00    +0.000 A 
ATOM      2  N   UNL     1       5.315   3.578  15.607  0.00  0.00    +0.000 NA
ATOM      3  C   UNL     1       6.232   4.028  14.713  0.00  0.00    +0.000 A 
ATOM      4  N   UNL     1       7.071   5.056  14.924  0.00  0.00    +0.000 NA
ATOM      5  C   UNL     1       6.916   5.615  16.129  0.00  0.00    +0.000 A 
ATOM      6  N   UNL     1       7.695   6.641  16.587  0.00  0.00    +0.000 N 
ATOM      7  C   UNL     1       7.315   6.977  17.855  0.00  0.00    +0.000 A 
ATOM      8  C   UNL     1       6.259   6.162  18.195  0.00  0.00    +0.000 A 
ATOM      9  C   UNL     1       6.003   5.269  17.110  0.00  0.00    +0.000 A 
ATOM     10  H   UNL     1       8.446   7.054  16.053  0.00  0.00    +0.000 HD
ENDROOT
BRANCH   1  15
ATOM     11  C   UNL     1       2.562   4.583  19.930  0.00  0.00    +0.000 C 
ATOM     12  C   UNL     1       1.436   4.141  18.969  0.00  0.00    +0.000 C 
ATOM     13  C   UNL     1       1.806   3.945  17.502  0.00  0.00    +0.000 C 
ATOM     14  C   UNL     1       2.995   3.019  17.244  0.00  0.00    +0.000 C 
ATOM     15  N   UNL     1       4.226   3.630  17.720  0.00  0.00    +0.000 N 
ATOM     16  C   UNL     1       4.687   3.295  19.066  0.00  0.00    +0.000 C 
ATOM     17  C   UNL     1       3.573   3.425  20.120  0.00  0.00    +0.000 C 
BRANCH  11  18
ATOM     18  C   UNL     1       3.272   5.910  19.592  0.00  0.00    +0.000 C 
BRANCH  18  20
ATOM     19  O   UNL     1       2.197   7.865  18.613  0.00  0.00    +0.000 OA
ATOM     20  C   UNL     1       2.405   7.150  19.577  0.00  0.00    +0.000 C 
BRANCH  20  21
ATOM     21  O   UNL     1       1.858   7.382  20.793  0.00  0.00    +0.000 OA
ATOM     22  H   UNL     1       1.674   6.570  21.303  0.00  0.00    +0.000 HD
ENDBRANCH  20  21
ENDBRANCH  18  20
ENDBRANCH  11  18
ENDBRANCH   1  15
BRANCH   3  23
ATOM     23  C   UNL     1       6.345   3.328  13.375  0.00  0.00    +0.000 C 
ATOM     24  C   UNL     1       5.339   3.656  12.290  0.00  0.00    +0.000 C 
ATOM     25  C   UNL     1       6.770   4.069  12.130  0.00  0.00    +0.000 C 
ENDBRANCH   3  23
TORSDOF 5
ENDMDL
MODEL 2
REMARK VINA RESULT:      -8.0      2.285      2.950
REMARK  Name = 
REMARK  5 active torsions:
REMARK  status: ('A' for Active; 'I' for Inactive)
REMARK    1  A    between atoms: C_2  and  O_3
REMARK    2  A    between atoms: C_2  and  C_4
REMARK    3  A    between atoms: C_4  and  C_5
REMARK    4  A    between atoms: N_9  and  C_10
REMARK    5  A    between atoms: C_12  and  C_13
REMARK                            x       y       z     vdW  Elec       q    Type
REMARK                         _______ _______ _______ _____ _____    ______ ____
ROOT
ATOM      1  C   UNL     1       4.676   4.816  16.530  0.00  0.00    +0.000 A 
ATOM      2  N   UNL     1       4.871   4.042  15.418  0.00  0.00    +0.000 NA
ATOM      3  C   UNL     1       5.969   4.186  14.633  0.00  0.00    +0.000 A 
ATOM      4  N   UNL     1       6.972   5.049  14.863  0.00  0.00    +0.000 NA
ATOM      5  C   UNL     1       6.786   5.779  15.967  0.00  0.00    +0.000 A 
ATOM      6  N   UNL     1       7.699   6.686  16.432  0.00  0.00    +0.000 N 
ATOM      7  C   UNL     1       7.239   7.251  17.587  0.00  0.00    +0.000 A 
ATOM      8  C   UNL     1       6.000   6.708  17.844  0.00  0.00    +0.000 A 
ATOM      9  C   UNL     1       5.702   5.748  16.828  0.00  0.00    +0.000 A 
ATOM     10  H   UNL     1       8.581   6.872  15.980  0.00  0.00    +0.000 HD
ENDROOT
BRANCH   1  15
ATOM     11  C   UNL     1       2.981   3.271  19.877  0.00  0.00    +0.000 C 
ATOM     12  C   UNL     1       2.580   4.712  20.263  0.00  0.00    +0.000 C 
ATOM     13  C   UNL     1       3.089   5.841  19.373  0.00  0.00    +0.000 C 
ATOM     14  C   UNL     1       2.792   5.685  17.881  0.00  0.00    +0.000 C 
ATOM     15  N   UNL     1       3.557   4.580  17.325  0.00  0.00    +0.000 N 
ATOM     16  C   UNL     1       2.917   3.268  17.247  0.00  0.00    +0.000 C 
ATOM     17  C   UNL     1       2.254   2.856  18.573  0.00  0.00    +0.000 C 
BRANCH  11  18
ATOM     18  C   UNL     1       4.493   2.973  19.806  0.00  0.00    +0.000 C 
BRANCH  18  20
ATOM     19  O   UNL     1       5.357   1.364  21.419  0.00  0.00    +0.000 OA
ATOM     20  C   UNL     1       4.933   1.614  20.305  0.00  0.00    +0.000 C 
BRANCH  20  21
ATOM     21  O   UNL     1       4.791   0.669  19.346  0.00  0.00    +0.000 OA
ATOM     22  H   UNL     1       4.602   1.033  18.459  0.00  0.00    +0.000 HD
ENDBRANCH  20  21
ENDBRANCH  18  20
ENDBRANCH  11  18
ENDBRANCH   1  15
BRANCH   3  23
ATOM     23  C   UNL     1       6.103   3.309  13.405  0.00  0.00    +0.000 C 
ATOM     24  C   UNL     1       5.241   3.609  12.194  0.00  0.00    +0.000 C 
ATOM     25  C   UNL     1       6.722   3.826  12.129  0.00  0.00    +0.000 C 
ENDBRANCH   3  23
TORSDOF 5
ENDMDL
MODEL 3
REMARK VINA RESULT:      -7.9      2.097      2.794
REMARK  Name = 
REMARK  5 active torsions:
REMARK  status: ('A' for Active; 'I' for Inactive)
REMARK    1  A    between atoms: C_2  and  O_3
REMARK    2  A    between atoms: C_2  and  C_4
REMARK    3  A    between atoms: C_4  and  C_5
REMARK    4  A    between atoms: N_9  and  C_10
REMARK    5  A    between atoms: C_12  and  C_13
REMARK                            x       y       z     vdW  Elec       q    Type
REMARK                         _______ _______ _______ _____ _____    ______ ____
ROOT
ATOM      1  C   UNL     1       4.626   4.852  17.277  0.00  0.00    +0.000 A 
ATOM      2  N   UNL     1       4.852   4.340  16.029  0.00  0.00    +0.000 NA
ATOM      3  C   UNL     1       6.107   4.096  15.573  0.00  0.00    +0.000 A 
ATOM      4  N   UNL     1       7.233   4.290  16.280  0.00  0.00    +0.000 NA
ATOM      5  C   UNL     1       7.000   4.763  17.509  0.00  0.00    +0.000 A 
ATOM      6  N   UNL     1       7.988   4.987  18.428  0.00  0.00    +0.000 N 
ATOM      7  C   UNL     1       7.438   5.442  19.593  0.00  0.00    +0.000 A 
ATOM      8  C   UNL     1       6.078   5.529  19.397  0.00  0.00    +0.000 A 
ATOM      9  C   UNL     1       5.777   5.078  18.075  0.00  0.00    +0.000 A 
ATOM     10  H   UNL     1       8.966   4.813  18.251  0.00  0.00    +0.000 HD
ENDROOT
BRANCH   1  15
ATOM     11  C   UNL     1       1.696   4.263  20.023  0.00  0.00    +0.000 C 
ATOM     12  C   UNL     1       1.640   5.796  20.199  0.00  0.00    +0.000 C 
ATOM     13  C   UNL     1       2.681   6.624  19.452  0.00  0.00    +0.000 C 
ATOM     14  C   UNL     1       2.777   6.355  17.949  0.00  0.00    +0.000 C 
ATOM     15  N   UNL     1       3.312   5.025  17.706  0.00  0.00    +0.000 N 
ATOM     16  C   UNL     1       2.367   3.929  17.500  0.00  0.00    +0.000 C 
ATOM     17  C   UNL     1       1.272   3.885  18.581  0.00  0.00    +0.000 C 
BRANCH  11  18
ATOM     18  C   UNL     1       3.014   3.572  20.428  0.00  0.00    +0.000 C 
BRANCH  18  20
ATOM     19  O   UNL     1       3.788   1.725  21.817  0.00  0.00    +0.000 OA
ATOM     20  C   UNL     1       2.914   2.514  21.506  0.00  0.00    +0.000 C 
BRANCH  20  21
ATOM     21  O   UNL     1       1.707   2.549  22.117  0.00  0.00    +0.000 OA
ATOM     22  H   UNL     1       1.755   2.470  23.090  0.00  0.00    +0.000 HD
ENDBRANCH  20  21
ENDBRANCH  18  20
ENDBRANCH  11  18
ENDBRANCH   1  15
BRANCH   3  23
ATOM     23  C   UNL     1       6.277   3.552  14.170  0.00  0.00    +0.000 C 
ATOM     24  C   UNL     1       5.373   4.071  13.069  0.00  0.00    +0.000 C 
ATOM     25  C   UNL     1       6.833   4.404  13.055  0.00  0.00    +0.000 C 
ENDBRANCH   3  23
TORSDOF 5
ENDMDL
MODEL 4
REMARK VINA RESULT:      -7.7      2.522      3.177
REMARK  Name = 
REMARK  5 active torsions:
REMARK  status: ('A' for Active; 'I' for Inactive)
REMARK    1  A    between atoms: C_2  and  O_3
REMARK    2  A    between atoms: C_2  and  C_4
REMARK    3  A    between atoms: C_4  and  C_5
REMARK    4  A    between atoms: N_9  and  C_10
REMARK    5  A    between atoms: C_12  and  C_13
REMARK                            x       y       z     vdW  Elec       q    Type
REMARK                         _______ _______ _______ _____ _____    ______ ____
ROOT
ATOM      1  C   UNL     1       4.676   4.560  17.012  0.00  0.00    +0.000 A 
ATOM      2  N   UNL     1       4.779   4.442  15.653  0.00  0.00    +0.000 NA
ATOM      3  C   UNL     1       5.881   4.859  14.981  0.00  0.00    +0.000 A 
ATOM      4  N   UNL     1       6.976   5.388  15.552  0.00  0.00    +0.000 NA
ATOM      5  C   UNL     1       6.878   5.471  16.884  0.00  0.00    +0.000 A 
ATOM      6  N   UNL     1       7.889   5.926  17.684  0.00  0.00    +0.000 N 
ATOM      7  C   UNL     1       7.501   5.868  18.993  0.00  0.00    +0.000 A 
ATOM      8  C   UNL     1       6.211   5.389  19.016  0.00  0.00    +0.000 A 
ATOM      9  C   UNL     1       5.802   5.110  17.676  0.00  0.00    +0.000 A 
ATOM     10  H   UNL     1       8.785   6.232  17.334  0.00  0.00    +0.000 HD
ENDROOT
BRANCH   1  15
ATOM     11  C   UNL     1       2.942   2.524  20.064  0.00  0.00    +0.000 C 
ATOM     12  C   UNL     1       2.207   3.831  20.435  0.00  0.00    +0.000 C 
ATOM     13  C   UNL     1       2.576   5.087  19.651  0.00  0.00    +0.000 C 
ATOM     14  C   UNL     1       2.503   4.955  18.129  0.00  0.00    +0.000 C 
ATOM     15  N   UNL     1       3.542   4.059  17.648  0.00  0.00    +0.000 N 
ATOM     16  C   UNL     1       3.202   2.651  17.449  0.00  0.00    +0.000 C 
ATOM     17  C   UNL     1       2.482   2.043  18.665  0.00  0.00    +0.000 C 
BRANCH  11  18
ATOM     18  C   UNL     1       4.480   2.542  20.183  0.00  0.00    +0.000 C 
BRANCH  18  20
ATOM     19  O   UNL     1       5.553   1.101  21.830  0.00  0.00    +0.000 OA
ATOM     20  C   UNL     1       5.128   1.276  20.702  0.00  0.00    +0.000 C 
BRANCH  20  21
ATOM     21  O   UNL     1       5.178   0.322  19.743  0.00  0.00    +0.000 OA
ATOM     22  H   UNL     1       5.927  -0.297  19.842  0.00  0.00    +0.000 HD
ENDBRANCH  20  21
ENDBRANCH  18  20
ENDBRANCH  11  18
ENDBRANCH   1  15
BRANCH   3  23
ATOM     23  C   UNL     1       5.910   4.718  13.473  0.00  0.00    +0.000 C 
ATOM     24  C   UNL     1       6.635   3.534  12.863  0.00  0.00    +0.000 C 
ATOM     25  C   UNL     1       5.142   3.624  12.769  0.00  0.00    +0.000 C 
ENDBRANCH   3  23
TORSDOF 5
ENDMDL
MODEL 5
REMARK VINA RESULT:      -7.7      0.885      1.195
REMARK  Name = 
REMARK  5 active torsions:
REMARK  status: ('A' for Active; 'I' for Inactive)
REMARK    1  A    between atoms: C_2  and  O_3
REMARK    2  A    between atoms: C_2  and  C_4
REMARK    3  A    between atoms: C_4  and  C_5
REMARK    4  A    between atoms: N_9  and  C_10
REMARK    5  A    between atoms: C_12  and  C_13
REMARK                            x       y       z     vdW  Elec       q    Type
REMARK                         _______ _______ _______ _____ _____    ______ ____
ROOT
ATOM      1  C   UNL     1       4.908   4.223  17.253  0.00  0.00    +0.000 A 
ATOM      2  N   UNL     1       4.930   4.171  15.885  0.00  0.00    +0.000 NA
ATOM      3  C   UNL     1       5.895   4.794  15.163  0.00  0.00    +0.000 A 
ATOM      4  N   UNL     1       6.924   5.482  15.685  0.00  0.00    +0.000 NA
ATOM      5  C   UNL     1       6.911   5.501  17.022  0.00  0.00    +0.000 A 
ATOM      6  N   UNL     1       7.886   6.095  17.775  0.00  0.00    +0.000 N 
ATOM      7  C   UNL     1       7.609   5.926  19.102  0.00  0.00    +0.000 A 
ATOM      8  C   UNL     1       6.423   5.233  19.188  0.00  0.00    +0.000 A 
ATOM      9  C   UNL     1       5.971   4.934  17.866  0.00  0.00    +0.000 A 
ATOM     10  H   UNL     1       8.690   6.561  17.381  0.00  0.00    +0.000 HD
ENDROOT
BRANCH   1  15
ATOM     11  C   UNL     1       2.220   3.933  20.278  0.00  0.00    +0.000 C 
ATOM     12  C   UNL     1       1.114   3.845  19.203  0.00  0.00    +0.000 C 
ATOM     13  C   UNL     1       1.536   4.033  17.749  0.00  0.00    +0.000 C 
ATOM     14  C   UNL     1       2.683   3.138  17.278  0.00  0.00    +0.000 C 
ATOM     15  N   UNL     1       3.923   3.514  17.937  0.00  0.00    +0.000 N 
ATOM     16  C   UNL     1       4.307   2.794  19.150  0.00  0.00    +0.000 C 
ATOM     17  C   UNL     1       3.156   2.703  20.169  0.00  0.00    +0.000 C 
BRANCH  11  18
ATOM     18  C   UNL     1       3.017   5.252  20.339  0.00  0.00    +0.000 C 
BRANCH  18  20
ATOM     19  O   UNL     1       1.388   7.009  20.787  0.00  0.00    +0.000 OA
ATOM     20  C   UNL     1       2.238   6.520  20.064  0.00  0.00    +0.000 C 
BRANCH  20  21
ATOM     21  O   UNL     1       2.609   7.080  18.888  0.00  0.00    +0.000 OA
ATOM     22  H   UNL     1       2.721   6.435  18.163  0.00  0.00    +0.000 HD
ENDBRANCH  20  21
ENDBRANCH  18  20
ENDBRANCH  11  18
ENDBRANCH   1  15
BRANCH   3  23
ATOM     23  C   UNL     1       5.837   4.711  13.651  0.00  0.00    +0.000 C 
ATOM     24  C   UNL     1       6.583   3.593  12.951  0.00  0.00    +0.000 C 
ATOM     25  C   UNL     1       5.085   3.606  12.949  0.00  0.00    +0.000 C 
ENDBRANCH   3  23
TORSDOF 5
ENDMDL
MODEL 6
REMARK VINA RESULT:      -7.4      2.665      4.117
REMARK  Name = 
REMARK  5 active torsions:
REMARK  status: ('A' for Active; 'I' for Inactive)
REMARK    1  A    between atoms: C_2  and  O_3
REMARK    2  A    between atoms: C_2  and  C_4
REMARK    3  A    between atoms: C_4  and  C_5
REMARK    4  A    between atoms: N_9  and  C_10
REMARK    5  A    between atoms: C_12  and  C_13
REMARK                            x       y       z     vdW  Elec       q    Type
REMARK                         _______ _______ _______ _____ _____    ______ ____
ROOT
ATOM      1  C   UNL     1       2.782   5.460  18.250  0.00  0.00    +0.000 A 
ATOM      2  N   UNL     1       3.904   4.933  17.670  0.00  0.00    +0.000 NA
ATOM      3  C   UNL     1       4.781   5.706  16.981  0.00  0.00    +0.000 A 
ATOM      4  N   UNL     1       4.674   7.036  16.820  0.00  0.00    +0.000 NA
ATOM      5  C   UNL     1       3.590   7.545  17.416  0.00  0.00    +0.000 A 
ATOM      6  N   UNL     1       3.301   8.882  17.434  0.00  0.00    +0.000 N 
ATOM      7  C   UNL     1       2.149   9.094  18.138  0.00  0.00    +0.000 A 
ATOM      8  C   UNL     1       1.691   7.863  18.553  0.00  0.00    +0.000 A 
ATOM      9  C   UNL     1       2.611   6.862  18.117  0.00  0.00    +0.000 A 
ATOM     10  H   UNL     1       3.881   9.585  17.002  0.00  0.00    +0.000 HD
ENDROOT
BRANCH   1  15
ATOM     11  C   UNL     1       2.030   1.879  20.004  0.00  0.00    +0.000 C 
ATOM     12  C   UNL     1       1.990   2.621  21.357  0.00  0.00    +0.000 C 
ATOM     13  C   UNL     1       2.351   4.104  21.352  0.00  0.00    +0.000 C 
ATOM     14  C   UNL     1       1.575   4.964  20.354  0.00  0.00    +0.000 C 
ATOM     15  N   UNL     1       1.952   4.622  18.991  0.00  0.00    +0.000 N 
ATOM     16  C   UNL     1       1.134   3.646  18.273  0.00  0.00    +0.000 C 
ATOM     17  C   UNL     1       0.874   2.374  19.099  0.00  0.00    +0.000 C 
BRANCH  11  18
ATOM     18  C   UNL     1       3.380   1.883  19.256  0.00  0.00    +0.000 C 
BRANCH  18  20
ATOM     19  O   UNL     1       4.952   1.622  21.100  0.00  0.00    +0.000 OA
ATOM     20  C   UNL     1       4.605   2.200  20.086  0.00  0.00    +0.000 C 
BRANCH  20  21
ATOM     21  O   UNL     1       5.307   3.228  19.552  0.00  0.00    +0.000 OA
ATOM     22  H   UNL     1       4.874   4.097  19.658  0.00  0.00    +0.000 HD
ENDBRANCH  20  21
ENDBRANCH  18  20
ENDBRANCH  11  18
ENDBRANCH   1  15
BRANCH   3  23
ATOM     23  C   UNL     1       5.987   5.046  16.346  0.00  0.00    +0.000 C 
ATOM     24  C   UNL     1       5.778   3.824  15.473  0.00  0.00    +0.000 C 
ATOM     25  C   UNL     1       6.231   5.112  14.857  0.00  0.00    +0.000 C 
ENDBRANCH   3  23
TORSDOF 5
ENDMDL
MODEL 7
REMARK VINA RESULT:      -7.3      0.971      3.292
REMARK  Name = 
REMARK  5 active torsions:
REMARK  status: ('A' for Active; 'I' for Inactive)
REMARK    1  A    between atoms: C_2  and  O_3
REMARK    2  A    between atoms: C_2  and  C_4
REMARK    3  A    between atoms: C_4  and  C_5
REMARK    4  A    between atoms: N_9  and  C_10
REMARK    5  A    between atoms: C_12  and  C_13
REMARK                            x       y       z     vdW  Elec       q    Type
REMARK                         _______ _______ _______ _____ _____    ______ ____
ROOT
ATOM      1  C   UNL     1       5.232   4.619  17.222  0.00  0.00    +0.000 A 
ATOM      2  N   UNL     1       5.685   5.746  17.852  0.00  0.00    +0.000 NA
ATOM      3  C   UNL     1       6.601   6.566  17.278  0.00  0.00    +0.000 A 
ATOM      4  N   UNL     1       7.129   6.393  16.054  0.00  0.00    +0.000 NA
ATOM      5  C   UNL     1       6.658   5.306  15.435  0.00  0.00    +0.000 A 
ATOM      6  N   UNL     1       7.009   4.956  14.160  0.00  0.00    +0.000 N 
ATOM      7  C   UNL     1       6.347   3.818  13.797  0.00  0.00    +0.000 A 
ATOM      8  C   UNL     1       5.581   3.428  14.872  0.00  0.00    +0.000 A 
ATOM      9  C   UNL     1       5.751   4.381  15.923  0.00  0.00    +0.000 A 
ATOM     10  H   UNL     1       7.647   5.490  13.590  0.00  0.00    +0.000 HD
ENDROOT
BRANCH   1  15
ATOM     11  C   UNL     1       2.403   4.144  20.091  0.00  0.00    +0.000 C 
ATOM     12  C   UNL     1       1.362   4.020  18.957  0.00  0.00    +0.000 C 
ATOM     13  C   UNL     1       1.852   4.255  17.531  0.00  0.00    +0.000 C 
ATOM     14  C   UNL     1       3.066   3.426  17.110  0.00  0.00    +0.000 C 
ATOM     15  N   UNL     1       4.249   3.851  17.841  0.00  0.00    +0.000 N 
ATOM     16  C   UNL     1       4.602   3.130  19.062  0.00  0.00    +0.000 C 
ATOM     17  C   UNL     1       3.405   2.964  20.015  0.00  0.00    +0.000 C 
BRANCH  11  18
ATOM     18  C   UNL     1       3.128   5.500  20.215  0.00  0.00    +0.000 C 
BRANCH  18  20
ATOM     19  O   UNL     1       2.307   7.406  18.938  0.00  0.00    +0.000 OA
ATOM     20  C   UNL     1       2.292   6.734  19.954  0.00  0.00    +0.000 C 
BRANCH  20  21
ATOM     21  O   UNL     1       1.488   7.015  21.006  0.00  0.00    +0.000 OA
ATOM     22  H   UNL     1       1.532   6.353  21.723  0.00  0.00    +0.000 HD
ENDBRANCH  20  21
ENDBRANCH  18  20
ENDBRANCH  11  18
ENDBRANCH   1  15
BRANCH   3  23
ATOM     23  C   UNL     1       7.071   7.782  18.049  0.00  0.00    +0.000 C 
ATOM     24  C   UNL     1       8.448   7.759  18.683  0.00  0.00    +0.000 C 
ATOM     25  C   UNL     1       8.175   8.670  17.526  0.00  0.00    +0.000 C 
ENDBRANCH   3  23
TORSDOF 5
ENDMDL
MODEL 8
REMARK VINA RESULT:      -7.3      3.000      6.614
REMARK  Name = 
REMARK  5 active torsions:
REMARK  status: ('A' for Active; 'I' for Inactive)
REMARK    1  A    between atoms: C_2  and  O_3
REMARK    2  A    between atoms: C_2  and  C_4
REMARK    3  A    between atoms: C_4  and  C_5
REMARK    4  A    between atoms: N_9  and  C_10
REMARK    5  A    between atoms: C_12  and  C_13
REMARK                            x       y       z     vdW  Elec       q    Type
REMARK                         _______ _______ _______ _____ _____    ______ ____
ROOT
ATOM      1  C   UNL     1       2.849   5.548  18.630  0.00  0.00    +0.000 A 
ATOM      2  N   UNL     1       2.621   6.743  19.255  0.00  0.00    +0.000 NA
ATOM      3  C   UNL     1       1.827   6.836  20.352  0.00  0.00    +0.000 A 
ATOM      4  N   UNL     1       1.221   5.799  20.953  0.00  0.00    +0.000 NA
ATOM      5  C   UNL     1       1.475   4.631  20.353  0.00  0.00    +0.000 A 
ATOM      6  N   UNL     1       1.010   3.431  20.818  0.00  0.00    +0.000 N 
ATOM      7  C   UNL     1       1.456   2.422  20.012  0.00  0.00    +0.000 A 
ATOM      8  C   UNL     1       2.197   2.999  19.005  0.00  0.00    +0.000 A 
ATOM      9  C   UNL     1       2.237   4.411  19.219  0.00  0.00    +0.000 A 
ATOM     10  H   UNL     1       0.444   3.334  21.647  0.00  0.00    +0.000 HD
ENDROOT
BRANCH   1  15
ATOM     11  C   UNL     1       6.607   5.326  17.116  0.00  0.00    +0.000 C 
ATOM     12  C   UNL     1       6.191   3.999  16.445  0.00  0.00    +0.000 C 
ATOM     13  C   UNL     1       4.804   3.454  16.774  0.00  0.00    +0.000 C 
ATOM     14  C   UNL     1       3.649   4.434  16.569  0.00  0.00    +0.000 C 
ATOM     15  N   UNL     1       3.719   5.511  17.543  0.00  0.00    +0.000 N 
ATOM     16  C   UNL     1       4.394   6.749  17.156  0.00  0.00    +0.000 C 
ATOM     17  C   UNL     1       5.776   6.494  16.528  0.00  0.00    +0.000 C 
BRANCH  11  18
ATOM     18  C   UNL     1       6.607   5.347  18.658  0.00  0.00    +0.000 C 
BRANCH  18  20
ATOM     19  O   UNL     1       8.400   6.982  18.880  0.00  0.00    +0.000 OA
ATOM     20  C   UNL     1       7.785   6.027  19.321  0.00  0.00    +0.000 C 
BRANCH  20  21
ATOM     21  O   UNL     1       8.086   5.444  20.505  0.00  0.00    +0.000 OA
ATOM     22  H   UNL     1       7.478   5.687  21.229  0.00  0.00    +0.000 HD
ENDBRANCH  20  21
ENDBRANCH  18  20
ENDBRANCH  11  18
ENDBRANCH   1  15
BRANCH   3  23
ATOM     23  C   UNL     1       1.603   8.199  20.972  0.00  0.00    +0.000 C 
ATOM     24  C   UNL     1       0.759   9.214  20.225  0.00  0.00    +0.000 C 
ATOM     25  C   UNL     1       0.249   8.614  21.499  0.00  0.00    +0.000 C 
ENDBRANCH   3  23
TORSDOF 5
ENDMDL
MODEL 9
REMARK VINA RESULT:      -7.2      2.911      6.110
REMARK  Name = 
REMARK  5 active torsions:
REMARK  status: ('A' for Active; 'I' for Inactive)
REMARK    1  A    between atoms: C_2  and  O_3
REMARK    2  A    between atoms: C_2  and  C_4
REMARK    3  A    between atoms: C_4  and  C_5
REMARK    4  A    between atoms: N_9  and  C_10
REMARK    5  A    between atoms: C_12  and  C_13
REMARK                            x       y       z     vdW  Elec       q    Type
REMARK                         _______ _______ _______ _____ _____    ______ ____
ROOT
ATOM      1  C   UNL     1       3.309   5.935  18.391  0.00  0.00    +0.000 A 
ATOM      2  N   UNL     1       3.123   4.957  19.330  0.00  0.00    +0.000 NA
ATOM      3  C   UNL     1       2.394   5.176  20.454  0.00  0.00    +0.000 A 
ATOM      4  N   UNL     1       1.763   6.324  20.750  0.00  0.00    +0.000 NA
ATOM      5  C   UNL     1       1.925   7.263  19.812  0.00  0.00    +0.000 A 
ATOM      6  N   UNL     1       1.332   8.494  19.870  0.00  0.00    +0.000 N 
ATOM      7  C   UNL     1       1.665   9.218  18.760  0.00  0.00    +0.000 A 
ATOM      8  C   UNL     1       2.503   8.436  17.998  0.00  0.00    +0.000 A 
ATOM      9  C   UNL     1       2.665   7.173  18.645  0.00  0.00    +0.000 A 
ATOM     10  H   UNL     1       0.727   8.788  20.622  0.00  0.00    +0.000 HD
ENDROOT
BRANCH   1  15
ATOM     11  C   UNL     1       6.822   5.560  16.396  0.00  0.00    +0.000 C 
ATOM     12  C   UNL     1       6.498   4.058  16.234  0.00  0.00    +0.000 C 
ATOM     13  C   UNL     1       5.253   3.532  16.943  0.00  0.00    +0.000 C 
ATOM     14  C   UNL     1       3.961   4.297  16.653  0.00  0.00    +0.000 C 
ATOM     15  N   UNL     1       4.020   5.629  17.233  0.00  0.00    +0.000 N 
ATOM     16  C   UNL     1       4.467   6.732  16.384  0.00  0.00    +0.000 C 
ATOM     17  C   UNL     1       5.772   6.408  15.636  0.00  0.00    +0.000 C 
BRANCH  11  18
ATOM     18  C   UNL     1       7.029   6.067  17.838  0.00  0.00    +0.000 C 
BRANCH  18  20
ATOM     19  O   UNL     1       7.807   8.299  17.243  0.00  0.00    +0.000 OA
ATOM     20  C   UNL     1       7.834   7.340  17.993  0.00  0.00    +0.000 C 
BRANCH  20  21
ATOM     21  O   UNL     1       8.608   7.298  19.103  0.00  0.00    +0.000 OA
ATOM     22  H   UNL     1       8.394   6.560  19.705  0.00  0.00    +0.000 HD
ENDBRANCH  20  21
ENDBRANCH  18  20
ENDBRANCH  11  18
ENDBRANCH   1  15
BRANCH   3  23
ATOM     23  C   UNL     1       2.255   4.051  21.459  0.00  0.00    +0.000 C 
ATOM     24  C   UNL     1       1.280   2.927  21.169  0.00  0.00    +0.000 C 
ATOM     25  C   UNL     1       2.754   2.658  21.159  0.00  0.00    +0.000 C 
ENDBRANCH   3  23
TORSDOF 5
ENDMDL
