MODEL 1
REMARK VINA RESULT:      -8.7      0.000      0.000
REMARK  Name = 
REMARK  7 active torsions:
REMARK  status: ('A' for Active; 'I' for Inactive)
REMARK    1  A    between atoms: C_2  and  C_10
REMARK    2  A    between atoms: N_3  and  CA_4
REMARK    3  A    between atoms: CA_4  and  C_5
REMARK    4  A    between atoms: CA_4  and  C_7
REMARK    5  A    between atoms: C_5  and  O_6
REMARK    6  A    between atoms: C_12  and  C_13
REMARK    7  A    between atoms: C_14  and  C_15
REMARK                            x       y       z     vdW  Elec       q    Type
REMARK                         _______ _______ _______ _____ _____    ______ ____
ROOT
ATOM      1  C   UNL     1       3.738   5.462  18.365  0.00  0.00    +0.000 A 
ATOM      2  C   UNL     1       2.528   6.126  18.556  0.00  0.00    +0.000 A 
ATOM      3  N   UNL     1       1.562   5.140  18.547  0.00  0.00    +0.000 N 
ATOM      4  C   UNL     1       2.129   3.893  18.535  0.00  0.00    +0.000 A 
ATOM      5  C   UNL     1       1.521   2.635  18.571  0.00  0.00    +0.000 A 
ATOM      6  F   UNL     1       0.186   2.522  18.561  0.00  0.00    +0.000 F 
ATOM      7  C   UNL     1       2.318   1.504  18.638  0.00  0.00    +0.000 A 
ATOM      8  C   UNL     1       3.692   1.648  18.700  0.00  0.00    +0.000 A 
ATOM      9  F   UNL     1       4.463   0.559  18.825  0.00  0.00    +0.000 F 
ATOM     10  C   UNL     1       4.306   2.903  18.644  0.00  0.00    +0.000 A 
ATOM     11  C   UNL     1       3.512   4.061  18.514  0.00  0.00    +0.000 A 
ATOM     12  H   UNL     1       0.567   5.299  18.637  0.00  0.00    +0.000 HD
ENDROOT
BRANCH   2  13
ATOM     13  C   UNL     1       2.173   7.539  18.776  0.00  0.00    +0.000 A 
ATOM     14  C   UNL     1       2.241   8.472  17.728  0.00  0.00    +0.000 A 
ATOM     15  C   UNL     1       1.808   9.790  17.916  0.00  0.00    +0.000 A 
ATOM     16  C   UNL     1       1.318  10.182  19.152  0.00  0.00    +0.000 A 
ATOM     17  F   UNL     1       0.888  11.441  19.327  0.00  0.00    +0.000 F 
ATOM     18  C   UNL     1       1.245   9.284  20.206  0.00  0.00    +0.000 A 
ATOM     19  C   UNL     1       1.666   7.963  20.012  0.00  0.00    +0.000 A 
ENDBRANCH   2  13
BRANCH   1  22
ATOM     20  C   UNL     1       6.328   5.646  16.392  0.00  0.00    +0.000 C 
ATOM     21  C   UNL     1       5.246   6.707  16.671  0.00  0.00    +0.000 C 
ATOM     22  C   UNL     1       5.079   6.147  18.106  0.00  0.00    +0.000 C 
ATOM     23  C   UNL     1       6.357   5.319  17.900  0.00  0.00    +0.000 C 
BRANCH  20  25
ATOM     24  O   UNL     1       5.659   3.379  15.756  0.00  0.00    +0.000 OA
ATOM     25  C   UNL     1       6.080   4.484  15.396  0.00  0.00    +0.000 C 
ATOM     26  N   UNL     1       6.355   4.722  14.063  0.00  0.00    +0.000 N 
ATOM     27  H   UNL     1       6.793   5.595  13.786  0.00  0.00    +0.000 HD
BRANCH  26  28
ATOM     28  CA  UNL     1       6.268   3.650  13.042  0.00  0.00    +0.000 C 
BRANCH  28  29
ATOM     29  C   UNL     1       7.460   3.674  12.072  0.00  0.00    +0.000 C 
ATOM     30  F   UNL     1       7.464   2.573  11.279  0.00  0.00    +0.000 F 
ATOM     31  F   UNL     1       7.334   4.735  11.228  0.00  0.00    +0.000 F 
ENDBRANCH  28  29
BRANCH  28  32
ATOM     32  C   UNL     1       4.955   3.727  12.244  0.00  0.00    +0.000 C 
BRANCH  32  33
ATOM     33  O   UNL     1       4.733   2.539  11.490  0.00  0.00    +0.000 OA
ATOM     34  H   UNL     1       4.065   2.761  10.815  0.00  0.00    +0.000 HD
ENDBRANCH  32  33
ENDBRANCH  28  32
ENDBRANCH  26  28
ENDBRANCH  20  25
ENDBRANCH   1  22
TORSDOF 7
ENDMDL
MODEL 2
REMARK VINA RESULT:      -8.5      0.290      1.058
REMARK  Name = 
REMARK  7 active torsions:
REMARK  status: ('A' for Active; 'I' for Inactive)
REMARK    1  A    between atoms: C_2  and  C_10
REMARK    2  A    between atoms: N_3  and  CA_4
REMARK    3  A    between atoms: CA_4  and  C_5
REMARK    4  A    between atoms: CA_4  and  C_7
REMARK    5  A    between atoms: C_5  and  O_6
REMARK    6  A    between atoms: C_12  and  C_13
REMARK    7  A    between atoms: C_14  and  C_15
REMARK                            x       y       z     vdW  Elec       q    Type
REMARK                         _______ _______ _______ _____ _____    ______ ____
ROOT
ATOM      1  C   UNL     1       3.672   5.507  18.279  0.00  0.00    +0.000 A 
ATOM      2  C   UNL     1       2.448   6.148  18.462  0.00  0.00    +0.000 A 
ATOM      3  N   UNL     1       1.503   5.143  18.461  0.00  0.00    +0.000 N 
ATOM      4  C   UNL     1       2.095   3.908  18.462  0.00  0.00    +0.000 A 
ATOM      5  C   UNL     1       1.512   2.638  18.510  0.00  0.00    +0.000 A 
ATOM      6  F   UNL     1       0.180   2.498  18.499  0.00  0.00    +0.000 F 
ATOM      7  C   UNL     1       2.332   1.524  18.589  0.00  0.00    +0.000 A 
ATOM      8  C   UNL     1       3.703   1.696  18.652  0.00  0.00    +0.000 A 
ATOM      9  F   UNL     1       4.495   0.624  18.789  0.00  0.00    +0.000 F 
ATOM     10  C   UNL     1       4.292   2.963  18.585  0.00  0.00    +0.000 A 
ATOM     11  C   UNL     1       3.474   4.103  18.442  0.00  0.00    +0.000 A 
ATOM     12  H   UNL     1       0.505   5.282  18.548  0.00  0.00    +0.000 HD
ENDROOT
BRANCH   2  13
ATOM     13  C   UNL     1       2.065   7.555  18.667  0.00  0.00    +0.000 A 
ATOM     14  C   UNL     1       1.628   8.009  19.923  0.00  0.00    +0.000 A 
ATOM     15  C   UNL     1       1.361   9.367  20.137  0.00  0.00    +0.000 A 
ATOM     16  C   UNL     1       1.517  10.271  19.098  0.00  0.00    +0.000 A 
ATOM     17  F   UNL     1       1.277  11.574  19.309  0.00  0.00    +0.000 F 
ATOM     18  C   UNL     1       1.942   9.850  17.847  0.00  0.00    +0.000 A 
ATOM     19  C   UNL     1       2.222   8.494  17.637  0.00  0.00    +0.000 A 
ENDBRANCH   2  13
BRANCH   1  22
ATOM     20  C   UNL     1       6.286   5.688  16.338  0.00  0.00    +0.000 C 
ATOM     21  C   UNL     1       5.174   6.730  16.565  0.00  0.00    +0.000 C 
ATOM     22  C   UNL     1       5.000   6.216  18.015  0.00  0.00    +0.000 C 
ATOM     23  C   UNL     1       6.300   5.414  17.857  0.00  0.00    +0.000 C 
BRANCH  20  25
ATOM     24  O   UNL     1       5.874   3.338  15.789  0.00  0.00    +0.000 OA
ATOM     25  C   UNL     1       6.083   4.485  15.381  0.00  0.00    +0.000 C 
ATOM     26  N   UNL     1       6.147   4.738  14.023  0.00  0.00    +0.000 N 
ATOM     27  H   UNL     1       6.416   5.660  13.694  0.00  0.00    +0.000 HD
BRANCH  26  28
ATOM     28  CA  UNL     1       6.084   3.648  13.020  0.00  0.00    +0.000 C 
BRANCH  28  29
ATOM     29  C   UNL     1       6.971   3.933  11.797  0.00  0.00    +0.000 C 
ATOM     30  F   UNL     1       7.898   4.883  12.080  0.00  0.00    +0.000 F 
ATOM     31  F   UNL     1       7.678   2.812  11.482  0.00  0.00    +0.000 F 
ENDBRANCH  28  29
BRANCH  28  32
ATOM     32  C   UNL     1       4.642   3.380  12.558  0.00  0.00    +0.000 C 
BRANCH  32  33
ATOM     33  O   UNL     1       4.613   2.755  11.278  0.00  0.00    +0.000 OA
ATOM     34  H   UNL     1       5.180   1.964  11.344  0.00  0.00    +0.000 HD
ENDBRANCH  32  33
ENDBRANCH  28  32
ENDBRANCH  26  28
ENDBRANCH  20  25
ENDBRANCH   1  22
TORSDOF 7
ENDMDL
MODEL 3
REMARK VINA RESULT:      -8.1      1.176      1.409
REMARK  Name = 
REMARK  7 active torsions:
REMARK  status: ('A' for Active; 'I' for Inactive)
REMARK    1  A    between atoms: C_2  and  C_10
REMARK    2  A    between atoms: N_3  and  CA_4
REMARK    3  A    between atoms: CA_4  and  C_5
REMARK    4  A    between atoms: CA_4  and  C_7
REMARK    5  A    between atoms: C_5  and  O_6
REMARK    6  A    between atoms: C_12  and  C_13
REMARK    7  A    between atoms: C_14  and  C_15
REMARK                            x       y       z     vdW  Elec       q    Type
REMARK                         _______ _______ _______ _____ _____    ______ ____
ROOT
ATOM      1  C   UNL     1       4.137   5.539  18.962  0.00  0.00    +0.000 A 
ATOM      2  C   UNL     1       2.875   6.100  18.777  0.00  0.00    +0.000 A 
ATOM      3  N   UNL     1       2.040   5.039  18.490  0.00  0.00    +0.000 N 
ATOM      4  C   UNL     1       2.685   3.843  18.661  0.00  0.00    +0.000 A 
ATOM      5  C   UNL     1       2.199   2.539  18.526  0.00  0.00    +0.000 A 
ATOM      6  F   UNL     1       0.941   2.318  18.120  0.00  0.00    +0.000 F 
ATOM      7  C   UNL     1       3.030   1.476  18.841  0.00  0.00    +0.000 A 
ATOM      8  C   UNL     1       4.306   1.729  19.308  0.00  0.00    +0.000 A 
ATOM      9  F   UNL     1       5.091   0.705  19.669  0.00  0.00    +0.000 F 
ATOM     10  C   UNL     1       4.804   3.031  19.425  0.00  0.00    +0.000 A 
ATOM     11  C   UNL     1       3.992   4.123  19.052  0.00  0.00    +0.000 A 
ATOM     12  H   UNL     1       1.054   5.115  18.277  0.00  0.00    +0.000 HD
ENDROOT
BRANCH   2  13
ATOM     13  C   UNL     1       2.357   7.476  18.866  0.00  0.00    +0.000 A 
ATOM     14  C   UNL     1       2.381   8.330  17.751  0.00  0.00    +0.000 A 
ATOM     15  C   UNL     1       1.797   9.602  17.813  0.00  0.00    +0.000 A 
ATOM     16  C   UNL     1       1.199  10.027  18.989  0.00  0.00    +0.000 A 
ATOM     17  F   UNL     1       0.625  11.238  19.043  0.00  0.00    +0.000 F 
ATOM     18  C   UNL     1       1.166   9.206  20.107  0.00  0.00    +0.000 A 
ATOM     19  C   UNL     1       1.738   7.930  20.039  0.00  0.00    +0.000 A 
ENDBRANCH   2  13
BRANCH   1  22
ATOM     20  C   UNL     1       7.078   6.147  17.690  0.00  0.00    +0.000 C 
ATOM     21  C   UNL     1       5.868   7.092  17.828  0.00  0.00    +0.000 C 
ATOM     22  C   UNL     1       5.434   6.335  19.108  0.00  0.00    +0.000 C 
ATOM     23  C   UNL     1       6.795   5.622  19.114  0.00  0.00    +0.000 C 
BRANCH  20  25
ATOM     24  O   UNL     1       7.329   3.907  16.736  0.00  0.00    +0.000 OA
ATOM     25  C   UNL     1       7.169   5.116  16.537  0.00  0.00    +0.000 C 
ATOM     26  N   UNL     1       7.068   5.598  15.245  0.00  0.00    +0.000 N 
ATOM     27  H   UNL     1       7.036   6.600  15.082  0.00  0.00    +0.000 HD
BRANCH  26  28
ATOM     28  CA  UNL     1       7.258   4.722  14.064  0.00  0.00    +0.000 C 
BRANCH  28  29
ATOM     29  C   UNL     1       7.739   5.505  12.832  0.00  0.00    +0.000 C 
ATOM     30  F   UNL     1       9.038   5.872  12.967  0.00  0.00    +0.000 F 
ATOM     31  F   UNL     1       7.696   4.694  11.739  0.00  0.00    +0.000 F 
ENDBRANCH  28  29
BRANCH  28  32
ATOM     32  C   UNL     1       5.974   3.950  13.715  0.00  0.00    +0.000 C 
BRANCH  32  33
ATOM     33  O   UNL     1       5.768   2.854  14.602  0.00  0.00    +0.000 OA
ATOM     34  H   UNL     1       4.809   2.680  14.608  0.00  0.00    +0.000 HD
ENDBRANCH  32  33
ENDBRANCH  28  32
ENDBRANCH  26  28
ENDBRANCH  20  25
ENDBRANCH   1  22
TORSDOF 7
ENDMDL
MODEL 4
REMARK VINA RESULT:      -7.8      1.649      1.845
REMARK  Name = 
REMARK  7 active torsions:
REMARK  status: ('A' for Active; 'I' for Inactive)
REMARK    1  A    between atoms: C_2  and  C_10
REMARK    2  A    between atoms: N_3  and  CA_4
REMARK    3  A    between atoms: CA_4  and  C_5
REMARK    4  A    between atoms: CA_4  and  C_7
REMARK    5  A    between atoms: C_5  and  O_6
REMARK    6  A    between atoms: C_12  and  C_13
REMARK    7  A    between atoms: C_14  and  C_15
REMARK                            x       y       z     vdW  Elec       q    Type
REMARK                         _______ _______ _______ _____ _____    ______ ____
ROOT
ATOM      1  C   UNL     1       3.965   5.417  18.880  0.00  0.00    +0.000 A 
ATOM      2  C   UNL     1       2.721   6.034  18.767  0.00  0.00    +0.000 A 
ATOM      3  N   UNL     1       1.827   5.014  18.510  0.00  0.00    +0.000 N 
ATOM      4  C   UNL     1       2.426   3.789  18.632  0.00  0.00    +0.000 A 
ATOM      5  C   UNL     1       1.878   2.510  18.507  0.00  0.00    +0.000 A 
ATOM      6  F   UNL     1       0.593   2.348  18.163  0.00  0.00    +0.000 F 
ATOM      7  C   UNL     1       2.677   1.407  18.765  0.00  0.00    +0.000 A 
ATOM      8  C   UNL     1       3.985   1.598  19.170  0.00  0.00    +0.000 A 
ATOM      9  F   UNL     1       4.741   0.536  19.477  0.00  0.00    +0.000 F 
ATOM     10  C   UNL     1       4.544   2.876  19.277  0.00  0.00    +0.000 A 
ATOM     11  C   UNL     1       3.763   4.007  18.959  0.00  0.00    +0.000 A 
ATOM     12  H   UNL     1       0.836   5.136  18.349  0.00  0.00    +0.000 HD
ENDROOT
BRANCH   2  13
ATOM     13  C   UNL     1       2.269   7.429  18.899  0.00  0.00    +0.000 A 
ATOM     14  C   UNL     1       2.208   8.278  17.781  0.00  0.00    +0.000 A 
ATOM     15  C   UNL     1       1.683   9.572  17.895  0.00  0.00    +0.000 A 
ATOM     16  C   UNL     1       1.230  10.024  19.124  0.00  0.00    +0.000 A 
ATOM     17  F   UNL     1       0.711  11.257  19.228  0.00  0.00    +0.000 F 
ATOM     18  C   UNL     1       1.283   9.209  20.245  0.00  0.00    +0.000 A 
ATOM     19  C   UNL     1       1.795   7.912  20.128  0.00  0.00    +0.000 A 
ENDBRANCH   2  13
BRANCH   1  22
ATOM     20  C   UNL     1       6.425   6.740  17.196  0.00  0.00    +0.000 C 
ATOM     21  C   UNL     1       5.386   7.432  18.099  0.00  0.00    +0.000 C 
ATOM     22  C   UNL     1       5.301   6.154  18.968  0.00  0.00    +0.000 C 
ATOM     23  C   UNL     1       6.545   5.614  18.245  0.00  0.00    +0.000 C 
BRANCH  20  25
ATOM     24  O   UNL     1       5.011   6.626  15.201  0.00  0.00    +0.000 OA
ATOM     25  C   UNL     1       6.088   6.344  15.735  0.00  0.00    +0.000 C 
ATOM     26  N   UNL     1       7.051   5.646  15.030  0.00  0.00    +0.000 N 
ATOM     27  H   UNL     1       7.892   5.330  15.503  0.00  0.00    +0.000 HD
BRANCH  26  28
ATOM     28  CA  UNL     1       6.794   5.115  13.670  0.00  0.00    +0.000 C 
BRANCH  28  29
ATOM     29  C   UNL     1       6.203   3.697  13.702  0.00  0.00    +0.000 C 
ATOM     30  F   UNL     1       6.149   3.221  14.972  0.00  0.00    +0.000 F 
ATOM     31  F   UNL     1       4.912   3.737  13.269  0.00  0.00    +0.000 F 
ENDBRANCH  28  29
BRANCH  28  32
ATOM     32  C   UNL     1       8.066   5.123  12.805  0.00  0.00    +0.000 C 
BRANCH  32  33
ATOM     33  O   UNL     1       9.038   6.030  13.317  0.00  0.00    +0.000 OA
ATOM     34  H   UNL     1       8.696   6.346  14.174  0.00  0.00    +0.000 HD
ENDBRANCH  32  33
ENDBRANCH  28  32
ENDBRANCH  26  28
ENDBRANCH  20  25
ENDBRANCH   1  22
TORSDOF 7
ENDMDL
MODEL 5
REMARK VINA RESULT:      -7.5      3.179      8.015
REMARK  Name = 
REMARK  7 active torsions:
REMARK  status: ('A' for Active; 'I' for Inactive)
REMARK    1  A    between atoms: C_2  and  C_10
REMARK    2  A    between atoms: N_3  and  CA_4
REMARK    3  A    between atoms: CA_4  and  C_5
REMARK    4  A    between atoms: CA_4  and  C_7
REMARK    5  A    between atoms: C_5  and  O_6
REMARK    6  A    between atoms: C_12  and  C_13
REMARK    7  A    between atoms: C_14  and  C_15
REMARK                            x       y       z     vdW  Elec       q    Type
REMARK                         _______ _______ _______ _____ _____    ______ ____
ROOT
ATOM      1  C   UNL     1       3.623   4.580  18.095  0.00  0.00    +0.000 A 
ATOM      2  C   UNL     1       4.857   4.073  17.692  0.00  0.00    +0.000 A 
ATOM      3  N   UNL     1       5.245   3.209  18.696  0.00  0.00    +0.000 N 
ATOM      4  C   UNL     1       4.239   3.026  19.607  0.00  0.00    +0.000 A 
ATOM      5  C   UNL     1       4.195   2.204  20.737  0.00  0.00    +0.000 A 
ATOM      6  F   UNL     1       5.267   1.489  21.103  0.00  0.00    +0.000 F 
ATOM      7  C   UNL     1       3.018   2.122  21.464  0.00  0.00    +0.000 A 
ATOM      8  C   UNL     1       1.908   2.828  21.037  0.00  0.00    +0.000 A 
ATOM      9  F   UNL     1       0.753   2.704  21.703  0.00  0.00    +0.000 F 
ATOM     10  C   UNL     1       1.953   3.667  19.919  0.00  0.00    +0.000 A 
ATOM     11  C   UNL     1       3.160   3.810  19.204  0.00  0.00    +0.000 A 
ATOM     12  H   UNL     1       6.116   2.695  18.718  0.00  0.00    +0.000 HD
ENDROOT
BRANCH   2  13
ATOM     13  C   UNL     1       5.687   4.269  16.492  0.00  0.00    +0.000 A 
ATOM     14  C   UNL     1       5.261   3.806  15.236  0.00  0.00    +0.000 A 
ATOM     15  C   UNL     1       6.006   4.081  14.082  0.00  0.00    +0.000 A 
ATOM     16  C   UNL     1       7.182   4.809  14.181  0.00  0.00    +0.000 A 
ATOM     17  F   UNL     1       7.886   5.087  13.074  0.00  0.00    +0.000 F 
ATOM     18  C   UNL     1       7.629   5.273  15.409  0.00  0.00    +0.000 A 
ATOM     19  C   UNL     1       6.877   5.008  16.560  0.00  0.00    +0.000 A 
ENDBRANCH   2  13
BRANCH   1  22
ATOM     20  C   UNL     1       2.058   7.409  18.517  0.00  0.00    +0.000 C 
ATOM     21  C   UNL     1       3.389   7.138  17.791  0.00  0.00    +0.000 C 
ATOM     22  C   UNL     1       2.882   5.726  17.407  0.00  0.00    +0.000 C 
ATOM     23  C   UNL     1       1.475   6.138  17.865  0.00  0.00    +0.000 C 
BRANCH  20  25
ATOM     24  O   UNL     1       2.436   6.665  20.818  0.00  0.00    +0.000 OA
ATOM     25  C   UNL     1       1.991   7.534  20.061  0.00  0.00    +0.000 C 
ATOM     26  N   UNL     1       1.403   8.672  20.580  0.00  0.00    +0.000 N 
ATOM     27  H   UNL     1       0.951   9.335  19.958  0.00  0.00    +0.000 HD
BRANCH  26  28
ATOM     28  CA  UNL     1       1.179   8.844  22.036  0.00  0.00    +0.000 C 
BRANCH  28  29
ATOM     29  C   UNL     1      -0.262   9.272  22.356  0.00  0.00    +0.000 C 
ATOM     30  F   UNL     1      -1.126   8.242  22.173  0.00  0.00    +0.000 F 
ATOM     31  F   UNL     1      -0.352   9.599  23.674  0.00  0.00    +0.000 F 
ENDBRANCH  28  29
BRANCH  28  32
ATOM     32  C   UNL     1       2.164   9.854  22.649  0.00  0.00    +0.000 C 
BRANCH  32  33
ATOM     33  O   UNL     1       2.899   9.278  23.724  0.00  0.00    +0.000 OA
ATOM     34  H   UNL     1       3.812   9.159  23.402  0.00  0.00    +0.000 HD
ENDBRANCH  32  33
ENDBRANCH  28  32
ENDBRANCH  26  28
ENDBRANCH  20  25
ENDBRANCH   1  22
TORSDOF 7
ENDMDL
MODEL 6
REMARK VINA RESULT:      -7.3      3.200      7.900
REMARK  Name = 
REMARK  7 active torsions:
REMARK  status: ('A' for Active; 'I' for Inactive)
REMARK    1  A    between atoms: C_2  and  C_10
REMARK    2  A    between atoms: N_3  and  CA_4
REMARK    3  A    between atoms: CA_4  and  C_5
REMARK    4  A    between atoms: CA_4  and  C_7
REMARK    5  A    between atoms: C_5  and  O_6
REMARK    6  A    between atoms: C_12  and  C_13
REMARK    7  A    between atoms: C_14  and  C_15
REMARK                            x       y       z     vdW  Elec       q    Type
REMARK                         _______ _______ _______ _____ _____    ______ ____
ROOT
ATOM      1  C   UNL     1       3.554   4.633  18.037  0.00  0.00    +0.000 A 
ATOM      2  C   UNL     1       4.815   4.146  17.696  0.00  0.00    +0.000 A 
ATOM      3  N   UNL     1       5.186   3.324  18.741  0.00  0.00    +0.000 N 
ATOM      4  C   UNL     1       4.152   3.143  19.620  0.00  0.00    +0.000 A 
ATOM      5  C   UNL     1       4.086   2.356  20.773  0.00  0.00    +0.000 A 
ATOM      6  F   UNL     1       5.162   1.681  21.201  0.00  0.00    +0.000 F 
ATOM      7  C   UNL     1       2.885   2.266  21.459  0.00  0.00    +0.000 A 
ATOM      8  C   UNL     1       1.775   2.929  20.969  0.00  0.00    +0.000 A 
ATOM      9  F   UNL     1       0.599   2.795  21.597  0.00  0.00    +0.000 F 
ATOM     10  C   UNL     1       1.840   3.734  19.827  0.00  0.00    +0.000 A 
ATOM     11  C   UNL     1       3.069   3.886  19.152  0.00  0.00    +0.000 A 
ATOM     12  H   UNL     1       6.069   2.834  18.811  0.00  0.00    +0.000 HD
ENDROOT
BRANCH   2  13
ATOM     13  C   UNL     1       5.684   4.325  16.521  0.00  0.00    +0.000 A 
ATOM     14  C   UNL     1       5.302   3.839  15.260  0.00  0.00    +0.000 A 
ATOM     15  C   UNL     1       6.085   4.099  14.127  0.00  0.00    +0.000 A 
ATOM     16  C   UNL     1       7.253   4.834  14.254  0.00  0.00    +0.000 A 
ATOM     17  F   UNL     1       7.993   5.097  13.166  0.00  0.00    +0.000 F 
ATOM     18  C   UNL     1       7.657   5.321  15.488  0.00  0.00    +0.000 A 
ATOM     19  C   UNL     1       6.867   5.072  16.616  0.00  0.00    +0.000 A 
ENDBRANCH   2  13
BRANCH   1  22
ATOM     20  C   UNL     1       2.012   7.494  18.295  0.00  0.00    +0.000 C 
ATOM     21  C   UNL     1       3.332   7.167  17.570  0.00  0.00    +0.000 C 
ATOM     22  C   UNL     1       2.811   5.736  17.286  0.00  0.00    +0.000 C 
ATOM     23  C   UNL     1       1.412   6.187  17.735  0.00  0.00    +0.000 C 
BRANCH  20  25
ATOM     24  O   UNL     1       2.506   6.949  20.630  0.00  0.00    +0.000 OA
ATOM     25  C   UNL     1       1.968   7.720  19.829  0.00  0.00    +0.000 C 
ATOM     26  N   UNL     1       1.288   8.833  20.286  0.00  0.00    +0.000 N 
ATOM     27  H   UNL     1       0.764   9.407  19.633  0.00  0.00    +0.000 HD
BRANCH  26  28
ATOM     28  CA  UNL     1       1.080   9.084  21.732  0.00  0.00    +0.000 C 
BRANCH  28  29
ATOM     29  C   UNL     1      -0.159   8.355  22.277  0.00  0.00    +0.000 C 
ATOM     30  F   UNL     1      -0.889   9.171  23.078  0.00  0.00    +0.000 F 
ATOM     31  F   UNL     1      -0.979   8.026  21.241  0.00  0.00    +0.000 F 
ENDBRANCH  28  29
BRANCH  28  32
ATOM     32  C   UNL     1       0.970  10.587  22.040  0.00  0.00    +0.000 C 
BRANCH  32  33
ATOM     33  O   UNL     1       0.358  11.295  20.966  0.00  0.00    +0.000 OA
ATOM     34  H   UNL     1       0.298  12.227  21.247  0.00  0.00    +0.000 HD
ENDBRANCH  32  33
ENDBRANCH  28  32
ENDBRANCH  26  28
ENDBRANCH  20  25
ENDBRANCH   1  22
TORSDOF 7
ENDMDL
MODEL 7
REMARK VINA RESULT:      -7.2      8.711     11.680
REMARK  Name = 
REMARK  7 active torsions:
REMARK  status: ('A' for Active; 'I' for Inactive)
REMARK    1  A    between atoms: C_2  and  C_10
REMARK    2  A    between atoms: N_3  and  CA_4
REMARK    3  A    between atoms: CA_4  and  C_5
REMARK    4  A    between atoms: CA_4  and  C_7
REMARK    5  A    between atoms: C_5  and  O_6
REMARK    6  A    between atoms: C_12  and  C_13
REMARK    7  A    between atoms: C_14  and  C_15
REMARK                            x       y       z     vdW  Elec       q    Type
REMARK                         _______ _______ _______ _____ _____    ______ ____
ROOT
ATOM      1  C   UNL     1       0.185  12.002  18.875  0.00  0.00    +0.000 A 
ATOM      2  C   UNL     1      -1.058  12.600  18.678  0.00  0.00    +0.000 A 
ATOM      3  N   UNL     1      -0.811  13.958  18.641  0.00  0.00    +0.000 N 
ATOM      4  C   UNL     1       0.534  14.216  18.630  0.00  0.00    +0.000 A 
ATOM      5  C   UNL     1       1.209  15.437  18.549  0.00  0.00    +0.000 A 
ATOM      6  F   UNL     1       0.530  16.592  18.529  0.00  0.00    +0.000 F 
ATOM      7  C   UNL     1       2.592  15.437  18.466  0.00  0.00    +0.000 A 
ATOM      8  C   UNL     1       3.268  14.231  18.435  0.00  0.00    +0.000 A 
ATOM      9  F   UNL     1       4.601  14.227  18.295  0.00  0.00    +0.000 F 
ATOM     10  C   UNL     1       2.599  13.007  18.537  0.00  0.00    +0.000 A 
ATOM     11  C   UNL     1       1.196  12.991  18.683  0.00  0.00    +0.000 A 
ATOM     12  H   UNL     1      -1.517  14.675  18.536  0.00  0.00    +0.000 HD
ENDROOT
BRANCH   2  13
ATOM     13  C   UNL     1      -2.418  12.067  18.490  0.00  0.00    +0.000 A 
ATOM     14  C   UNL     1      -3.432  12.328  19.427  0.00  0.00    +0.000 A 
ATOM     15  C   UNL     1      -4.746  11.903  19.194  0.00  0.00    +0.000 A 
ATOM     16  C   UNL     1      -5.048  11.209  18.033  0.00  0.00    +0.000 A 
ATOM     17  F   UNL     1      -6.311  10.817  17.802  0.00  0.00    +0.000 F 
ATOM     18  C   UNL     1      -4.066  10.933  17.093  0.00  0.00    +0.000 A 
ATOM     19  C   UNL     1      -2.755  11.370  17.321  0.00  0.00    +0.000 A 
ENDBRANCH   2  13
BRANCH   1  22
ATOM     20  C   UNL     1      -0.055   9.654  21.124  0.00  0.00    +0.000 C 
ATOM     21  C   UNL     1      -0.823   9.806  19.797  0.00  0.00    +0.000 C 
ATOM     22  C   UNL     1       0.404  10.521  19.179  0.00  0.00    +0.000 C 
ATOM     23  C   UNL     1       1.235  10.083  20.395  0.00  0.00    +0.000 C 
BRANCH  20  25
ATOM     24  O   UNL     1      -0.115  10.109  23.528  0.00  0.00    +0.000 OA
ATOM     25  C   UNL     1      -0.473  10.440  22.393  0.00  0.00    +0.000 C 
ATOM     26  N   UNL     1      -1.282  11.547  22.215  0.00  0.00    +0.000 N 
ATOM     27  H   UNL     1      -1.654  11.757  21.294  0.00  0.00    +0.000 HD
BRANCH  26  28
ATOM     28  CA  UNL     1      -1.838  12.303  23.363  0.00  0.00    +0.000 C 
BRANCH  28  29
ATOM     29  C   UNL     1      -3.373  12.369  23.326  0.00  0.00    +0.000 C 
ATOM     30  F   UNL     1      -3.904  12.010  24.522  0.00  0.00    +0.000 F 
ATOM     31  F   UNL     1      -3.763  13.658  23.122  0.00  0.00    +0.000 F 
ENDBRANCH  28  29
BRANCH  28  32
ATOM     32  C   UNL     1      -1.263  13.728  23.439  0.00  0.00    +0.000 C 
BRANCH  32  33
ATOM     33  O   UNL     1      -0.650  14.109  22.211  0.00  0.00    +0.000 OA
ATOM     34  H   UNL     1      -1.312  13.953  21.512  0.00  0.00    +0.000 HD
ENDBRANCH  32  33
ENDBRANCH  28  32
ENDBRANCH  26  28
ENDBRANCH  20  25
ENDBRANCH   1  22
TORSDOF 7
ENDMDL
MODEL 8
REMARK VINA RESULT:      -7.0      9.243     11.232
REMARK  Name = 
REMARK  7 active torsions:
REMARK  status: ('A' for Active; 'I' for Inactive)
REMARK    1  A    between atoms: C_2  and  C_10
REMARK    2  A    between atoms: N_3  and  CA_4
REMARK    3  A    between atoms: CA_4  and  C_5
REMARK    4  A    between atoms: CA_4  and  C_7
REMARK    5  A    between atoms: C_5  and  O_6
REMARK    6  A    between atoms: C_12  and  C_13
REMARK    7  A    between atoms: C_14  and  C_15
REMARK                            x       y       z     vdW  Elec       q    Type
REMARK                         _______ _______ _______ _____ _____    ______ ____
ROOT
ATOM      1  C   UNL     1      -2.078  11.898  19.611  0.00  0.00    +0.000 A 
ATOM      2  C   UNL     1      -3.104  12.605  20.236  0.00  0.00    +0.000 A 
ATOM      3  N   UNL     1      -4.118  12.683  19.302  0.00  0.00    +0.000 N 
ATOM      4  C   UNL     1      -3.838  11.914  18.204  0.00  0.00    +0.000 A 
ATOM      5  C   UNL     1      -4.607  11.675  17.062  0.00  0.00    +0.000 A 
ATOM      6  F   UNL     1      -5.789  12.284  16.894  0.00  0.00    +0.000 F 
ATOM      7  C   UNL     1      -4.142  10.779  16.112  0.00  0.00    +0.000 A 
ATOM      8  C   UNL     1      -2.945  10.122  16.331  0.00  0.00    +0.000 A 
ATOM      9  F   UNL     1      -2.522   9.212  15.444  0.00  0.00    +0.000 F 
ATOM     10  C   UNL     1      -2.161  10.373  17.462  0.00  0.00    +0.000 A 
ATOM     11  C   UNL     1      -2.591  11.327  18.408  0.00  0.00    +0.000 A 
ATOM     12  H   UNL     1      -4.999  13.160  19.438  0.00  0.00    +0.000 HD
ENDROOT
BRANCH   2  13
ATOM     13  C   UNL     1      -3.263  13.176  21.584  0.00  0.00    +0.000 A 
ATOM     14  C   UNL     1      -3.365  12.346  22.713  0.00  0.00    +0.000 A 
ATOM     15  C   UNL     1      -3.416  12.894  24.000  0.00  0.00    +0.000 A 
ATOM     16  C   UNL     1      -3.377  14.270  24.163  0.00  0.00    +0.000 A 
ATOM     17  F   UNL     1      -3.409  14.795  25.398  0.00  0.00    +0.000 F 
ATOM     18  C   UNL     1      -3.283  15.114  23.066  0.00  0.00    +0.000 A 
ATOM     19  C   UNL     1      -3.218  14.563  21.780  0.00  0.00    +0.000 A 
ENDBRANCH   2  13
BRANCH   1  22
ATOM     20  C   UNL     1       0.857  13.269  19.985  0.00  0.00    +0.000 C 
ATOM     21  C   UNL     1      -0.183  12.899  21.060  0.00  0.00    +0.000 C 
ATOM     22  C   UNL     1      -0.668  11.724  20.174  0.00  0.00    +0.000 C 
ATOM     23  C   UNL     1       0.565  11.927  19.280  0.00  0.00    +0.000 C 
BRANCH  20  25
ATOM     24  O   UNL     1      -0.266  14.834  18.475  0.00  0.00    +0.000 OA
ATOM     25  C   UNL     1       0.732  14.573  19.156  0.00  0.00    +0.000 C 
ATOM     26  N   UNL     1       1.795  15.455  19.197  0.00  0.00    +0.000 N 
ATOM     27  H   UNL     1       2.651  15.191  19.676  0.00  0.00    +0.000 HD
BRANCH  26  28
ATOM     28  CA  UNL     1       1.835  16.673  18.353  0.00  0.00    +0.000 C 
BRANCH  28  29
ATOM     29  C   UNL     1       3.062  16.700  17.428  0.00  0.00    +0.000 C 
ATOM     30  F   UNL     1       3.408  15.445  17.044  0.00  0.00    +0.000 F 
ATOM     31  F   UNL     1       2.747  17.362  16.281  0.00  0.00    +0.000 F 
ENDBRANCH  28  29
BRANCH  28  32
ATOM     32  C   UNL     1       1.802  17.956  19.202  0.00  0.00    +0.000 C 
BRANCH  32  33
ATOM     33  O   UNL     1       1.610  17.662  20.583  0.00  0.00    +0.000 OA
ATOM     34  H   UNL     1       0.658  17.781  20.760  0.00  0.00    +0.000 HD
ENDBRANCH  32  33
ENDBRANCH  28  32
ENDBRANCH  26  28
ENDBRANCH  20  25
ENDBRANCH   1  22
TORSDOF 7
ENDMDL
MODEL 9
REMARK VINA RESULT:      -7.0      1.584      1.986
REMARK  Name = 
REMARK  7 active torsions:
REMARK  status: ('A' for Active; 'I' for Inactive)
REMARK    1  A    between atoms: C_2  and  C_10
REMARK    2  A    between atoms: N_3  and  CA_4
REMARK    3  A    between atoms: CA_4  and  C_5
REMARK    4  A    between atoms: CA_4  and  C_7
REMARK    5  A    between atoms: C_5  and  O_6
REMARK    6  A    between atoms: C_12  and  C_13
REMARK    7  A    between atoms: C_14  and  C_15
REMARK                            x       y       z     vdW  Elec       q    Type
REMARK                         _______ _______ _______ _____ _____    ______ ____
ROOT
ATOM      1  C   UNL     1       4.094   5.434  18.966  0.00  0.00    +0.000 A 
ATOM      2  C   UNL     1       2.821   5.963  18.763  0.00  0.00    +0.000 A 
ATOM      3  N   UNL     1       2.014   4.881  18.477  0.00  0.00    +0.000 N 
ATOM      4  C   UNL     1       2.685   3.701  18.664  0.00  0.00    +0.000 A 
ATOM      5  C   UNL     1       2.232   2.385  18.536  0.00  0.00    +0.000 A 
ATOM      6  F   UNL     1       0.984   2.131  18.118  0.00  0.00    +0.000 F 
ATOM      7  C   UNL     1       3.084   1.344  18.868  0.00  0.00    +0.000 A 
ATOM      8  C   UNL     1       4.349   1.632  19.347  0.00  0.00    +0.000 A 
ATOM      9  F   UNL     1       5.153   0.629  19.725  0.00  0.00    +0.000 F 
ATOM     10  C   UNL     1       4.815   2.946  19.458  0.00  0.00    +0.000 A 
ATOM     11  C   UNL     1       3.982   4.015  19.067  0.00  0.00    +0.000 A 
ATOM     12  H   UNL     1       1.029   4.931  18.252  0.00  0.00    +0.000 HD
ENDROOT
BRANCH   2  13
ATOM     13  C   UNL     1       2.270   7.327  18.835  0.00  0.00    +0.000 A 
ATOM     14  C   UNL     1       1.772   7.842  20.043  0.00  0.00    +0.000 A 
ATOM     15  C   UNL     1       1.341   9.172  20.129  0.00  0.00    +0.000 A 
ATOM     16  C   UNL     1       1.396   9.985  19.008  0.00  0.00    +0.000 A 
ATOM     17  F   UNL     1       0.999  11.265  19.095  0.00  0.00    +0.000 F 
ATOM     18  C   UNL     1       1.878   9.502  17.801  0.00  0.00    +0.000 A 
ATOM     19  C   UNL     1       2.320   8.176  17.720  0.00  0.00    +0.000 A 
ENDBRANCH   2  13
BRANCH   1  22
ATOM     20  C   UNL     1       6.908   6.319  17.577  0.00  0.00    +0.000 C 
ATOM     21  C   UNL     1       5.681   7.186  17.917  0.00  0.00    +0.000 C 
ATOM     22  C   UNL     1       5.370   6.261  19.119  0.00  0.00    +0.000 C 
ATOM     23  C   UNL     1       6.752   5.613  18.941  0.00  0.00    +0.000 C 
BRANCH  20  25
ATOM     24  O   UNL     1       7.613   4.403  16.227  0.00  0.00    +0.000 OA
ATOM     25  C   UNL     1       6.948   5.441  16.300  0.00  0.00    +0.000 C 
ATOM     26  N   UNL     1       6.203   5.866  15.216  0.00  0.00    +0.000 N 
ATOM     27  H   UNL     1       5.739   6.768  15.245  0.00  0.00    +0.000 HD
BRANCH  26  28
ATOM     28  CA  UNL     1       6.258   5.171  13.907  0.00  0.00    +0.000 C 
BRANCH  28  29
ATOM     29  C   UNL     1       5.357   3.926  13.873  0.00  0.00    +0.000 C 
ATOM     30  F   UNL     1       4.978   3.636  12.602  0.00  0.00    +0.000 F 
ATOM     31  F   UNL     1       6.067   2.845  14.301  0.00  0.00    +0.000 F 
ENDBRANCH  28  29
BRANCH  28  32
ATOM     32  C   UNL     1       7.696   4.776  13.531  0.00  0.00    +0.000 C 
BRANCH  32  33
ATOM     33  O   UNL     1       8.552   5.914  13.481  0.00  0.00    +0.000 OA
ATOM     34  H   UNL     1       8.650   6.145  12.538  0.00  0.00    +0.000 HD
ENDBRANCH  32  33
ENDBRANCH  28  32
ENDBRANCH  26  28
ENDBRANCH  20  25
ENDBRANCH   1  22
TORSDOF 7
ENDMDL
