MODEL 1
REMARK VINA RESULT:     -10.4      0.000      0.000
REMARK  Name = 
REMARK  8 active torsions:
REMARK  status: ('A' for Active; 'I' for Inactive)
REMARK    1  A    between atoms: C_1  and  C_2
REMARK    2  A    between atoms: C_2  and  C_3
REMARK    3  A    between atoms: C_2  and  C_4
REMARK    4  A    between atoms: C_2  and  C_5
REMARK    5  A    between atoms: N_7  and  C_8
REMARK    6  A    between atoms: N_7  and  C_29
REMARK    7  A    between atoms: C_8  and  C_9
REMARK    8  A    between atoms: C_10  and  C_11
REMARK                            x       y       z     vdW  Elec       q    Type
REMARK                         _______ _______ _______ _____ _____    ______ ____
ROOT
ATOM      1  C   UNL     1       3.961   6.330  19.050  0.00  0.00    +0.000 C 
ATOM      2  C   UNL     1       2.698   6.602  19.423  0.00  0.00    +0.000 C 
ENDROOT
BRANCH   2   3
ATOM      3  C   UNL     1       2.154   7.949  19.189  0.00  0.00    +0.000 A 
ATOM      4  C   UNL     1       2.456   8.684  18.037  0.00  0.00    +0.000 A 
ATOM      5  N   UNL     1       1.912   9.892  17.723  0.00  0.00    +0.000 NA
ATOM      6  C   UNL     1       1.006  10.362  18.595  0.00  0.00    +0.000 A 
ATOM      7  C   UNL     1       0.636   9.711  19.758  0.00  0.00    +0.000 A 
ATOM      8  C   UNL     1       1.218   8.492  20.078  0.00  0.00    +0.000 A 
ATOM      9  C   UNL     1      -0.414  10.449  20.513  0.00  0.00    +0.000 C 
ATOM     10  C   UNL     1      -0.656  11.710  19.646  0.00  0.00    +0.000 C 
ATOM     11  C   UNL     1       0.263  11.658  18.408  0.00  0.00    +0.000 C 
ATOM     12  C   UNL     1      -2.142  11.761  19.216  0.00  0.00    +0.000 C 
ATOM     13  O   UNL     1      -2.732  10.948  18.523  0.00  0.00    +0.000 OA
ATOM     14  N   UNL     1      -2.705  12.890  19.778  0.00  0.00    +0.000 N 
ATOM     15  C   UNL     1      -1.779  13.612  20.499  0.00  0.00    +0.000 A 
ATOM     16  N   UNL     1      -2.052  14.744  21.157  0.00  0.00    +0.000 NA
ATOM     17  C   UNL     1      -0.990  15.284  21.807  0.00  0.00    +0.000 A 
ATOM     18  C   UNL     1       0.291  14.736  21.808  0.00  0.00    +0.000 A 
ATOM     19  C   UNL     1       0.528  13.550  21.108  0.00  0.00    +0.000 A 
ATOM     20  C   UNL     1      -0.544  12.983  20.447  0.00  0.00    +0.000 A 
ATOM     21  H   UNL     1      -3.668  13.172  19.675  0.00  0.00    +0.000 HD
ENDBRANCH   2   3
BRANCH   1  22
ATOM     22  C   UNL     1       4.713   5.028  19.185  0.00  0.00    +0.000 C 
BRANCH  22  25
ATOM     23  C   UNL     1       5.436   4.271  16.823  0.00  0.00    +0.000 C 
ATOM     24  O   UNL     1       5.204   3.591  15.817  0.00  0.00    +0.000 OA
ATOM     25  N   UNL     1       4.630   4.182  17.972  0.00  0.00    +0.000 N 
BRANCH  25  26
ATOM     26  C   UNL     1       3.587   3.131  17.985  0.00  0.00    +0.000 C 
ATOM     27  C   UNL     1       2.419   3.485  17.039  0.00  0.00    +0.000 C 
ATOM     28  C   UNL     1       1.171   3.745  17.895  0.00  0.00    +0.000 C 
ATOM     29  C   UNL     1       1.560   3.233  19.246  0.00  0.00    +0.000 A 
ATOM     30  C   UNL     1       0.787   3.237  20.394  0.00  0.00    +0.000 A 
ATOM     31  C   UNL     1       1.376   2.835  21.594  0.00  0.00    +0.000 A 
ATOM     32  C   UNL     1       2.715   2.413  21.632  0.00  0.00    +0.000 A 
ATOM     33  C   UNL     1       3.493   2.426  20.476  0.00  0.00    +0.000 A 
ATOM     34  C   UNL     1       2.910   2.870  19.298  0.00  0.00    +0.000 A 
ENDBRANCH  25  26
BRANCH  23  36
ATOM     35  C   UNL     1       7.401   4.952  15.384  0.00  0.00    +0.000 C 
ATOM     36  C   UNL     1       6.697   5.154  16.761  0.00  0.00    +0.000 C 
ATOM     37  C   UNL     1       7.694   4.650  17.815  0.00  0.00    +0.000 C 
ATOM     38  C   UNL     1       6.359   6.649  16.828  0.00  0.00    +0.000 C 
ENDBRANCH  23  36
ENDBRANCH  22  25
ENDBRANCH   1  22
TORSDOF 5
ENDMDL
MODEL 2
REMARK VINA RESULT:      -9.5      1.578      4.157
REMARK  Name = 
REMARK  8 active torsions:
REMARK  status: ('A' for Active; 'I' for Inactive)
REMARK    1  A    between atoms: C_1  and  C_2
REMARK    2  A    between atoms: C_2  and  C_3
REMARK    3  A    between atoms: C_2  and  C_4
REMARK    4  A    between atoms: C_2  and  C_5
REMARK    5  A    between atoms: N_7  and  C_8
REMARK    6  A    between atoms: N_7  and  C_29
REMARK    7  A    between atoms: C_8  and  C_9
REMARK    8  A    between atoms: C_10  and  C_11
REMARK                            x       y       z     vdW  Elec       q    Type
REMARK                         _______ _______ _______ _____ _____    ______ ____
ROOT
ATOM      1  C   UNL     1       2.392   6.157  17.897  0.00  0.00    +0.000 C 
ATOM      2  C   UNL     1       3.101   7.299  17.867  0.00  0.00    +0.000 C 
ENDROOT
BRANCH   2   3
ATOM      3  C   UNL     1       2.434   8.567  18.203  0.00  0.00    +0.000 A 
ATOM      4  C   UNL     1       2.948   9.806  17.808  0.00  0.00    +0.000 A 
ATOM      5  N   UNL     1       2.330  11.003  18.008  0.00  0.00    +0.000 NA
ATOM      6  C   UNL     1       1.130  10.940  18.607  0.00  0.00    +0.000 A 
ATOM      7  C   UNL     1       0.533   9.766  19.031  0.00  0.00    +0.000 A 
ATOM      8  C   UNL     1       1.187   8.556  18.843  0.00  0.00    +0.000 A 
ATOM      9  C   UNL     1      -0.810   9.996  19.630  0.00  0.00    +0.000 C 
ATOM     10  C   UNL     1      -0.983  11.533  19.539  0.00  0.00    +0.000 C 
ATOM     11  C   UNL     1       0.271  12.145  18.881  0.00  0.00    +0.000 C 
ATOM     12  C   UNL     1      -2.246  11.859  18.705  0.00  0.00    +0.000 C 
ATOM     13  O   UNL     1      -2.440  11.584  17.533  0.00  0.00    +0.000 OA
ATOM     14  N   UNL     1      -3.142  12.506  19.534  0.00  0.00    +0.000 N 
ATOM     15  C   UNL     1      -2.627  12.679  20.800  0.00  0.00    +0.000 A 
ATOM     16  N   UNL     1      -3.282  13.266  21.808  0.00  0.00    +0.000 NA
ATOM     17  C   UNL     1      -2.585  13.323  22.971  0.00  0.00    +0.000 A 
ATOM     18  C   UNL     1      -1.295  12.826  23.138  0.00  0.00    +0.000 A 
ATOM     19  C   UNL     1      -0.650  12.219  22.057  0.00  0.00    +0.000 A 
ATOM     20  C   UNL     1      -1.348  12.146  20.868  0.00  0.00    +0.000 A 
ATOM     21  H   UNL     1      -4.058  12.827  19.261  0.00  0.00    +0.000 HD
ENDBRANCH   2   3
BRANCH   1  22
ATOM     22  C   UNL     1       2.870   4.756  17.600  0.00  0.00    +0.000 C 
BRANCH  22  25
ATOM     23  C   UNL     1       3.095   3.640  19.918  0.00  0.00    +0.000 C 
ATOM     24  O   UNL     1       3.827   3.263  20.841  0.00  0.00    +0.000 OA
ATOM     25  N   UNL     1       3.626   4.150  18.720  0.00  0.00    +0.000 N 
BRANCH  25  26
ATOM     26  C   UNL     1       5.094   4.076  18.547  0.00  0.00    +0.000 C 
ATOM     27  C   UNL     1       5.810   5.202  19.326  0.00  0.00    +0.000 C 
ATOM     28  C   UNL     1       6.446   6.158  18.307  0.00  0.00    +0.000 C 
ATOM     29  C   UNL     1       6.358   5.407  17.016  0.00  0.00    +0.000 A 
ATOM     30  C   UNL     1       6.788   5.832  15.772  0.00  0.00    +0.000 A 
ATOM     31  C   UNL     1       6.497   5.040  14.660  0.00  0.00    +0.000 A 
ATOM     32  C   UNL     1       5.805   3.827  14.804  0.00  0.00    +0.000 A 
ATOM     33  C   UNL     1       5.360   3.410  16.058  0.00  0.00    +0.000 A 
ATOM     34  C   UNL     1       5.616   4.228  17.149  0.00  0.00    +0.000 A 
ENDBRANCH  25  26
BRANCH  23  36
ATOM     35  C   UNL     1       1.355   2.589  21.424  0.00  0.00    +0.000 C 
ATOM     36  C   UNL     1       1.583   3.441  20.138  0.00  0.00    +0.000 C 
ATOM     37  C   UNL     1       1.032   2.598  18.979  0.00  0.00    +0.000 C 
ATOM     38  C   UNL     1       0.857   4.768  20.396  0.00  0.00    +0.000 C 
ENDBRANCH  23  36
ENDBRANCH  22  25
ENDBRANCH   1  22
TORSDOF 5
ENDMDL
MODEL 3
REMARK VINA RESULT:      -9.5      1.846      4.575
REMARK  Name = 
REMARK  8 active torsions:
REMARK  status: ('A' for Active; 'I' for Inactive)
REMARK    1  A    between atoms: C_1  and  C_2
REMARK    2  A    between atoms: C_2  and  C_3
REMARK    3  A    between atoms: C_2  and  C_4
REMARK    4  A    between atoms: C_2  and  C_5
REMARK    5  A    between atoms: N_7  and  C_8
REMARK    6  A    between atoms: N_7  and  C_29
REMARK    7  A    between atoms: C_8  and  C_9
REMARK    8  A    between atoms: C_10  and  C_11
REMARK                            x       y       z     vdW  Elec       q    Type
REMARK                         _______ _______ _______ _____ _____    ______ ____
ROOT
ATOM      1  C   UNL     1       2.749   6.679  18.487  0.00  0.00    +0.000 C 
ATOM      2  C   UNL     1       2.279   7.873  18.086  0.00  0.00    +0.000 C 
ENDROOT
BRANCH   2   3
ATOM      3  C   UNL     1       1.603   8.742  19.063  0.00  0.00    +0.000 A 
ATOM      4  C   UNL     1       1.432   8.368  20.399  0.00  0.00    +0.000 A 
ATOM      5  N   UNL     1       0.899   9.164  21.367  0.00  0.00    +0.000 NA
ATOM      6  C   UNL     1       0.553  10.399  20.971  0.00  0.00    +0.000 A 
ATOM      7  C   UNL     1       0.686  10.867  19.676  0.00  0.00    +0.000 A 
ATOM      8  C   UNL     1       1.207  10.035  18.695  0.00  0.00    +0.000 A 
ATOM      9  C   UNL     1       0.253  12.285  19.536  0.00  0.00    +0.000 C 
ATOM     10  C   UNL     1      -0.204  12.661  20.968  0.00  0.00    +0.000 C 
ATOM     11  C   UNL     1      -0.015  11.443  21.896  0.00  0.00    +0.000 C 
ATOM     12  C   UNL     1       0.630  13.863  21.475  0.00  0.00    +0.000 C 
ATOM     13  O   UNL     1       1.835  13.893  21.655  0.00  0.00    +0.000 OA
ATOM     14  N   UNL     1      -0.235  14.922  21.671  0.00  0.00    +0.000 N 
ATOM     15  C   UNL     1      -1.538  14.571  21.389  0.00  0.00    +0.000 A 
ATOM     16  N   UNL     1      -2.580  15.404  21.483  0.00  0.00    +0.000 NA
ATOM     17  C   UNL     1      -3.772  14.847  21.150  0.00  0.00    +0.000 A 
ATOM     18  C   UNL     1      -3.936  13.525  20.746  0.00  0.00    +0.000 A 
ATOM     19  C   UNL     1      -2.817  12.693  20.660  0.00  0.00    +0.000 A 
ATOM     20  C   UNL     1      -1.594  13.245  20.988  0.00  0.00    +0.000 A 
ATOM     21  H   UNL     1       0.034  15.841  21.989  0.00  0.00    +0.000 HD
ENDBRANCH   2   3
BRANCH   1  22
ATOM     22  C   UNL     1       3.475   5.639  17.665  0.00  0.00    +0.000 C 
BRANCH  22  25
ATOM     23  C   UNL     1       3.424   3.732  19.406  0.00  0.00    +0.000 C 
ATOM     24  O   UNL     1       4.050   2.949  20.131  0.00  0.00    +0.000 OA
ATOM     25  N   UNL     1       4.083   4.570  18.489  0.00  0.00    +0.000 N 
BRANCH  25  26
ATOM     26  C   UNL     1       5.540   4.369  18.317  0.00  0.00    +0.000 C 
ATOM     27  C   UNL     1       6.349   5.482  19.019  0.00  0.00    +0.000 C 
ATOM     28  C   UNL     1       7.051   6.317  17.938  0.00  0.00    +0.000 C 
ATOM     29  C   UNL     1       6.893   5.493  16.699  0.00  0.00    +0.000 A 
ATOM     30  C   UNL     1       7.346   5.801  15.429  0.00  0.00    +0.000 A 
ATOM     31  C   UNL     1       6.984   4.963  14.372  0.00  0.00    +0.000 A 
ATOM     32  C   UNL     1       6.199   3.821  14.596  0.00  0.00    +0.000 A 
ATOM     33  C   UNL     1       5.733   3.524  15.876  0.00  0.00    +0.000 A 
ATOM     34  C   UNL     1       6.062   4.388  16.911  0.00  0.00    +0.000 A 
ENDBRANCH  25  26
BRANCH  23  36
ATOM     35  C   UNL     1       1.470   2.299  20.129  0.00  0.00    +0.000 C 
ATOM     36  C   UNL     1       1.889   3.672  19.519  0.00  0.00    +0.000 C 
ATOM     37  C   UNL     1       1.297   3.693  18.102  0.00  0.00    +0.000 C 
ATOM     38  C   UNL     1       1.338   4.729  20.484  0.00  0.00    +0.000 C 
ENDBRANCH  23  36
ENDBRANCH  22  25
ENDBRANCH   1  22
TORSDOF 5
ENDMDL
MODEL 4
REMARK VINA RESULT:      -9.3      1.226      4.026
REMARK  Name = 
REMARK  8 active torsions:
REMARK  status: ('A' for Active; 'I' for Inactive)
REMARK    1  A    between atoms: C_1  and  C_2
REMARK    2  A    between atoms: C_2  and  C_3
REMARK    3  A    between atoms: C_2  and  C_4
REMARK    4  A    between atoms: C_2  and  C_5
REMARK    5  A    between atoms: N_7  and  C_8
REMARK    6  A    between atoms: N_7  and  C_29
REMARK    7  A    between atoms: C_8  and  C_9
REMARK    8  A    between atoms: C_10  and  C_11
REMARK                            x       y       z     vdW  Elec       q    Type
REMARK                         _______ _______ _______ _____ _____    ______ ____
ROOT
ATOM      1  C   UNL     1       2.481   5.943  17.767  0.00  0.00    +0.000 C 
ATOM      2  C   UNL     1       2.582   6.721  18.858  0.00  0.00    +0.000 C 
ENDROOT
BRANCH   2   3
ATOM      3  C   UNL     1       2.117   8.116  18.791  0.00  0.00    +0.000 A 
ATOM      4  C   UNL     1       2.471   8.968  17.740  0.00  0.00    +0.000 A 
ATOM      5  N   UNL     1       1.999  10.234  17.575  0.00  0.00    +0.000 NA
ATOM      6  C   UNL     1       1.111  10.644  18.495  0.00  0.00    +0.000 A 
ATOM      7  C   UNL     1       0.692   9.877  19.567  0.00  0.00    +0.000 A 
ATOM      8  C   UNL     1       1.202   8.596  19.737  0.00  0.00    +0.000 A 
ATOM      9  C   UNL     1      -0.323  10.574  20.403  0.00  0.00    +0.000 C 
ATOM     10  C   UNL     1      -0.485  11.944  19.698  0.00  0.00    +0.000 C 
ATOM     11  C   UNL     1       0.443  11.993  18.467  0.00  0.00    +0.000 C 
ATOM     12  C   UNL     1      -1.961  12.131  19.272  0.00  0.00    +0.000 C 
ATOM     13  O   UNL     1      -2.587  11.445  18.482  0.00  0.00    +0.000 OA
ATOM     14  N   UNL     1      -2.466  13.213  19.967  0.00  0.00    +0.000 N 
ATOM     15  C   UNL     1      -1.510  13.787  20.776  0.00  0.00    +0.000 A 
ATOM     16  N   UNL     1      -1.726  14.843  21.567  0.00  0.00    +0.000 NA
ATOM     17  C   UNL     1      -0.643  15.237  22.283  0.00  0.00    +0.000 A 
ATOM     18  C   UNL     1       0.605  14.622  22.222  0.00  0.00    +0.000 A 
ATOM     19  C   UNL     1       0.783  13.520  21.382  0.00  0.00    +0.000 A 
ATOM     20  C   UNL     1      -0.311  13.100  20.651  0.00  0.00    +0.000 A 
ATOM     21  H   UNL     1      -3.411  13.560  19.896  0.00  0.00    +0.000 HD
ENDBRANCH   2   3
BRANCH   1  22
ATOM     22  C   UNL     1       2.884   4.495  17.614  0.00  0.00    +0.000 C 
BRANCH  22  25
ATOM     23  C   UNL     1       3.261   3.472  19.955  0.00  0.00    +0.000 C 
ATOM     24  O   UNL     1       4.043   3.199  20.874  0.00  0.00    +0.000 OA
ATOM     25  N   UNL     1       3.717   4.003  18.736  0.00  0.00    +0.000 N 
BRANCH  25  26
ATOM     26  C   UNL     1       5.182   4.080  18.538  0.00  0.00    +0.000 C 
ATOM     27  C   UNL     1       5.784   5.307  19.257  0.00  0.00    +0.000 C 
ATOM     28  C   UNL     1       6.298   6.283  18.190  0.00  0.00    +0.000 C 
ATOM     29  C   UNL     1       6.273   5.473  16.932  0.00  0.00    +0.000 A 
ATOM     30  C   UNL     1       6.637   5.889  15.663  0.00  0.00    +0.000 A 
ATOM     31  C   UNL     1       6.417   5.024  14.590  0.00  0.00    +0.000 A 
ATOM     32  C   UNL     1       5.862   3.751  14.795  0.00  0.00    +0.000 A 
ATOM     33  C   UNL     1       5.482   3.342  16.073  0.00  0.00    +0.000 A 
ATOM     34  C   UNL     1       5.664   4.228  17.125  0.00  0.00    +0.000 A 
ENDBRANCH  25  26
BRANCH  23  36
ATOM     35  C   UNL     1       1.659   2.327  21.543  0.00  0.00    +0.000 C 
ATOM     36  C   UNL     1       1.782   3.121  20.206  0.00  0.00    +0.000 C 
ATOM     37  C   UNL     1       1.320   2.154  19.107  0.00  0.00    +0.000 C 
ATOM     38  C   UNL     1       0.915   4.372  20.397  0.00  0.00    +0.000 C 
ENDBRANCH  23  36
ENDBRANCH  22  25
ENDBRANCH   1  22
TORSDOF 5
ENDMDL
MODEL 5
REMARK VINA RESULT:      -9.2      2.526      4.914
REMARK  Name = 
REMARK  8 active torsions:
REMARK  status: ('A' for Active; 'I' for Inactive)
REMARK    1  A    between atoms: C_1  and  C_2
REMARK    2  A    between atoms: C_2  and  C_3
REMARK    3  A    between atoms: C_2  and  C_4
REMARK    4  A    between atoms: C_2  and  C_5
REMARK    5  A    between atoms: N_7  and  C_8
REMARK    6  A    between atoms: N_7  and  C_29
REMARK    7  A    between atoms: C_8  and  C_9
REMARK    8  A    between atoms: C_10  and  C_11
REMARK                            x       y       z     vdW  Elec       q    Type
REMARK                         _______ _______ _______ _____ _____    ______ ____
ROOT
ATOM      1  C   UNL     1       2.860   7.079  18.207  0.00  0.00    +0.000 C 
ATOM      2  C   UNL     1       2.085   8.024  17.648  0.00  0.00    +0.000 C 
ENDROOT
BRANCH   2   3
ATOM      3  C   UNL     1       1.750   9.229  18.423  0.00  0.00    +0.000 A 
ATOM      4  C   UNL     1       1.072   9.163  19.645  0.00  0.00    +0.000 A 
ATOM      5  N   UNL     1       0.816  10.231  20.449  0.00  0.00    +0.000 NA
ATOM      6  C   UNL     1       1.291  11.409  20.013  0.00  0.00    +0.000 A 
ATOM      7  C   UNL     1       1.977  11.579  18.824  0.00  0.00    +0.000 A 
ATOM      8  C   UNL     1       2.207  10.484  18.001  0.00  0.00    +0.000 A 
ATOM      9  C   UNL     1       2.414  12.987  18.615  0.00  0.00    +0.000 C 
ATOM     10  C   UNL     1       1.878  13.716  19.872  0.00  0.00    +0.000 C 
ATOM     11  C   UNL     1       1.149  12.700  20.775  0.00  0.00    +0.000 C 
ATOM     12  C   UNL     1       3.060  14.367  20.631  0.00  0.00    +0.000 C 
ATOM     13  O   UNL     1       4.005  13.791  21.144  0.00  0.00    +0.000 OA
ATOM     14  N   UNL     1       2.871  15.735  20.611  0.00  0.00    +0.000 N 
ATOM     15  C   UNL     1       1.703  16.076  19.964  0.00  0.00    +0.000 A 
ATOM     16  N   UNL     1       1.277  17.331  19.789  0.00  0.00    +0.000 NA
ATOM     17  C   UNL     1       0.103  17.435  19.117  0.00  0.00    +0.000 A 
ATOM     18  C   UNL     1      -0.627  16.349  18.639  0.00  0.00    +0.000 A 
ATOM     19  C   UNL     1      -0.141  15.055  18.844  0.00  0.00    +0.000 A 
ATOM     20  C   UNL     1       1.057  14.932  19.520  0.00  0.00    +0.000 A 
ATOM     21  H   UNL     1       3.494  16.413  21.022  0.00  0.00    +0.000 HD
ENDBRANCH   2   3
BRANCH   1  22
ATOM     22  C   UNL     1       3.331   5.779  17.599  0.00  0.00    +0.000 C 
BRANCH  22  25
ATOM     23  C   UNL     1       3.284   4.203  19.645  0.00  0.00    +0.000 C 
ATOM     24  O   UNL     1       3.911   3.551  20.488  0.00  0.00    +0.000 OA
ATOM     25  N   UNL     1       3.940   4.862  18.589  0.00  0.00    +0.000 N 
BRANCH  25  26
ATOM     26  C   UNL     1       5.393   4.618  18.440  0.00  0.00    +0.000 C 
ATOM     27  C   UNL     1       6.222   5.772  19.044  0.00  0.00    +0.000 C 
ATOM     28  C   UNL     1       6.941   6.496  17.897  0.00  0.00    +0.000 C 
ATOM     29  C   UNL     1       6.769   5.570  16.734  0.00  0.00    +0.000 A 
ATOM     30  C   UNL     1       7.229   5.758  15.443  0.00  0.00    +0.000 A 
ATOM     31  C   UNL     1       6.852   4.839  14.462  0.00  0.00    +0.000 A 
ATOM     32  C   UNL     1       6.044   3.737  14.782  0.00  0.00    +0.000 A 
ATOM     33  C   UNL     1       5.571   3.560  16.081  0.00  0.00    +0.000 A 
ATOM     34  C   UNL     1       5.915   4.504  17.038  0.00  0.00    +0.000 A 
ENDBRANCH  25  26
BRANCH  23  36
ATOM     35  C   UNL     1       1.332   2.996  20.708  0.00  0.00    +0.000 C 
ATOM     36  C   UNL     1       1.750   4.180  19.783  0.00  0.00    +0.000 C 
ATOM     37  C   UNL     1       1.144   3.863  18.408  0.00  0.00    +0.000 C 
ATOM     38  C   UNL     1       1.213   5.441  20.470  0.00  0.00    +0.000 C 
ENDBRANCH  23  36
ENDBRANCH  22  25
ENDBRANCH   1  22
TORSDOF 5
ENDMDL
MODEL 6
REMARK VINA RESULT:      -9.1      1.556      2.693
REMARK  Name = 
REMARK  8 active torsions:
REMARK  status: ('A' for Active; 'I' for Inactive)
REMARK    1  A    between atoms: C_1  and  C_2
REMARK    2  A    between atoms: C_2  and  C_3
REMARK    3  A    between atoms: C_2  and  C_4
REMARK    4  A    between atoms: C_2  and  C_5
REMARK    5  A    between atoms: N_7  and  C_8
REMARK    6  A    between atoms: N_7  and  C_29
REMARK    7  A    between atoms: C_8  and  C_9
REMARK    8  A    between atoms: C_10  and  C_11
REMARK                            x       y       z     vdW  Elec       q    Type
REMARK                         _______ _______ _______ _____ _____    ______ ____
ROOT
ATOM      1  C   UNL     1       3.876   5.755  19.412  0.00  0.00    +0.000 C 
ATOM      2  C   UNL     1       3.490   6.822  18.693  0.00  0.00    +0.000 C 
ENDROOT
BRANCH   2   3
ATOM      3  C   UNL     1       2.323   7.602  19.135  0.00  0.00    +0.000 A 
ATOM      4  C   UNL     1       1.888   7.601  20.464  0.00  0.00    +0.000 A 
ATOM      5  N   UNL     1       0.876   8.371  20.951  0.00  0.00    +0.000 NA
ATOM      6  C   UNL     1       0.301   9.197  20.062  0.00  0.00    +0.000 A 
ATOM      7  C   UNL     1       0.661   9.278  18.729  0.00  0.00    +0.000 A 
ATOM      8  C   UNL     1       1.677   8.467  18.242  0.00  0.00    +0.000 A 
ATOM      9  C   UNL     1      -0.124  10.304  17.989  0.00  0.00    +0.000 C 
ATOM     10  C   UNL     1      -1.076  10.873  19.071  0.00  0.00    +0.000 C 
ATOM     11  C   UNL     1      -0.806  10.157  20.410  0.00  0.00    +0.000 C 
ATOM     12  C   UNL     1      -0.840  12.396  19.213  0.00  0.00    +0.000 C 
ATOM     13  O   UNL     1       0.189  12.947  19.568  0.00  0.00    +0.000 OA
ATOM     14  N   UNL     1      -2.005  13.039  18.842  0.00  0.00    +0.000 N 
ATOM     15  C   UNL     1      -2.993  12.141  18.501  0.00  0.00    +0.000 A 
ATOM     16  N   UNL     1      -4.219  12.487  18.094  0.00  0.00    +0.000 NA
ATOM     17  C   UNL     1      -5.028  11.438  17.804  0.00  0.00    +0.000 A 
ATOM     18  C   UNL     1      -4.652  10.101  17.912  0.00  0.00    +0.000 A 
ATOM     19  C   UNL     1      -3.359   9.788  18.340  0.00  0.00    +0.000 A 
ATOM     20  C   UNL     1      -2.519  10.844  18.632  0.00  0.00    +0.000 A 
ATOM     21  H   UNL     1      -2.137  14.039  18.826  0.00  0.00    +0.000 HD
ENDBRANCH   2   3
BRANCH   1  22
ATOM     22  C   UNL     1       5.037   4.824  19.151  0.00  0.00    +0.000 C 
BRANCH  22  25
ATOM     23  C   UNL     1       5.644   4.144  16.734  0.00  0.00    +0.000 C 
ATOM     24  O   UNL     1       5.350   3.516  15.710  0.00  0.00    +0.000 OA
ATOM     25  N   UNL     1       4.878   4.034  17.908  0.00  0.00    +0.000 N 
BRANCH  25  26
ATOM     26  C   UNL     1       3.798   3.021  17.918  0.00  0.00    +0.000 C 
ATOM     27  C   UNL     1       2.654   3.409  16.956  0.00  0.00    +0.000 C 
ATOM     28  C   UNL     1       1.407   3.720  17.796  0.00  0.00    +0.000 C 
ATOM     29  C   UNL     1       1.763   3.206  19.156  0.00  0.00    +0.000 A 
ATOM     30  C   UNL     1       0.978   3.247  20.295  0.00  0.00    +0.000 A 
ATOM     31  C   UNL     1       1.539   2.835  21.505  0.00  0.00    +0.000 A 
ATOM     32  C   UNL     1       2.861   2.366  21.561  0.00  0.00    +0.000 A 
ATOM     33  C   UNL     1       3.653   2.341  20.413  0.00  0.00    +0.000 A 
ATOM     34  C   UNL     1       3.098   2.795  19.225  0.00  0.00    +0.000 A 
ENDBRANCH  25  26
BRANCH  23  36
ATOM     35  C   UNL     1       6.587   6.485  16.904  0.00  0.00    +0.000 C 
ATOM     36  C   UNL     1       6.934   4.984  16.660  0.00  0.00    +0.000 C 
ATOM     37  C   UNL     1       7.478   4.912  15.226  0.00  0.00    +0.000 C 
ATOM     38  C   UNL     1       7.929   4.613  17.767  0.00  0.00    +0.000 C 
ENDBRANCH  23  36
ENDBRANCH  22  25
ENDBRANCH   1  22
TORSDOF 5
ENDMDL
MODEL 7
REMARK VINA RESULT:      -9.0      0.907      1.165
REMARK  Name = 
REMARK  8 active torsions:
REMARK  status: ('A' for Active; 'I' for Inactive)
REMARK    1  A    between atoms: C_1  and  C_2
REMARK    2  A    between atoms: C_2  and  C_3
REMARK    3  A    between atoms: C_2  and  C_4
REMARK    4  A    between atoms: C_2  and  C_5
REMARK    5  A    between atoms: N_7  and  C_8
REMARK    6  A    between atoms: N_7  and  C_29
REMARK    7  A    between atoms: C_8  and  C_9
REMARK    8  A    between atoms: C_10  and  C_11
REMARK                            x       y       z     vdW  Elec       q    Type
REMARK                         _______ _______ _______ _____ _____    ______ ____
ROOT
ATOM      1  C   UNL     1       3.972   6.428  19.209  0.00  0.00    +0.000 C 
ATOM      2  C   UNL     1       3.289   6.970  18.186  0.00  0.00    +0.000 C 
ENDROOT
BRANCH   2   3
ATOM      3  C   UNL     1       2.612   8.262  18.380  0.00  0.00    +0.000 A 
ATOM      4  C   UNL     1       3.094   9.447  17.814  0.00  0.00    +0.000 A 
ATOM      5  N   UNL     1       2.464  10.652  17.880  0.00  0.00    +0.000 NA
ATOM      6  C   UNL     1       1.284  10.651  18.521  0.00  0.00    +0.000 A 
ATOM      7  C   UNL     1       0.719   9.534  19.109  0.00  0.00    +0.000 A 
ATOM      8  C   UNL     1       1.386   8.317  19.055  0.00  0.00    +0.000 A 
ATOM      9  C   UNL     1      -0.610   9.821  19.717  0.00  0.00    +0.000 C 
ATOM     10  C   UNL     1      -0.810  11.332  19.437  0.00  0.00    +0.000 C 
ATOM     11  C   UNL     1       0.413  11.871  18.667  0.00  0.00    +0.000 C 
ATOM     12  C   UNL     1      -2.103  11.534  18.610  0.00  0.00    +0.000 C 
ATOM     13  O   UNL     1      -2.328  11.109  17.489  0.00  0.00    +0.000 OA
ATOM     14  N   UNL     1      -2.984  12.270  19.378  0.00  0.00    +0.000 N 
ATOM     15  C   UNL     1      -2.433  12.609  20.595  0.00  0.00    +0.000 A 
ATOM     16  N   UNL     1      -3.067  13.312  21.540  0.00  0.00    +0.000 NA
ATOM     17  C   UNL     1      -2.336  13.524  22.664  0.00  0.00    +0.000 A 
ATOM     18  C   UNL     1      -1.034  13.069  22.852  0.00  0.00    +0.000 A 
ATOM     19  C   UNL     1      -0.413  12.337  21.837  0.00  0.00    +0.000 A 
ATOM     20  C   UNL     1      -1.145  12.104  20.688  0.00  0.00    +0.000 A 
ATOM     21  H   UNL     1      -3.913  12.543  19.096  0.00  0.00    +0.000 HD
ENDBRANCH   2   3
BRANCH   1  22
ATOM     22  C   UNL     1       4.741   5.128  19.232  0.00  0.00    +0.000 C 
BRANCH  22  25
ATOM     23  C   UNL     1       5.348   4.443  16.817  0.00  0.00    +0.000 C 
ATOM     24  O   UNL     1       5.053   3.815  15.793  0.00  0.00    +0.000 OA
ATOM     25  N   UNL     1       4.580   4.337  17.990  0.00  0.00    +0.000 N 
BRANCH  25  26
ATOM     26  C   UNL     1       3.496   3.329  17.999  0.00  0.00    +0.000 C 
ATOM     27  C   UNL     1       2.364   3.711  17.020  0.00  0.00    +0.000 C 
ATOM     28  C   UNL     1       1.109   4.036  17.842  0.00  0.00    +0.000 C 
ATOM     29  C   UNL     1       1.447   3.537  19.212  0.00  0.00    +0.000 A 
ATOM     30  C   UNL     1       0.650   3.594  20.341  0.00  0.00    +0.000 A 
ATOM     31  C   UNL     1       1.196   3.193  21.562  0.00  0.00    +0.000 A 
ATOM     32  C   UNL     1       2.515   2.719  21.638  0.00  0.00    +0.000 A 
ATOM     33  C   UNL     1       3.319   2.678  20.500  0.00  0.00    +0.000 A 
ATOM     34  C   UNL     1       2.780   3.121  19.301  0.00  0.00    +0.000 A 
ENDBRANCH  25  26
BRANCH  23  36
ATOM     35  C   UNL     1       6.286   6.791  16.858  0.00  0.00    +0.000 C 
ATOM     36  C   UNL     1       6.641   5.276  16.744  0.00  0.00    +0.000 C 
ATOM     37  C   UNL     1       7.254   5.099  15.347  0.00  0.00    +0.000 C 
ATOM     38  C   UNL     1       7.581   4.990  17.922  0.00  0.00    +0.000 C 
ENDBRANCH  23  36
ENDBRANCH  22  25
ENDBRANCH   1  22
TORSDOF 5
ENDMDL
MODEL 8
REMARK VINA RESULT:      -8.9      1.448      2.315
REMARK  Name = 
REMARK  8 active torsions:
REMARK  status: ('A' for Active; 'I' for Inactive)
REMARK    1  A    between atoms: C_1  and  C_2
REMARK    2  A    between atoms: C_2  and  C_3
REMARK    3  A    between atoms: C_2  and  C_4
REMARK    4  A    between atoms: C_2  and  C_5
REMARK    5  A    between atoms: N_7  and  C_8
REMARK    6  A    between atoms: N_7  and  C_29
REMARK    7  A    between atoms: C_8  and  C_9
REMARK    8  A    between atoms: C_10  and  C_11
REMARK                            x       y       z     vdW  Elec       q    Type
REMARK                         _______ _______ _______ _____ _____    ______ ____
ROOT
ATOM      1  C   UNL     1       3.961   5.691  19.589  0.00  0.00    +0.000 C 
ATOM      2  C   UNL     1       3.223   6.527  18.838  0.00  0.00    +0.000 C 
ENDROOT
BRANCH   2   3
ATOM      3  C   UNL     1       2.245   7.408  19.496  0.00  0.00    +0.000 A 
ATOM      4  C   UNL     1       1.714   7.120  20.757  0.00  0.00    +0.000 A 
ATOM      5  N   UNL     1       0.879   7.939  21.454  0.00  0.00    +0.000 NA
ATOM      6  C   UNL     1       0.594   9.110  20.862  0.00  0.00    +0.000 A 
ATOM      7  C   UNL     1       1.071   9.492  19.622  0.00  0.00    +0.000 A 
ATOM      8  C   UNL     1       1.901   8.634  18.911  0.00  0.00    +0.000 A 
ATOM      9  C   UNL     1       0.619  10.856  19.233  0.00  0.00    +0.000 C 
ATOM     10  C   UNL     1      -0.255  11.297  20.434  0.00  0.00    +0.000 C 
ATOM     11  C   UNL     1      -0.276  10.170  21.486  0.00  0.00    +0.000 C 
ATOM     12  C   UNL     1       0.327  12.596  21.042  0.00  0.00    +0.000 C 
ATOM     13  O   UNL     1       1.424  12.737  21.555  0.00  0.00    +0.000 OA
ATOM     14  N   UNL     1      -0.616  13.594  20.884  0.00  0.00    +0.000 N 
ATOM     15  C   UNL     1      -1.759  13.119  20.277  0.00  0.00    +0.000 A 
ATOM     16  N   UNL     1      -2.828  13.870  19.992  0.00  0.00    +0.000 NA
ATOM     17  C   UNL     1      -3.839  13.196  19.387  0.00  0.00    +0.000 A 
ATOM     18  C   UNL     1      -3.804  11.839  19.077  0.00  0.00    +0.000 A 
ATOM     19  C   UNL     1      -2.663  11.095  19.392  0.00  0.00    +0.000 A 
ATOM     20  C   UNL     1      -1.622  11.767  20.002  0.00  0.00    +0.000 A 
ATOM     21  H   UNL     1      -0.503  14.552  21.178  0.00  0.00    +0.000 HD
ENDBRANCH   2   3
BRANCH   1  22
ATOM     22  C   UNL     1       5.019   4.715  19.131  0.00  0.00    +0.000 C 
BRANCH  22  25
ATOM     23  C   UNL     1       5.292   4.271  16.601  0.00  0.00    +0.000 C 
ATOM     24  O   UNL     1       4.853   3.751  15.568  0.00  0.00    +0.000 OA
ATOM     25  N   UNL     1       4.682   4.054  17.849  0.00  0.00    +0.000 N 
BRANCH  25  26
ATOM     26  C   UNL     1       3.589   3.057  17.902  0.00  0.00    +0.000 C 
ATOM     27  C   UNL     1       2.400   3.478  17.010  0.00  0.00    +0.000 C 
ATOM     28  C   UNL     1       1.206   3.793  17.922  0.00  0.00    +0.000 C 
ATOM     29  C   UNL     1       1.627   3.251  19.252  0.00  0.00    +0.000 A 
ATOM     30  C   UNL     1       0.906   3.285  20.433  0.00  0.00    +0.000 A 
ATOM     31  C   UNL     1       1.526   2.844  21.604  0.00  0.00    +0.000 A 
ATOM     32  C   UNL     1       2.842   2.355  21.580  0.00  0.00    +0.000 A 
ATOM     33  C   UNL     1       3.568   2.337  20.391  0.00  0.00    +0.000 A 
ATOM     34  C   UNL     1       2.957   2.820  19.242  0.00  0.00    +0.000 A 
ENDBRANCH  25  26
BRANCH  23  36
ATOM     35  C   UNL     1       6.260   6.607  16.684  0.00  0.00    +0.000 C 
ATOM     36  C   UNL     1       6.581   5.100  16.441  0.00  0.00    +0.000 C 
ATOM     37  C   UNL     1       7.039   5.005  14.978  0.00  0.00    +0.000 C 
ATOM     38  C   UNL     1       7.637   4.736  17.492  0.00  0.00    +0.000 C 
ENDBRANCH  23  36
ENDBRANCH  22  25
ENDBRANCH   1  22
TORSDOF 5
ENDMDL
MODEL 9
REMARK VINA RESULT:      -8.8      2.676     10.673
REMARK  Name = 
REMARK  8 active torsions:
REMARK  status: ('A' for Active; 'I' for Inactive)
REMARK    1  A    between atoms: C_1  and  C_2
REMARK    2  A    between atoms: C_2  and  C_3
REMARK    3  A    between atoms: C_2  and  C_4
REMARK    4  A    between atoms: C_2  and  C_5
REMARK    5  A    between atoms: N_7  and  C_8
REMARK    6  A    between atoms: N_7  and  C_29
REMARK    7  A    between atoms: C_8  and  C_9
REMARK    8  A    between atoms: C_10  and  C_11
REMARK                            x       y       z     vdW  Elec       q    Type
REMARK                         _______ _______ _______ _____ _____    ______ ____
ROOT
ATOM      1  C   UNL     1      -1.289  11.219  19.180  0.00  0.00    +0.000 C 
ATOM      2  C   UNL     1       0.043  11.249  19.001  0.00  0.00    +0.000 C 
ENDROOT
BRANCH   2   3
ATOM      3  C   UNL     1       0.823  10.017  19.200  0.00  0.00    +0.000 A 
ATOM      4  C   UNL     1       0.898   9.376  20.441  0.00  0.00    +0.000 A 
ATOM      5  N   UNL     1       1.524   8.188  20.665  0.00  0.00    +0.000 NA
ATOM      6  C   UNL     1       2.072   7.612  19.583  0.00  0.00    +0.000 A 
ATOM      7  C   UNL     1       2.048   8.160  18.314  0.00  0.00    +0.000 A 
ATOM      8  C   UNL     1       1.427   9.385  18.106  0.00  0.00    +0.000 A 
ATOM      9  C   UNL     1       2.703   7.284  17.303  0.00  0.00    +0.000 C 
ATOM     10  C   UNL     1       3.176   6.069  18.139  0.00  0.00    +0.000 C 
ATOM     11  C   UNL     1       2.773   6.279  19.613  0.00  0.00    +0.000 C 
ATOM     12  C   UNL     1       2.531   4.778  17.580  0.00  0.00    +0.000 C 
ATOM     13  O   UNL     1       1.340   4.515  17.535  0.00  0.00    +0.000 OA
ATOM     14  N   UNL     1       3.547   3.968  17.111  0.00  0.00    +0.000 N 
ATOM     15  C   UNL     1       4.784   4.539  17.314  0.00  0.00    +0.000 A 
ATOM     16  N   UNL     1       5.942   3.979  16.948  0.00  0.00    +0.000 NA
ATOM     17  C   UNL     1       7.040   4.722  17.239  0.00  0.00    +0.000 A 
ATOM     18  C   UNL     1       7.003   5.964  17.868  0.00  0.00    +0.000 A 
ATOM     19  C   UNL     1       5.769   6.511  18.230  0.00  0.00    +0.000 A 
ATOM     20  C   UNL     1       4.641   5.771  17.934  0.00  0.00    +0.000 A 
ATOM     21  H   UNL     1       3.418   3.065  16.681  0.00  0.00    +0.000 HD
ENDBRANCH   2   3
BRANCH   1  22
ATOM     22  C   UNL     1      -2.276  12.351  19.024  0.00  0.00    +0.000 C 
BRANCH  22  25
ATOM     23  C   UNL     1      -3.395  12.615  21.337  0.00  0.00    +0.000 C 
ATOM     24  O   UNL     1      -4.367  12.394  22.069  0.00  0.00    +0.000 OA
ATOM     25  N   UNL     1      -3.409  12.268  19.974  0.00  0.00    +0.000 N 
BRANCH  25  26
ATOM     26  C   UNL     1      -4.687  11.769  19.417  0.00  0.00    +0.000 C 
ATOM     27  C   UNL     1      -4.450  10.843  18.204  0.00  0.00    +0.000 C 
ATOM     28  C   UNL     1      -4.992  11.546  16.952  0.00  0.00    +0.000 C 
ATOM     29  C   UNL     1      -5.794  12.682  17.506  0.00  0.00    +0.000 A 
ATOM     30  C   UNL     1      -6.493  13.637  16.790  0.00  0.00    +0.000 A 
ATOM     31  C   UNL     1      -7.072  14.699  17.487  0.00  0.00    +0.000 A 
ATOM     32  C   UNL     1      -6.969  14.784  18.884  0.00  0.00    +0.000 A 
ATOM     33  C   UNL     1      -6.250  13.827  19.599  0.00  0.00    +0.000 A 
ATOM     34  C   UNL     1      -5.641  12.801  18.892  0.00  0.00    +0.000 A 
ENDBRANCH  25  26
BRANCH  23  36
ATOM     35  C   UNL     1      -1.113  12.325  22.389  0.00  0.00    +0.000 C 
ATOM     36  C   UNL     1      -2.214  13.356  21.992  0.00  0.00    +0.000 C 
ATOM     37  C   UNL     1      -2.701  13.971  23.312  0.00  0.00    +0.000 C 
ATOM     38  C   UNL     1      -1.530  14.325  21.020  0.00  0.00    +0.000 C 
ENDBRANCH  23  36
ENDBRANCH  22  25
ENDBRANCH   1  22
TORSDOF 5
ENDMDL
