MODEL 1
REMARK VINA RESULT:      -7.8      0.000      0.000
REMARK  Name = 
REMARK  5 active torsions:
REMARK  status: ('A' for Active; 'I' for Inactive)
REMARK    1  A    between atoms: C_2  and  C_15
REMARK    2  A    between atoms: N_3  and  C_4
REMARK    3  A    between atoms: C_4  and  C_5
REMARK    4  A    between atoms: C_5  and  N_6
REMARK    5  A    between atoms: C_7  and  C_9
REMARK                            x       y       z     vdW  Elec       q    Type
REMARK                         _______ _______ _______ _____ _____    ______ ____
ROOT
ATOM      1  C   UNL     1       6.938   5.557  19.339  0.00  0.00    +0.000 C 
ENDROOT
BRANCH   1   4
ATOM      2  O   UNL     1       4.546   6.244  18.054  0.00  0.00    +0.000 OA
ATOM      3  C   UNL     1       4.606   5.171  18.647  0.00  0.00    +0.000 C 
ATOM      4  N   UNL     1       5.732   4.743  19.319  0.00  0.00    +0.000 N 
ATOM      5  H   UNL     1       5.799   3.780  19.624  0.00  0.00    +0.000 HD
BRANCH   3   6
ATOM      6  C   UNL     1       3.438   4.252  18.623  0.00  0.00    +0.000 A 
ATOM      7  C   UNL     1       2.288   4.660  17.929  0.00  0.00    +0.000 A 
ATOM      8  C   UNL     1       1.157   3.841  17.898  0.00  0.00    +0.000 A 
ATOM      9  C   UNL     1       1.175   2.627  18.576  0.00  0.00    +0.000 A 
ATOM     10  F   UNL     1       0.089   1.845  18.553  0.00  0.00    +0.000 F 
ATOM     11  C   UNL     1       2.300   2.218  19.285  0.00  0.00    +0.000 A 
ATOM     12  C   UNL     1       3.439   3.031  19.312  0.00  0.00    +0.000 A 
ENDBRANCH   3   6
ENDBRANCH   1   4
BRANCH   1  13
ATOM     13  C   UNL     1       8.110   4.923  18.580  0.00  0.00    +0.000 C 
BRANCH  13  14
ATOM     14  N   UNL     1       7.736   4.501  17.236  0.00  0.00    +0.000 N 
ATOM     15  C   UNL     1       7.454   5.419  16.246  0.00  0.00    +0.000 C 
ATOM     16  O   UNL     1       7.529   6.635  16.427  0.00  0.00    +0.000 OA
ATOM     17  H   UNL     1       7.815   3.522  16.967  0.00  0.00    +0.000 HD
BRANCH  15  18
ATOM     18  C   UNL     1       7.067   4.875  14.903  0.00  0.00    +0.000 A 
ATOM     19  C   UNL     1       5.961   4.031  14.785  0.00  0.00    +0.000 A 
ATOM     20  C   UNL     1       5.603   3.580  13.516  0.00  0.00    +0.000 A 
ATOM     21  C   UNL     1       6.356   3.979  12.417  0.00  0.00    +0.000 A 
ATOM     22  C   UNL     1       7.444   4.813  12.632  0.00  0.00    +0.000 A 
ATOM     23  N   UNL     1       7.824   5.275  13.844  0.00  0.00    +0.000 NA
ENDBRANCH  15  18
ENDBRANCH  13  14
ENDBRANCH   1  13
TORSDOF 5
ENDMDL
MODEL 2
REMARK VINA RESULT:      -7.6      1.167      1.333
REMARK  Name = 
REMARK  5 active torsions:
REMARK  status: ('A' for Active; 'I' for Inactive)
REMARK    1  A    between atoms: C_2  and  C_15
REMARK    2  A    between atoms: N_3  and  C_4
REMARK    3  A    between atoms: C_4  and  C_5
REMARK    4  A    between atoms: C_5  and  N_6
REMARK    5  A    between atoms: C_7  and  C_9
REMARK                            x       y       z     vdW  Elec       q    Type
REMARK                         _______ _______ _______ _____ _____    ______ ____
ROOT
ATOM      1  C   UNL     1       7.344   4.931  18.713  0.00  0.00    +0.000 C 
ENDROOT
BRANCH   1   4
ATOM      2  O   UNL     1       4.888   5.755  19.780  0.00  0.00    +0.000 OA
ATOM      3  C   UNL     1       4.935   4.693  19.168  0.00  0.00    +0.000 C 
ATOM      4  N   UNL     1       6.094   4.192  18.612  0.00  0.00    +0.000 N 
ATOM      5  H   UNL     1       6.045   3.421  17.959  0.00  0.00    +0.000 HD
BRANCH   3   6
ATOM      6  C   UNL     1       3.690   3.905  18.966  0.00  0.00    +0.000 A 
ATOM      7  C   UNL     1       2.688   3.988  19.946  0.00  0.00    +0.000 A 
ATOM      8  C   UNL     1       1.511   3.249  19.813  0.00  0.00    +0.000 A 
ATOM      9  C   UNL     1       1.348   2.418  18.711  0.00  0.00    +0.000 A 
ATOM     10  F   UNL     1       0.223   1.703  18.585  0.00  0.00    +0.000 F 
ATOM     11  C   UNL     1       2.340   2.310  17.741  0.00  0.00    +0.000 A 
ATOM     12  C   UNL     1       3.518   3.056  17.865  0.00  0.00    +0.000 A 
ENDBRANCH   3   6
ENDBRANCH   1   4
BRANCH   1  13
ATOM     13  C   UNL     1       7.458   6.071  17.693  0.00  0.00    +0.000 C 
BRANCH  13  14
ATOM     14  N   UNL     1       7.555   5.581  16.323  0.00  0.00    +0.000 N 
ATOM     15  C   UNL     1       6.428   5.341  15.565  0.00  0.00    +0.000 C 
ATOM     16  O   UNL     1       5.289   5.551  15.982  0.00  0.00    +0.000 OA
ATOM     17  H   UNL     1       8.459   5.542  15.857  0.00  0.00    +0.000 HD
BRANCH  15  18
ATOM     18  C   UNL     1       6.643   4.825  14.172  0.00  0.00    +0.000 A 
ATOM     19  C   UNL     1       5.865   3.769  13.692  0.00  0.00    +0.000 A 
ATOM     20  C   UNL     1       6.061   3.346  12.379  0.00  0.00    +0.000 A 
ATOM     21  C   UNL     1       7.019   3.982  11.596  0.00  0.00    +0.000 A 
ATOM     22  C   UNL     1       7.750   5.017  12.161  0.00  0.00    +0.000 A 
ATOM     23  N   UNL     1       7.591   5.460  13.429  0.00  0.00    +0.000 NA
ENDBRANCH  15  18
ENDBRANCH  13  14
ENDBRANCH   1  13
TORSDOF 5
ENDMDL
MODEL 3
REMARK VINA RESULT:      -7.5      2.230      5.931
REMARK  Name = 
REMARK  5 active torsions:
REMARK  status: ('A' for Active; 'I' for Inactive)
REMARK    1  A    between atoms: C_2  and  C_15
REMARK    2  A    between atoms: N_3  and  C_4
REMARK    3  A    between atoms: C_4  and  C_5
REMARK    4  A    between atoms: C_5  and  N_6
REMARK    5  A    between atoms: C_7  and  C_9
REMARK                            x       y       z     vdW  Elec       q    Type
REMARK                         _______ _______ _______ _____ _____    ______ ____
ROOT
ATOM      1  C   UNL     1       7.929   4.881  18.404  0.00  0.00    +0.000 C 
ENDROOT
BRANCH   1   4
ATOM      2  O   UNL     1       7.431   6.528  16.194  0.00  0.00    +0.000 OA
ATOM      3  C   UNL     1       7.214   5.326  16.089  0.00  0.00    +0.000 C 
ATOM      4  N   UNL     1       7.416   4.430  17.119  0.00  0.00    +0.000 N 
ATOM      5  H   UNL     1       7.408   3.436  16.929  0.00  0.00    +0.000 HD
BRANCH   3   6
ATOM      6  C   UNL     1       6.747   4.773  14.790  0.00  0.00    +0.000 A 
ATOM      7  C   UNL     1       5.490   4.150  14.750  0.00  0.00    +0.000 A 
ATOM      8  C   UNL     1       5.018   3.595  13.558  0.00  0.00    +0.000 A 
ATOM      9  C   UNL     1       5.811   3.651  12.418  0.00  0.00    +0.000 A 
ATOM     10  F   UNL     1       5.363   3.113  11.277  0.00  0.00    +0.000 F 
ATOM     11  C   UNL     1       7.068   4.248  12.448  0.00  0.00    +0.000 A 
ATOM     12  C   UNL     1       7.541   4.813  13.637  0.00  0.00    +0.000 A 
ENDBRANCH   3   6
ENDBRANCH   1   4
BRANCH   1  13
ATOM     13  C   UNL     1       6.842   5.452  19.323  0.00  0.00    +0.000 C 
BRANCH  13  14
ATOM     14  N   UNL     1       5.637   4.631  19.334  0.00  0.00    +0.000 N 
ATOM     15  C   UNL     1       4.429   5.123  18.888  0.00  0.00    +0.000 C 
ATOM     16  O   UNL     1       4.301   6.260  18.431  0.00  0.00    +0.000 OA
ATOM     17  H   UNL     1       5.699   3.636  19.539  0.00  0.00    +0.000 HD
BRANCH  15  18
ATOM     18  C   UNL     1       3.250   4.197  18.956  0.00  0.00    +0.000 A 
ATOM     19  C   UNL     1       2.165   4.509  19.777  0.00  0.00    +0.000 A 
ATOM     20  C   UNL     1       1.068   3.648  19.782  0.00  0.00    +0.000 A 
ATOM     21  C   UNL     1       1.092   2.514  18.977  0.00  0.00    +0.000 A 
ATOM     22  C   UNL     1       2.217   2.282  18.200  0.00  0.00    +0.000 A 
ATOM     23  N   UNL     1       3.301   3.090  18.164  0.00  0.00    +0.000 NA
ENDBRANCH  15  18
ENDBRANCH  13  14
ENDBRANCH   1  13
TORSDOF 5
ENDMDL
MODEL 4
REMARK VINA RESULT:      -7.4      2.221      5.909
REMARK  Name = 
REMARK  5 active torsions:
REMARK  status: ('A' for Active; 'I' for Inactive)
REMARK    1  A    between atoms: C_2  and  C_15
REMARK    2  A    between atoms: N_3  and  C_4
REMARK    3  A    between atoms: C_4  and  C_5
REMARK    4  A    between atoms: C_5  and  N_6
REMARK    5  A    between atoms: C_7  and  C_9
REMARK                            x       y       z     vdW  Elec       q    Type
REMARK                         _______ _______ _______ _____ _____    ______ ____
ROOT
ATOM      1  C   UNL     1       7.872   4.887  18.433  0.00  0.00    +0.000 C 
ENDROOT
BRANCH   1   4
ATOM      2  O   UNL     1       7.518   6.496  16.168  0.00  0.00    +0.000 OA
ATOM      3  C   UNL     1       7.221   5.308  16.095  0.00  0.00    +0.000 C 
ATOM      4  N   UNL     1       7.348   4.433  17.153  0.00  0.00    +0.000 N 
ATOM      5  H   UNL     1       7.275   3.436  16.992  0.00  0.00    +0.000 HD
BRANCH   3   6
ATOM      6  C   UNL     1       6.736   4.750  14.805  0.00  0.00    +0.000 A 
ATOM      7  C   UNL     1       5.480   4.124  14.786  0.00  0.00    +0.000 A 
ATOM      8  C   UNL     1       4.991   3.563  13.604  0.00  0.00    +0.000 A 
ATOM      9  C   UNL     1       5.767   3.616  12.452  0.00  0.00    +0.000 A 
ATOM     10  F   UNL     1       5.303   3.072  11.320  0.00  0.00    +0.000 F 
ATOM     11  C   UNL     1       7.023   4.215  12.460  0.00  0.00    +0.000 A 
ATOM     12  C   UNL     1       7.514   4.786  13.640  0.00  0.00    +0.000 A 
ENDBRANCH   3   6
ENDBRANCH   1   4
BRANCH   1  13
ATOM     13  C   UNL     1       6.794   5.463  19.359  0.00  0.00    +0.000 C 
BRANCH  13  14
ATOM     14  N   UNL     1       5.570   4.670  19.345  0.00  0.00    +0.000 N 
ATOM     15  C   UNL     1       4.432   5.117  18.708  0.00  0.00    +0.000 C 
ATOM     16  O   UNL     1       4.388   6.185  18.095  0.00  0.00    +0.000 OA
ATOM     17  H   UNL     1       5.579   3.710  19.685  0.00  0.00    +0.000 HD
BRANCH  15  18
ATOM     18  C   UNL     1       3.225   4.228  18.768  0.00  0.00    +0.000 A 
ATOM     19  C   UNL     1       3.091   3.174  17.862  0.00  0.00    +0.000 A 
ATOM     20  C   UNL     1       1.979   2.340  17.974  0.00  0.00    +0.000 A 
ATOM     21  C   UNL     1       1.046   2.585  18.976  0.00  0.00    +0.000 A 
ATOM     22  C   UNL     1       1.259   3.661  19.826  0.00  0.00    +0.000 A 
ATOM     23  N   UNL     1       2.323   4.492  19.753  0.00  0.00    +0.000 NA
ENDBRANCH  15  18
ENDBRANCH  13  14
ENDBRANCH   1  13
TORSDOF 5
ENDMDL
MODEL 5
REMARK VINA RESULT:      -7.3      0.666      1.068
REMARK  Name = 
REMARK  5 active torsions:
REMARK  status: ('A' for Active; 'I' for Inactive)
REMARK    1  A    between atoms: C_2  and  C_15
REMARK    2  A    between atoms: N_3  and  C_4
REMARK    3  A    between atoms: C_4  and  C_5
REMARK    4  A    between atoms: C_5  and  N_6
REMARK    5  A    between atoms: C_7  and  C_9
REMARK                            x       y       z     vdW  Elec       q    Type
REMARK                         _______ _______ _______ _____ _____    ______ ____
ROOT
ATOM      1  C   UNL     1       6.991   5.474  19.278  0.00  0.00    +0.000 C 
ENDROOT
BRANCH   1   4
ATOM      2  O   UNL     1       4.584   6.216  18.051  0.00  0.00    +0.000 OA
ATOM      3  C   UNL     1       4.640   5.135  18.628  0.00  0.00    +0.000 C 
ATOM      4  N   UNL     1       5.772   4.679  19.271  0.00  0.00    +0.000 N 
ATOM      5  H   UNL     1       5.829   3.711  19.561  0.00  0.00    +0.000 HD
BRANCH   3   6
ATOM      6  C   UNL     1       3.456   4.234  18.616  0.00  0.00    +0.000 A 
ATOM      7  C   UNL     1       2.302   4.667  17.945  0.00  0.00    +0.000 A 
ATOM      8  C   UNL     1       1.158   3.867  17.926  0.00  0.00    +0.000 A 
ATOM      9  C   UNL     1       1.167   2.647  18.592  0.00  0.00    +0.000 A 
ATOM     10  F   UNL     1       0.068   1.882  18.580  0.00  0.00    +0.000 F 
ATOM     11  C   UNL     1       2.297   2.213  19.279  0.00  0.00    +0.000 A 
ATOM     12  C   UNL     1       3.449   3.008  19.293  0.00  0.00    +0.000 A 
ENDBRANCH   3   6
ENDBRANCH   1   4
BRANCH   1  13
ATOM     13  C   UNL     1       8.109   4.876  18.416  0.00  0.00    +0.000 C 
BRANCH  13  14
ATOM     14  N   UNL     1       7.628   4.437  17.111  0.00  0.00    +0.000 N 
ATOM     15  C   UNL     1       7.368   5.339  16.101  0.00  0.00    +0.000 C 
ATOM     16  O   UNL     1       7.551   6.551  16.227  0.00  0.00    +0.000 OA
ATOM     17  H   UNL     1       7.612   3.446  16.879  0.00  0.00    +0.000 HD
BRANCH  15  18
ATOM     18  C   UNL     1       6.864   4.780  14.803  0.00  0.00    +0.000 A 
ATOM     19  C   UNL     1       7.603   4.962  13.632  0.00  0.00    +0.000 A 
ATOM     20  C   UNL     1       7.128   4.390  12.453  0.00  0.00    +0.000 A 
ATOM     21  C   UNL     1       5.941   3.666  12.480  0.00  0.00    +0.000 A 
ATOM     22  C   UNL     1       5.271   3.545  13.689  0.00  0.00    +0.000 A 
ATOM     23  N   UNL     1       5.696   4.081  14.855  0.00  0.00    +0.000 NA
ENDBRANCH  15  18
ENDBRANCH  13  14
ENDBRANCH   1  13
TORSDOF 5
ENDMDL
MODEL 6
REMARK VINA RESULT:      -7.3      1.358      1.469
REMARK  Name = 
REMARK  5 active torsions:
REMARK  status: ('A' for Active; 'I' for Inactive)
REMARK    1  A    between atoms: C_2  and  C_15
REMARK    2  A    between atoms: N_3  and  C_4
REMARK    3  A    between atoms: C_4  and  C_5
REMARK    4  A    between atoms: C_5  and  N_6
REMARK    5  A    between atoms: C_7  and  C_9
REMARK                            x       y       z     vdW  Elec       q    Type
REMARK                         _______ _______ _______ _____ _____    ______ ____
ROOT
ATOM      1  C   UNL     1       6.223   7.107  18.199  0.00  0.00    +0.000 C 
ENDROOT
BRANCH   1   4
ATOM      2  O   UNL     1       3.519   7.164  17.469  0.00  0.00    +0.000 OA
ATOM      3  C   UNL     1       3.956   6.160  18.022  0.00  0.00    +0.000 C 
ATOM      4  N   UNL     1       5.268   6.033  18.430  0.00  0.00    +0.000 N 
ATOM      5  H   UNL     1       5.624   5.126  18.701  0.00  0.00    +0.000 HD
BRANCH   3   6
ATOM      6  C   UNL     1       3.061   4.993  18.240  0.00  0.00    +0.000 A 
ATOM      7  C   UNL     1       3.187   3.892  17.378  0.00  0.00    +0.000 A 
ATOM      8  C   UNL     1       2.352   2.783  17.528  0.00  0.00    +0.000 A 
ATOM      9  C   UNL     1       1.386   2.786  18.527  0.00  0.00    +0.000 A 
ATOM     10  F   UNL     1       0.580   1.725  18.668  0.00  0.00    +0.000 F 
ATOM     11  C   UNL     1       1.235   3.879  19.376  0.00  0.00    +0.000 A 
ATOM     12  C   UNL     1       2.075   4.989  19.235  0.00  0.00    +0.000 A 
ENDBRANCH   3   6
ENDBRANCH   1   4
BRANCH   1  13
ATOM     13  C   UNL     1       7.560   6.617  17.630  0.00  0.00    +0.000 C 
BRANCH  13  14
ATOM     14  N   UNL     1       7.455   6.221  16.231  0.00  0.00    +0.000 N 
ATOM     15  C   UNL     1       7.065   4.948  15.872  0.00  0.00    +0.000 C 
ATOM     16  O   UNL     1       6.755   4.089  16.698  0.00  0.00    +0.000 OA
ATOM     17  H   UNL     1       7.533   6.920  15.495  0.00  0.00    +0.000 HD
BRANCH  15  18
ATOM     18  C   UNL     1       7.004   4.644  14.404  0.00  0.00    +0.000 A 
ATOM     19  C   UNL     1       6.076   3.719  13.921  0.00  0.00    +0.000 A 
ATOM     20  C   UNL     1       6.017   3.494  12.547  0.00  0.00    +0.000 A 
ATOM     21  C   UNL     1       6.879   4.191  11.707  0.00  0.00    +0.000 A 
ATOM     22  C   UNL     1       7.774   5.085  12.278  0.00  0.00    +0.000 A 
ATOM     23  N   UNL     1       7.864   5.334  13.604  0.00  0.00    +0.000 NA
ENDBRANCH  15  18
ENDBRANCH  13  14
ENDBRANCH   1  13
TORSDOF 5
ENDMDL
MODEL 7
REMARK VINA RESULT:      -7.3      1.410      1.791
REMARK  Name = 
REMARK  5 active torsions:
REMARK  status: ('A' for Active; 'I' for Inactive)
REMARK    1  A    between atoms: C_2  and  C_15
REMARK    2  A    between atoms: N_3  and  C_4
REMARK    3  A    between atoms: C_4  and  C_5
REMARK    4  A    between atoms: C_5  and  N_6
REMARK    5  A    between atoms: C_7  and  C_9
REMARK                            x       y       z     vdW  Elec       q    Type
REMARK                         _______ _______ _______ _____ _____    ______ ____
ROOT
ATOM      1  C   UNL     1       6.678   5.770  18.829  0.00  0.00    +0.000 C 
ENDROOT
BRANCH   1   4
ATOM      2  O   UNL     1       4.349   4.684  17.713  0.00  0.00    +0.000 OA
ATOM      3  C   UNL     1       4.447   4.730  18.935  0.00  0.00    +0.000 C 
ATOM      4  N   UNL     1       5.546   5.253  19.584  0.00  0.00    +0.000 N 
ATOM      5  H   UNL     1       5.664   5.095  20.577  0.00  0.00    +0.000 HD
BRANCH   3   6
ATOM      6  C   UNL     1       3.361   4.168  19.780  0.00  0.00    +0.000 A 
ATOM      7  C   UNL     1       3.648   3.036  20.560  0.00  0.00    +0.000 A 
ATOM      8  C   UNL     1       2.655   2.457  21.352  0.00  0.00    +0.000 A 
ATOM      9  C   UNL     1       1.376   3.001  21.349  0.00  0.00    +0.000 A 
ATOM     10  F   UNL     1       0.420   2.443  22.103  0.00  0.00    +0.000 F 
ATOM     11  C   UNL     1       1.071   4.111  20.566  0.00  0.00    +0.000 A 
ATOM     12  C   UNL     1       2.065   4.700  19.777  0.00  0.00    +0.000 A 
ENDBRANCH   3   6
ENDBRANCH   1   4
BRANCH   1  13
ATOM     13  C   UNL     1       7.631   4.673  18.340  0.00  0.00    +0.000 C 
BRANCH  13  14
ATOM     14  N   UNL     1       7.410   4.330  16.940  0.00  0.00    +0.000 N 
ATOM     15  C   UNL     1       7.400   5.296  15.957  0.00  0.00    +0.000 C 
ATOM     16  O   UNL     1       7.604   6.488  16.193  0.00  0.00    +0.000 OA
ATOM     17  H   UNL     1       7.400   3.354  16.648  0.00  0.00    +0.000 HD
BRANCH  15  18
ATOM     18  C   UNL     1       7.150   4.834  14.551  0.00  0.00    +0.000 A 
ATOM     19  C   UNL     1       6.227   3.816  14.306  0.00  0.00    +0.000 A 
ATOM     20  C   UNL     1       5.987   3.442  12.985  0.00  0.00    +0.000 A 
ATOM     21  C   UNL     1       6.671   4.089  11.962  0.00  0.00    +0.000 A 
ATOM     22  C   UNL     1       7.576   5.084  12.302  0.00  0.00    +0.000 A 
ATOM     23  N   UNL     1       7.838   5.479  13.568  0.00  0.00    +0.000 NA
ENDBRANCH  15  18
ENDBRANCH  13  14
ENDBRANCH   1  13
TORSDOF 5
ENDMDL
MODEL 8
REMARK VINA RESULT:      -7.3      3.416      4.008
REMARK  Name = 
REMARK  5 active torsions:
REMARK  status: ('A' for Active; 'I' for Inactive)
REMARK    1  A    between atoms: C_2  and  C_15
REMARK    2  A    between atoms: N_3  and  C_4
REMARK    3  A    between atoms: C_4  and  C_5
REMARK    4  A    between atoms: C_5  and  N_6
REMARK    5  A    between atoms: C_7  and  C_9
REMARK                            x       y       z     vdW  Elec       q    Type
REMARK                         _______ _______ _______ _____ _____    ______ ____
ROOT
ATOM      1  C   UNL     1       3.881   4.123  18.557  0.00  0.00    +0.000 C 
ENDROOT
BRANCH   1   4
ATOM      2  O   UNL     1       2.499   5.433  20.611  0.00  0.00    +0.000 OA
ATOM      3  C   UNL     1       2.623   6.002  19.532  0.00  0.00    +0.000 C 
ATOM      4  N   UNL     1       3.276   5.443  18.454  0.00  0.00    +0.000 N 
ATOM      5  H   UNL     1       3.519   6.020  17.659  0.00  0.00    +0.000 HD
BRANCH   3   6
ATOM      6  C   UNL     1       2.087   7.379  19.363  0.00  0.00    +0.000 A 
ATOM      7  C   UNL     1       2.247   8.003  18.115  0.00  0.00    +0.000 A 
ATOM      8  C   UNL     1       1.782   9.304  17.915  0.00  0.00    +0.000 A 
ATOM      9  C   UNL     1       1.175   9.982  18.966  0.00  0.00    +0.000 A 
ATOM     10  F   UNL     1       0.735  11.232  18.777  0.00  0.00    +0.000 F 
ATOM     11  C   UNL     1       1.027   9.384  20.214  0.00  0.00    +0.000 A 
ATOM     12  C   UNL     1       1.484   8.077  20.418  0.00  0.00    +0.000 A 
ENDBRANCH   3   6
ENDBRANCH   1   4
BRANCH   1  13
ATOM     13  C   UNL     1       5.379   4.116  18.229  0.00  0.00    +0.000 C 
BRANCH  13  14
ATOM     14  N   UNL     1       5.633   4.079  16.794  0.00  0.00    +0.000 N 
ATOM     15  C   UNL     1       6.774   4.632  16.252  0.00  0.00    +0.000 C 
ATOM     16  O   UNL     1       7.650   5.157  16.940  0.00  0.00    +0.000 OA
ATOM     17  H   UNL     1       5.040   3.519  16.185  0.00  0.00    +0.000 HD
BRANCH  15  18
ATOM     18  C   UNL     1       6.928   4.549  14.762  0.00  0.00    +0.000 A 
ATOM     19  C   UNL     1       6.129   3.672  14.026  0.00  0.00    +0.000 A 
ATOM     20  C   UNL     1       6.268   3.653  12.639  0.00  0.00    +0.000 A 
ATOM     21  C   UNL     1       7.191   4.501  12.038  0.00  0.00    +0.000 A 
ATOM     22  C   UNL     1       7.947   5.334  12.851  0.00  0.00    +0.000 A 
ATOM     23  N   UNL     1       7.844   5.385  14.198  0.00  0.00    +0.000 NA
ENDBRANCH  15  18
ENDBRANCH  13  14
ENDBRANCH   1  13
TORSDOF 5
ENDMDL
MODEL 9
REMARK VINA RESULT:      -7.1      2.270      5.816
REMARK  Name = 
REMARK  5 active torsions:
REMARK  status: ('A' for Active; 'I' for Inactive)
REMARK    1  A    between atoms: C_2  and  C_15
REMARK    2  A    between atoms: N_3  and  C_4
REMARK    3  A    between atoms: C_4  and  C_5
REMARK    4  A    between atoms: C_5  and  N_6
REMARK    5  A    between atoms: C_7  and  C_9
REMARK                            x       y       z     vdW  Elec       q    Type
REMARK                         _______ _______ _______ _____ _____    ______ ____
ROOT
ATOM      1  C   UNL     1       8.025   5.450  18.487  0.00  0.00    +0.000 C 
ENDROOT
BRANCH   1   4
ATOM      2  O   UNL     1       6.871   6.802  16.322  0.00  0.00    +0.000 OA
ATOM      3  C   UNL     1       7.006   5.585  16.249  0.00  0.00    +0.000 C 
ATOM      4  N   UNL     1       7.553   4.824  17.261  0.00  0.00    +0.000 N 
ATOM      5  H   UNL     1       7.818   3.864  17.080  0.00  0.00    +0.000 HD
BRANCH   3   6
ATOM      6  C   UNL     1       6.605   4.875  15.005  0.00  0.00    +0.000 A 
ATOM      7  C   UNL     1       7.467   4.938  13.900  0.00  0.00    +0.000 A 
ATOM      8  C   UNL     1       7.123   4.307  12.702  0.00  0.00    +0.000 A 
ATOM      9  C   UNL     1       5.912   3.631  12.610  0.00  0.00    +0.000 A 
ATOM     10  F   UNL     1       5.578   3.032  11.461  0.00  0.00    +0.000 F 
ATOM     11  C   UNL     1       5.037   3.577  13.692  0.00  0.00    +0.000 A 
ATOM     12  C   UNL     1       5.382   4.200  14.896  0.00  0.00    +0.000 A 
ENDBRANCH   3   6
ENDBRANCH   1   4
BRANCH   1  13
ATOM     13  C   UNL     1       6.937   5.577  19.560  0.00  0.00    +0.000 C 
BRANCH  13  14
ATOM     14  N   UNL     1       5.869   4.599  19.386  0.00  0.00    +0.000 N 
ATOM     15  C   UNL     1       4.566   4.991  19.161  0.00  0.00    +0.000 C 
ATOM     16  O   UNL     1       4.234   6.173  19.064  0.00  0.00    +0.000 OA
ATOM     17  H   UNL     1       6.093   3.611  19.287  0.00  0.00    +0.000 HD
BRANCH  15  18
ATOM     18  C   UNL     1       3.545   3.902  19.010  0.00  0.00    +0.000 A 
ATOM     19  C   UNL     1       3.368   3.280  17.772  0.00  0.00    +0.000 A 
ATOM     20  C   UNL     1       2.442   2.242  17.679  0.00  0.00    +0.000 A 
ATOM     21  C   UNL     1       1.730   1.863  18.811  0.00  0.00    +0.000 A 
ATOM     22  C   UNL     1       1.968   2.544  19.997  0.00  0.00    +0.000 A 
ATOM     23  N   UNL     1       2.856   3.555  20.132  0.00  0.00    +0.000 NA
ENDBRANCH  15  18
ENDBRANCH  13  14
ENDBRANCH   1  13
TORSDOF 5
ENDMDL
