MODEL 1
REMARK VINA RESULT:      -6.9      0.000      0.000
REMARK  Name = 
REMARK  11 active torsions:
REMARK  status: ('A' for Active; 'I' for Inactive)
REMARK    1  A    between atoms: C_1  and  N_2
REMARK    2  A    between atoms: N_2  and  C_3
REMARK    3  A    between atoms: N_2  and  C_20
REMARK    4  A    between atoms: C_3  and  C_4
REMARK    5  A    between atoms: C_4  and  C_5
REMARK    6  A    between atoms: C_5  and  N_6
REMARK    7  A    between atoms: C_7  and  C_9
REMARK    8  A    between atoms: C_13  and  O_14
REMARK    9  A    between atoms: O_14  and  C_15
REMARK   10  A    between atoms: C_15  and  C_16
REMARK   11  A    between atoms: C_20  and  C_21
REMARK                            x       y       z     vdW  Elec       q    Type
REMARK                         _______ _______ _______ _____ _____    ______ ____
ROOT
ATOM      1  N   UNL     1       3.526   2.813  18.000  0.00  0.00    +0.000 N 
ATOM      2  C   UNL     1       4.676   3.208  18.636  0.00  0.00    +0.000 C 
ATOM      3  O   UNL     1       4.988   2.842  19.763  0.00  0.00    +0.000 OA
ATOM      4  H   UNL     1       3.410   3.008  17.018  0.00  0.00    +0.000 HD
ENDROOT
BRANCH   2   5
ATOM      5  C   UNL     1       5.581   4.121  17.880  0.00  0.00    +0.000 A 
ATOM      6  C   UNL     1       6.286   5.093  18.605  0.00  0.00    +0.000 A 
ATOM      7  C   UNL     1       7.071   6.026  17.936  0.00  0.00    +0.000 A 
ATOM      8  C   UNL     1       7.149   5.993  16.543  0.00  0.00    +0.000 A 
ATOM      9  C   UNL     1       6.473   5.013  15.812  0.00  0.00    +0.000 A 
ATOM     10  C   UNL     1       5.681   4.078  16.479  0.00  0.00    +0.000 A 
BRANCH   9  11
ATOM     11  O   UNL     1       6.591   5.120  14.454  0.00  0.00    +0.000 OA
BRANCH  11  12
ATOM     12  C   UNL     1       5.866   4.158  13.685  0.00  0.00    +0.000 C 
BRANCH  12  13
ATOM     13  C   UNL     1       6.649   3.741  12.437  0.00  0.00    +0.000 C 
ATOM     14  N   UNL     1       6.477   2.455  12.018  0.00  0.00    +0.000 N 
ATOM     15  O   UNL     1       7.412   4.501  11.848  0.00  0.00    +0.000 OA
ATOM     16  H   UNL     1       5.855   1.828  12.511  0.00  0.00    +0.000 HD
ATOM     17  H   UNL     1       6.989   2.133  11.210  0.00  0.00    +0.000 HD
ENDBRANCH  12  13
ENDBRANCH  11  12
ENDBRANCH   9  11
ENDBRANCH   2   5
BRANCH   1  18
ATOM     18  C   UNL     1       2.604   1.916  18.664  0.00  0.00    +0.000 C 
BRANCH  18  19
ATOM     19  C   UNL     1       1.155   2.378  18.576  0.00  0.00    +0.000 C 
BRANCH  19  20
ATOM     20  C   UNL     1       0.743   3.162  19.833  0.00  0.00    +0.000 C 
BRANCH  20  22
ATOM     21  C   UNL     1       2.033   3.258  21.889  0.00  0.00    +0.000 C 
ATOM     22  N   UNL     1       1.879   3.789  20.529  0.00  0.00    +0.000 NA
BRANCH  22  23
ATOM     23  C   UNL     1       1.711   5.274  20.600  0.00  0.00    +0.000 C 
BRANCH  23  24
ATOM     24  C   UNL     1       2.371   6.186  19.534  0.00  0.00    +0.000 C 
ATOM     25  F   UNL     1       2.150   5.786  18.263  0.00  0.00    +0.000 F 
ATOM     26  F   UNL     1       1.902   7.454  19.644  0.00  0.00    +0.000 F 
ATOM     27  F   UNL     1       3.713   6.241  19.710  0.00  0.00    +0.000 F 
ENDBRANCH  23  24
ENDBRANCH  22  23
ENDBRANCH  20  22
ENDBRANCH  19  20
ENDBRANCH  18  19
ENDBRANCH   1  18
TORSDOF 10
ENDMDL
MODEL 2
REMARK VINA RESULT:      -6.4      2.165      2.896
REMARK  Name = 
REMARK  11 active torsions:
REMARK  status: ('A' for Active; 'I' for Inactive)
REMARK    1  A    between atoms: C_1  and  N_2
REMARK    2  A    between atoms: N_2  and  C_3
REMARK    3  A    between atoms: N_2  and  C_20
REMARK    4  A    between atoms: C_3  and  C_4
REMARK    5  A    between atoms: C_4  and  C_5
REMARK    6  A    between atoms: C_5  and  N_6
REMARK    7  A    between atoms: C_7  and  C_9
REMARK    8  A    between atoms: C_13  and  O_14
REMARK    9  A    between atoms: O_14  and  C_15
REMARK   10  A    between atoms: C_15  and  C_16
REMARK   11  A    between atoms: C_20  and  C_21
REMARK                            x       y       z     vdW  Elec       q    Type
REMARK                         _______ _______ _______ _____ _____    ______ ____
ROOT
ATOM      1  N   UNL     1       3.513   5.909  19.870  0.00  0.00    +0.000 N 
ATOM      2  C   UNL     1       3.835   5.750  18.546  0.00  0.00    +0.000 C 
ATOM      3  O   UNL     1       3.037   5.909  17.629  0.00  0.00    +0.000 OA
ATOM      4  H   UNL     1       4.248   5.934  20.559  0.00  0.00    +0.000 HD
ENDROOT
BRANCH   2   5
ATOM      5  C   UNL     1       5.246   5.376  18.238  0.00  0.00    +0.000 A 
ATOM      6  C   UNL     1       6.197   5.506  19.261  0.00  0.00    +0.000 A 
ATOM      7  C   UNL     1       7.540   5.258  18.997  0.00  0.00    +0.000 A 
ATOM      8  C   UNL     1       7.935   4.885  17.712  0.00  0.00    +0.000 A 
ATOM      9  C   UNL     1       6.994   4.726  16.692  0.00  0.00    +0.000 A 
ATOM     10  C   UNL     1       5.646   4.978  16.952  0.00  0.00    +0.000 A 
BRANCH   9  11
ATOM     11  O   UNL     1       7.515   4.406  15.469  0.00  0.00    +0.000 OA
BRANCH  11  12
ATOM     12  C   UNL     1       6.739   4.802  14.336  0.00  0.00    +0.000 C 
BRANCH  12  13
ATOM     13  C   UNL     1       7.632   5.084  13.123  0.00  0.00    +0.000 C 
ATOM     14  N   UNL     1       7.335   4.400  11.983  0.00  0.00    +0.000 N 
ATOM     15  O   UNL     1       8.581   5.861  13.166  0.00  0.00    +0.000 OA
ATOM     16  H   UNL     1       6.559   3.752  11.954  0.00  0.00    +0.000 HD
ATOM     17  H   UNL     1       7.910   4.541  11.165  0.00  0.00    +0.000 HD
ENDBRANCH  12  13
ENDBRANCH  11  12
ENDBRANCH   9  11
ENDBRANCH   2   5
BRANCH   1  18
ATOM     18  C   UNL     1       2.167   6.287  20.246  0.00  0.00    +0.000 C 
BRANCH  18  19
ATOM     19  C   UNL     1       1.376   5.137  20.859  0.00  0.00    +0.000 C 
BRANCH  19  20
ATOM     20  C   UNL     1       1.017   4.081  19.801  0.00  0.00    +0.000 C 
BRANCH  20  22
ATOM     21  C   UNL     1       1.872   2.622  21.545  0.00  0.00    +0.000 C 
ATOM     22  N   UNL     1       1.083   2.700  20.309  0.00  0.00    +0.000 NA
BRANCH  22  23
ATOM     23  C   UNL     1       1.679   1.782  19.289  0.00  0.00    +0.000 C 
BRANCH  23  24
ATOM     24  C   UNL     1       3.119   2.025  18.768  0.00  0.00    +0.000 C 
ATOM     25  F   UNL     1       3.785   0.890  18.462  0.00  0.00    +0.000 F 
ATOM     26  F   UNL     1       3.092   2.789  17.649  0.00  0.00    +0.000 F 
ATOM     27  F   UNL     1       3.860   2.688  19.687  0.00  0.00    +0.000 F 
ENDBRANCH  23  24
ENDBRANCH  22  23
ENDBRANCH  20  22
ENDBRANCH  19  20
ENDBRANCH  18  19
ENDBRANCH   1  18
TORSDOF 10
ENDMDL
MODEL 3
REMARK VINA RESULT:      -6.3      2.248      2.995
REMARK  Name = 
REMARK  11 active torsions:
REMARK  status: ('A' for Active; 'I' for Inactive)
REMARK    1  A    between atoms: C_1  and  N_2
REMARK    2  A    between atoms: N_2  and  C_3
REMARK    3  A    between atoms: N_2  and  C_20
REMARK    4  A    between atoms: C_3  and  C_4
REMARK    5  A    between atoms: C_4  and  C_5
REMARK    6  A    between atoms: C_5  and  N_6
REMARK    7  A    between atoms: C_7  and  C_9
REMARK    8  A    between atoms: C_13  and  O_14
REMARK    9  A    between atoms: O_14  and  C_15
REMARK   10  A    between atoms: C_15  and  C_16
REMARK   11  A    between atoms: C_20  and  C_21
REMARK                            x       y       z     vdW  Elec       q    Type
REMARK                         _______ _______ _______ _____ _____    ______ ____
ROOT
ATOM      1  N   UNL     1       4.250   5.690  18.457  0.00  0.00    +0.000 N 
ATOM      2  C   UNL     1       5.181   4.704  18.252  0.00  0.00    +0.000 C 
ATOM      3  O   UNL     1       5.466   3.855  19.089  0.00  0.00    +0.000 OA
ATOM      4  H   UNL     1       3.938   6.248  17.677  0.00  0.00    +0.000 HD
ENDROOT
BRANCH   2   5
ATOM      5  C   UNL     1       5.857   4.684  16.922  0.00  0.00    +0.000 A 
ATOM      6  C   UNL     1       7.136   5.250  16.828  0.00  0.00    +0.000 A 
ATOM      7  C   UNL     1       7.769   5.337  15.593  0.00  0.00    +0.000 A 
ATOM      8  C   UNL     1       7.122   4.866  14.449  0.00  0.00    +0.000 A 
ATOM      9  C   UNL     1       5.858   4.277  14.534  0.00  0.00    +0.000 A 
ATOM     10  C   UNL     1       5.219   4.190  15.772  0.00  0.00    +0.000 A 
BRANCH   9  11
ATOM     11  O   UNL     1       5.313   3.900  13.338  0.00  0.00    +0.000 OA
BRANCH  11  12
ATOM     12  C   UNL     1       6.204   3.273  12.414  0.00  0.00    +0.000 C 
BRANCH  12  13
ATOM     13  C   UNL     1       5.463   2.272  11.521  0.00  0.00    +0.000 C 
ATOM     14  N   UNL     1       6.135   1.128  11.210  0.00  0.00    +0.000 N 
ATOM     15  O   UNL     1       4.337   2.485  11.081  0.00  0.00    +0.000 OA
ATOM     16  H   UNL     1       7.067   0.961  11.565  0.00  0.00    +0.000 HD
ATOM     17  H   UNL     1       5.691   0.450  10.608  0.00  0.00    +0.000 HD
ENDBRANCH  12  13
ENDBRANCH  11  12
ENDBRANCH   9  11
ENDBRANCH   2   5
BRANCH   1  18
ATOM     18  C   UNL     1       3.542   5.765  19.717  0.00  0.00    +0.000 C 
BRANCH  18  19
ATOM     19  C   UNL     1       2.027   5.744  19.551  0.00  0.00    +0.000 C 
BRANCH  19  20
ATOM     20  C   UNL     1       1.577   4.552  18.690  0.00  0.00    +0.000 C 
BRANCH  20  22
ATOM     21  C   UNL     1       2.304   2.357  17.942  0.00  0.00    +0.000 C 
ATOM     22  N   UNL     1       2.208   3.279  19.082  0.00  0.00    +0.000 NA
BRANCH  22  23
ATOM     23  C   UNL     1       1.441   2.618  20.183  0.00  0.00    +0.000 C 
BRANCH  23  24
ATOM     24  C   UNL     1       1.935   2.722  21.649  0.00  0.00    +0.000 C 
ATOM     25  F   UNL     1       2.180   3.988  22.052  0.00  0.00    +0.000 F 
ATOM     26  F   UNL     1       1.010   2.204  22.495  0.00  0.00    +0.000 F 
ATOM     27  F   UNL     1       3.077   2.017  21.825  0.00  0.00    +0.000 F 
ENDBRANCH  23  24
ENDBRANCH  22  23
ENDBRANCH  20  22
ENDBRANCH  19  20
ENDBRANCH  18  19
ENDBRANCH   1  18
TORSDOF 10
ENDMDL
MODEL 4
REMARK VINA RESULT:      -6.3      1.422      1.758
REMARK  Name = 
REMARK  11 active torsions:
REMARK  status: ('A' for Active; 'I' for Inactive)
REMARK    1  A    between atoms: C_1  and  N_2
REMARK    2  A    between atoms: N_2  and  C_3
REMARK    3  A    between atoms: N_2  and  C_20
REMARK    4  A    between atoms: C_3  and  C_4
REMARK    5  A    between atoms: C_4  and  C_5
REMARK    6  A    between atoms: C_5  and  N_6
REMARK    7  A    between atoms: C_7  and  C_9
REMARK    8  A    between atoms: C_13  and  O_14
REMARK    9  A    between atoms: O_14  and  C_15
REMARK   10  A    between atoms: C_15  and  C_16
REMARK   11  A    between atoms: C_20  and  C_21
REMARK                            x       y       z     vdW  Elec       q    Type
REMARK                         _______ _______ _______ _____ _____    ______ ____
ROOT
ATOM      1  N   UNL     1       3.978   2.479  18.148  0.00  0.00    +0.000 N 
ATOM      2  C   UNL     1       4.995   3.364  18.402  0.00  0.00    +0.000 C 
ATOM      3  O   UNL     1       5.374   3.657  19.530  0.00  0.00    +0.000 OA
ATOM      4  H   UNL     1       3.830   2.151  17.206  0.00  0.00    +0.000 HD
ENDROOT
BRANCH   2   5
ATOM      5  C   UNL     1       5.666   3.974  17.217  0.00  0.00    +0.000 A 
ATOM      6  C   UNL     1       6.715   4.876  17.451  0.00  0.00    +0.000 A 
ATOM      7  C   UNL     1       7.310   5.540  16.384  0.00  0.00    +0.000 A 
ATOM      8  C   UNL     1       6.855   5.310  15.085  0.00  0.00    +0.000 A 
ATOM      9  C   UNL     1       5.830   4.395  14.838  0.00  0.00    +0.000 A 
ATOM     10  C   UNL     1       5.227   3.729  15.906  0.00  0.00    +0.000 A 
BRANCH   9  11
ATOM     11  O   UNL     1       5.444   4.297  13.529  0.00  0.00    +0.000 OA
BRANCH  11  12
ATOM     12  C   UNL     1       6.253   3.462  12.699  0.00  0.00    +0.000 C 
BRANCH  12  13
ATOM     13  C   UNL     1       5.395   2.642  11.731  0.00  0.00    +0.000 C 
ATOM     14  N   UNL     1       4.206   3.196  11.361  0.00  0.00    +0.000 N 
ATOM     15  O   UNL     1       5.733   1.534  11.322  0.00  0.00    +0.000 OA
ATOM     16  H   UNL     1       3.926   4.103  11.708  0.00  0.00    +0.000 HD
ATOM     17  H   UNL     1       3.600   2.680  10.739  0.00  0.00    +0.000 HD
ENDBRANCH  12  13
ENDBRANCH  11  12
ENDBRANCH   9  11
ENDBRANCH   2   5
BRANCH   1  18
ATOM     18  C   UNL     1       3.290   1.834  19.246  0.00  0.00    +0.000 C 
BRANCH  18  19
ATOM     19  C   UNL     1       1.774   1.964  19.156  0.00  0.00    +0.000 C 
BRANCH  19  20
ATOM     20  C   UNL     1       1.366   3.302  18.517  0.00  0.00    +0.000 C 
BRANCH  20  22
ATOM     21  C   UNL     1       1.305   4.800  20.429  0.00  0.00    +0.000 C 
ATOM     22  N   UNL     1       1.982   4.471  19.167  0.00  0.00    +0.000 NA
BRANCH  22  23
ATOM     23  C   UNL     1       1.946   5.665  18.267  0.00  0.00    +0.000 C 
BRANCH  23  24
ATOM     24  C   UNL     1       3.135   6.660  18.243  0.00  0.00    +0.000 C 
ATOM     25  F   UNL     1       2.766   7.953  18.380  0.00  0.00    +0.000 F 
ATOM     26  F   UNL     1       4.003   6.381  19.247  0.00  0.00    +0.000 F 
ATOM     27  F   UNL     1       3.824   6.561  17.082  0.00  0.00    +0.000 F 
ENDBRANCH  23  24
ENDBRANCH  22  23
ENDBRANCH  20  22
ENDBRANCH  19  20
ENDBRANCH  18  19
ENDBRANCH   1  18
TORSDOF 10
ENDMDL
MODEL 5
REMARK VINA RESULT:      -6.3      2.145      3.057
REMARK  Name = 
REMARK  11 active torsions:
REMARK  status: ('A' for Active; 'I' for Inactive)
REMARK    1  A    between atoms: C_1  and  N_2
REMARK    2  A    between atoms: N_2  and  C_3
REMARK    3  A    between atoms: N_2  and  C_20
REMARK    4  A    between atoms: C_3  and  C_4
REMARK    5  A    between atoms: C_4  and  C_5
REMARK    6  A    between atoms: C_5  and  N_6
REMARK    7  A    between atoms: C_7  and  C_9
REMARK    8  A    between atoms: C_13  and  O_14
REMARK    9  A    between atoms: O_14  and  C_15
REMARK   10  A    between atoms: C_15  and  C_16
REMARK   11  A    between atoms: C_20  and  C_21
REMARK                            x       y       z     vdW  Elec       q    Type
REMARK                         _______ _______ _______ _____ _____    ______ ____
ROOT
ATOM      1  N   UNL     1       3.202   6.542  19.137  0.00  0.00    +0.000 N 
ATOM      2  C   UNL     1       3.647   7.059  17.947  0.00  0.00    +0.000 C 
ATOM      3  O   UNL     1       3.169   8.057  17.420  0.00  0.00    +0.000 OA
ATOM      4  H   UNL     1       3.742   5.829  19.601  0.00  0.00    +0.000 HD
ENDROOT
BRANCH   2   5
ATOM      5  C   UNL     1       4.785   6.351  17.291  0.00  0.00    +0.000 A 
ATOM      6  C   UNL     1       6.083   6.808  17.561  0.00  0.00    +0.000 A 
ATOM      7  C   UNL     1       7.169   6.241  16.904  0.00  0.00    +0.000 A 
ATOM      8  C   UNL     1       6.961   5.223  15.972  0.00  0.00    +0.000 A 
ATOM      9  C   UNL     1       5.675   4.742  15.714  0.00  0.00    +0.000 A 
ATOM     10  C   UNL     1       4.581   5.311  16.370  0.00  0.00    +0.000 A 
BRANCH   9  11
ATOM     11  O   UNL     1       5.600   3.779  14.746  0.00  0.00    +0.000 OA
BRANCH  11  12
ATOM     12  C   UNL     1       6.433   3.975  13.603  0.00  0.00    +0.000 C 
BRANCH  12  13
ATOM     13  C   UNL     1       5.878   3.240  12.379  0.00  0.00    +0.000 C 
ATOM     14  N   UNL     1       6.714   2.344  11.783  0.00  0.00    +0.000 N 
ATOM     15  O   UNL     1       4.755   3.453  11.932  0.00  0.00    +0.000 OA
ATOM     16  H   UNL     1       7.643   2.179  12.147  0.00  0.00    +0.000 HD
ATOM     17  H   UNL     1       6.395   1.851  10.961  0.00  0.00    +0.000 HD
ENDBRANCH  12  13
ENDBRANCH  11  12
ENDBRANCH   9  11
ENDBRANCH   2   5
BRANCH   1  18
ATOM     18  C   UNL     1       2.111   7.183  19.841  0.00  0.00    +0.000 C 
BRANCH  18  19
ATOM     19  C   UNL     1       1.381   6.241  20.791  0.00  0.00    +0.000 C 
BRANCH  19  20
ATOM     20  C   UNL     1       2.094   4.882  20.886  0.00  0.00    +0.000 C 
BRANCH  20  22
ATOM     21  C   UNL     1       1.631   2.554  21.405  0.00  0.00    +0.000 C 
ATOM     22  N   UNL     1       1.200   3.736  20.647  0.00  0.00    +0.000 NA
BRANCH  22  23
ATOM     23  C   UNL     1       1.147   3.392  19.192  0.00  0.00    +0.000 C 
BRANCH  23  24
ATOM     24  C   UNL     1       2.396   2.807  18.483  0.00  0.00    +0.000 C 
ATOM     25  F   UNL     1       2.572   1.484  18.693  0.00  0.00    +0.000 F 
ATOM     26  F   UNL     1       2.306   2.993  17.142  0.00  0.00    +0.000 F 
ATOM     27  F   UNL     1       3.524   3.432  18.897  0.00  0.00    +0.000 F 
ENDBRANCH  23  24
ENDBRANCH  22  23
ENDBRANCH  20  22
ENDBRANCH  19  20
ENDBRANCH  18  19
ENDBRANCH   1  18
TORSDOF 10
ENDMDL
MODEL 6
REMARK VINA RESULT:      -6.2      4.987      6.078
REMARK  Name = 
REMARK  11 active torsions:
REMARK  status: ('A' for Active; 'I' for Inactive)
REMARK    1  A    between atoms: C_1  and  N_2
REMARK    2  A    between atoms: N_2  and  C_3
REMARK    3  A    between atoms: N_2  and  C_20
REMARK    4  A    between atoms: C_3  and  C_4
REMARK    5  A    between atoms: C_4  and  C_5
REMARK    6  A    between atoms: C_5  and  N_6
REMARK    7  A    between atoms: C_7  and  C_9
REMARK    8  A    between atoms: C_13  and  O_14
REMARK    9  A    between atoms: O_14  and  C_15
REMARK   10  A    between atoms: C_15  and  C_16
REMARK   11  A    between atoms: C_20  and  C_21
REMARK                            x       y       z     vdW  Elec       q    Type
REMARK                         _______ _______ _______ _____ _____    ______ ____
ROOT
ATOM      1  N   UNL     1       2.154   8.758  17.868  0.00  0.00    +0.000 N 
ATOM      2  C   UNL     1       2.457   7.631  18.588  0.00  0.00    +0.000 C 
ATOM      3  O   UNL     1       2.107   7.453  19.750  0.00  0.00    +0.000 OA
ATOM      4  H   UNL     1       2.319   8.771  16.874  0.00  0.00    +0.000 HD
ENDROOT
BRANCH   2   5
ATOM      5  C   UNL     1       3.244   6.576  17.886  0.00  0.00    +0.000 A 
ATOM      6  C   UNL     1       2.811   5.247  18.005  0.00  0.00    +0.000 A 
ATOM      7  C   UNL     1       3.562   4.219  17.445  0.00  0.00    +0.000 A 
ATOM      8  C   UNL     1       4.748   4.516  16.771  0.00  0.00    +0.000 A 
ATOM      9  C   UNL     1       5.175   5.838  16.624  0.00  0.00    +0.000 A 
ATOM     10  C   UNL     1       4.426   6.872  17.187  0.00  0.00    +0.000 A 
BRANCH   9  11
ATOM     11  O   UNL     1       6.376   5.990  15.987  0.00  0.00    +0.000 OA
BRANCH  11  12
ATOM     12  C   UNL     1       7.013   4.787  15.556  0.00  0.00    +0.000 C 
BRANCH  12  13
ATOM     13  C   UNL     1       7.135   4.739  14.030  0.00  0.00    +0.000 C 
ATOM     14  N   UNL     1       8.011   5.617  13.466  0.00  0.00    +0.000 N 
ATOM     15  O   UNL     1       6.469   3.975  13.336  0.00  0.00    +0.000 OA
ATOM     16  H   UNL     1       8.550   6.252  14.039  0.00  0.00    +0.000 HD
ATOM     17  H   UNL     1       8.108   5.632  12.461  0.00  0.00    +0.000 HD
ENDBRANCH  12  13
ENDBRANCH  11  12
ENDBRANCH   9  11
ENDBRANCH   2   5
BRANCH   1  18
ATOM     18  C   UNL     1       1.381   9.819  18.477  0.00  0.00    +0.000 C 
BRANCH  18  19
ATOM     19  C   UNL     1      -0.062   9.861  17.987  0.00  0.00    +0.000 C 
BRANCH  19  20
ATOM     20  C   UNL     1      -0.981  10.542  19.015  0.00  0.00    +0.000 C 
BRANCH  20  22
ATOM     21  C   UNL     1      -1.527  12.850  19.540  0.00  0.00    +0.000 C 
ATOM     22  N   UNL     1      -1.581  11.793  18.522  0.00  0.00    +0.000 NA
BRANCH  22  23
ATOM     23  C   UNL     1      -3.004  11.580  18.114  0.00  0.00    +0.000 C 
BRANCH  23  24
ATOM     24  C   UNL     1      -3.335  10.942  16.740  0.00  0.00    +0.000 C 
ATOM     25  F   UNL     1      -2.474  11.289  15.758  0.00  0.00    +0.000 F 
ATOM     26  F   UNL     1      -3.314   9.589  16.832  0.00  0.00    +0.000 F 
ATOM     27  F   UNL     1      -4.576  11.295  16.329  0.00  0.00    +0.000 F 
ENDBRANCH  23  24
ENDBRANCH  22  23
ENDBRANCH  20  22
ENDBRANCH  19  20
ENDBRANCH  18  19
ENDBRANCH   1  18
TORSDOF 10
ENDMDL
MODEL 7
REMARK VINA RESULT:      -6.2      1.309      1.621
REMARK  Name = 
REMARK  11 active torsions:
REMARK  status: ('A' for Active; 'I' for Inactive)
REMARK    1  A    between atoms: C_1  and  N_2
REMARK    2  A    between atoms: N_2  and  C_3
REMARK    3  A    between atoms: N_2  and  C_20
REMARK    4  A    between atoms: C_3  and  C_4
REMARK    5  A    between atoms: C_4  and  C_5
REMARK    6  A    between atoms: C_5  and  N_6
REMARK    7  A    between atoms: C_7  and  C_9
REMARK    8  A    between atoms: C_13  and  O_14
REMARK    9  A    between atoms: O_14  and  C_15
REMARK   10  A    between atoms: C_15  and  C_16
REMARK   11  A    between atoms: C_20  and  C_21
REMARK                            x       y       z     vdW  Elec       q    Type
REMARK                         _______ _______ _______ _____ _____    ______ ____
ROOT
ATOM      1  N   UNL     1       4.114   2.576  18.299  0.00  0.00    +0.000 N 
ATOM      2  C   UNL     1       4.995   3.220  19.131  0.00  0.00    +0.000 C 
ATOM      3  O   UNL     1       5.174   2.906  20.303  0.00  0.00    +0.000 OA
ATOM      4  H   UNL     1       4.137   2.767  17.310  0.00  0.00    +0.000 HD
ENDROOT
BRANCH   2   5
ATOM      5  C   UNL     1       5.772   4.349  18.543  0.00  0.00    +0.000 A 
ATOM      6  C   UNL     1       6.738   4.969  19.348  0.00  0.00    +0.000 A 
ATOM      7  C   UNL     1       7.423   6.084  18.877  0.00  0.00    +0.000 A 
ATOM      8  C   UNL     1       7.141   6.584  17.605  0.00  0.00    +0.000 A 
ATOM      9  C   UNL     1       6.200   5.958  16.784  0.00  0.00    +0.000 A 
ATOM     10  C   UNL     1       5.507   4.841  17.254  0.00  0.00    +0.000 A 
BRANCH   9  11
ATOM     11  O   UNL     1       5.981   6.573  15.582  0.00  0.00    +0.000 OA
BRANCH  11  12
ATOM     12  C   UNL     1       5.585   5.721  14.506  0.00  0.00    +0.000 C 
BRANCH  12  13
ATOM     13  C   UNL     1       6.759   4.872  14.009  0.00  0.00    +0.000 C 
ATOM     14  N   UNL     1       6.490   3.562  13.749  0.00  0.00    +0.000 N 
ATOM     15  O   UNL     1       7.892   5.326  13.870  0.00  0.00    +0.000 OA
ATOM     16  H   UNL     1       5.559   3.189  13.874  0.00  0.00    +0.000 HD
ATOM     17  H   UNL     1       7.241   2.962  13.438  0.00  0.00    +0.000 HD
ENDBRANCH  12  13
ENDBRANCH  11  12
ENDBRANCH   9  11
ENDBRANCH   2   5
BRANCH   1  18
ATOM     18  C   UNL     1       3.335   1.461  18.794  0.00  0.00    +0.000 C 
BRANCH  18  19
ATOM     19  C   UNL     1       1.864   1.805  18.995  0.00  0.00    +0.000 C 
BRANCH  19  20
ATOM     20  C   UNL     1       1.509   3.144  18.328  0.00  0.00    +0.000 C 
BRANCH  20  22
ATOM     21  C   UNL     1       1.086   4.494  20.304  0.00  0.00    +0.000 C 
ATOM     22  N   UNL     1       1.929   4.317  19.114  0.00  0.00    +0.000 NA
BRANCH  22  23
ATOM     23  C   UNL     1       1.876   5.563  18.288  0.00  0.00    +0.000 C 
BRANCH  23  24
ATOM     24  C   UNL     1       2.732   6.796  18.679  0.00  0.00    +0.000 C 
ATOM     25  F   UNL     1       3.724   6.514  19.551  0.00  0.00    +0.000 F 
ATOM     26  F   UNL     1       3.308   7.337  17.576  0.00  0.00    +0.000 F 
ATOM     27  F   UNL     1       1.964   7.758  19.241  0.00  0.00    +0.000 F 
ENDBRANCH  23  24
ENDBRANCH  22  23
ENDBRANCH  20  22
ENDBRANCH  19  20
ENDBRANCH  18  19
ENDBRANCH   1  18
TORSDOF 10
ENDMDL
MODEL 8
REMARK VINA RESULT:      -6.1      4.573      6.450
REMARK  Name = 
REMARK  11 active torsions:
REMARK  status: ('A' for Active; 'I' for Inactive)
REMARK    1  A    between atoms: C_1  and  N_2
REMARK    2  A    between atoms: N_2  and  C_3
REMARK    3  A    between atoms: N_2  and  C_20
REMARK    4  A    between atoms: C_3  and  C_4
REMARK    5  A    between atoms: C_4  and  C_5
REMARK    6  A    between atoms: C_5  and  N_6
REMARK    7  A    between atoms: C_7  and  C_9
REMARK    8  A    between atoms: C_13  and  O_14
REMARK    9  A    between atoms: O_14  and  C_15
REMARK   10  A    between atoms: C_15  and  C_16
REMARK   11  A    between atoms: C_20  and  C_21
REMARK                            x       y       z     vdW  Elec       q    Type
REMARK                         _______ _______ _______ _____ _____    ______ ____
ROOT
ATOM      1  N   UNL     1       1.193   9.027  19.359  0.00  0.00    +0.000 N 
ATOM      2  C   UNL     1       1.977   8.605  18.316  0.00  0.00    +0.000 C 
ATOM      3  O   UNL     1       2.082   9.212  17.256  0.00  0.00    +0.000 OA
ATOM      4  H   UNL     1       1.282   8.581  20.259  0.00  0.00    +0.000 HD
ENDROOT
BRANCH   2   5
ATOM      5  C   UNL     1       2.744   7.341  18.520  0.00  0.00    +0.000 A 
ATOM      6  C   UNL     1       2.393   6.531  19.609  0.00  0.00    +0.000 A 
ATOM      7  C   UNL     1       3.136   5.390  19.895  0.00  0.00    +0.000 A 
ATOM      8  C   UNL     1       4.234   5.062  19.097  0.00  0.00    +0.000 A 
ATOM      9  C   UNL     1       4.576   5.847  17.994  0.00  0.00    +0.000 A 
ATOM     10  C   UNL     1       3.835   6.994  17.706  0.00  0.00    +0.000 A 
BRANCH   9  11
ATOM     11  O   UNL     1       5.699   5.446  17.324  0.00  0.00    +0.000 OA
BRANCH  11  12
ATOM     12  C   UNL     1       6.712   4.824  18.116  0.00  0.00    +0.000 C 
BRANCH  12  13
ATOM     13  C   UNL     1       7.616   5.867  18.780  0.00  0.00    +0.000 C 
ATOM     14  N   UNL     1       8.108   5.545  20.009  0.00  0.00    +0.000 N 
ATOM     15  O   UNL     1       7.874   6.947  18.257  0.00  0.00    +0.000 OA
ATOM     16  H   UNL     1       7.884   4.659  20.441  0.00  0.00    +0.000 HD
ATOM     17  H   UNL     1       8.693   6.213  20.491  0.00  0.00    +0.000 HD
ENDBRANCH  12  13
ENDBRANCH  11  12
ENDBRANCH   9  11
ENDBRANCH   2   5
BRANCH   1  18
ATOM     18  C   UNL     1       0.431  10.252  19.242  0.00  0.00    +0.000 C 
BRANCH  18  19
ATOM     19  C   UNL     1       1.188  11.474  19.747  0.00  0.00    +0.000 C 
BRANCH  19  20
ATOM     20  C   UNL     1       0.425  12.172  20.884  0.00  0.00    +0.000 C 
BRANCH  20  22
ATOM     21  C   UNL     1      -1.974  12.304  21.246  0.00  0.00    +0.000 C 
ATOM     22  N   UNL     1      -0.785  11.446  21.308  0.00  0.00    +0.000 NA
BRANCH  22  23
ATOM     23  C   UNL     1      -0.634  10.919  22.699  0.00  0.00    +0.000 C 
BRANCH  23  24
ATOM     24  C   UNL     1      -0.011   9.519  22.941  0.00  0.00    +0.000 C 
ATOM     25  F   UNL     1      -0.009   9.142  24.238  0.00  0.00    +0.000 F 
ATOM     26  F   UNL     1      -0.694   8.575  22.248  0.00  0.00    +0.000 F 
ATOM     27  F   UNL     1       1.272   9.480  22.510  0.00  0.00    +0.000 F 
ENDBRANCH  23  24
ENDBRANCH  22  23
ENDBRANCH  20  22
ENDBRANCH  19  20
ENDBRANCH  18  19
ENDBRANCH   1  18
TORSDOF 10
ENDMDL
MODEL 9
REMARK VINA RESULT:      -6.1      4.057      6.133
REMARK  Name = 
REMARK  11 active torsions:
REMARK  status: ('A' for Active; 'I' for Inactive)
REMARK    1  A    between atoms: C_1  and  N_2
REMARK    2  A    between atoms: N_2  and  C_3
REMARK    3  A    between atoms: N_2  and  C_20
REMARK    4  A    between atoms: C_3  and  C_4
REMARK    5  A    between atoms: C_4  and  C_5
REMARK    6  A    between atoms: C_5  and  N_6
REMARK    7  A    between atoms: C_7  and  C_9
REMARK    8  A    between atoms: C_13  and  O_14
REMARK    9  A    between atoms: O_14  and  C_15
REMARK   10  A    between atoms: C_15  and  C_16
REMARK   11  A    between atoms: C_20  and  C_21
REMARK                            x       y       z     vdW  Elec       q    Type
REMARK                         _______ _______ _______ _____ _____    ______ ____
ROOT
ATOM      1  N   UNL     1       2.333   8.788  17.682  0.00  0.00    +0.000 N 
ATOM      2  C   UNL     1       2.491   7.704  18.507  0.00  0.00    +0.000 C 
ATOM      3  O   UNL     1       2.148   7.691  19.684  0.00  0.00    +0.000 OA
ATOM      4  H   UNL     1       2.474   8.680  16.689  0.00  0.00    +0.000 HD
ENDROOT
BRANCH   2   5
ATOM      5  C   UNL     1       3.103   6.484  17.905  0.00  0.00    +0.000 A 
ATOM      6  C   UNL     1       4.311   6.632  17.209  0.00  0.00    +0.000 A 
ATOM      7  C   UNL     1       4.873   5.542  16.552  0.00  0.00    +0.000 A 
ATOM      8  C   UNL     1       4.227   4.306  16.585  0.00  0.00    +0.000 A 
ATOM      9  C   UNL     1       3.037   4.140  17.298  0.00  0.00    +0.000 A 
ATOM     10  C   UNL     1       2.468   5.232  17.954  0.00  0.00    +0.000 A 
BRANCH   9  11
ATOM     11  O   UNL     1       2.479   2.894  17.211  0.00  0.00    +0.000 OA
BRANCH  11  12
ATOM     12  C   UNL     1       2.247   2.225  18.452  0.00  0.00    +0.000 C 
BRANCH  12  13
ATOM     13  C   UNL     1       3.566   1.836  19.128  0.00  0.00    +0.000 C 
ATOM     14  N   UNL     1       4.264   0.819  18.549  0.00  0.00    +0.000 N 
ATOM     15  O   UNL     1       3.973   2.383  20.149  0.00  0.00    +0.000 OA
ATOM     16  H   UNL     1       3.920   0.363  17.714  0.00  0.00    +0.000 HD
ATOM     17  H   UNL     1       5.129   0.517  18.973  0.00  0.00    +0.000 HD
ENDBRANCH  12  13
ENDBRANCH  11  12
ENDBRANCH   9  11
ENDBRANCH   2   5
BRANCH   1  18
ATOM     18  C   UNL     1       1.733  10.003  18.190  0.00  0.00    +0.000 C 
BRANCH  18  19
ATOM     19  C   UNL     1       0.288   9.812  18.634  0.00  0.00    +0.000 C 
BRANCH  19  20
ATOM     20  C   UNL     1      -0.314  11.128  19.154  0.00  0.00    +0.000 C 
BRANCH  20  22
ATOM     21  C   UNL     1      -1.585  12.246  20.897  0.00  0.00    +0.000 C 
ATOM     22  N   UNL     1      -0.896  11.011  20.502  0.00  0.00    +0.000 NA
BRANCH  22  23
ATOM     23  C   UNL     1       0.158  10.693  21.515  0.00  0.00    +0.000 C 
BRANCH  23  24
ATOM     24  C   UNL     1       0.075   9.386  22.345  0.00  0.00    +0.000 C 
ATOM     25  F   UNL     1      -0.726   8.445  21.799  0.00  0.00    +0.000 F 
ATOM     26  F   UNL     1       1.307   8.836  22.480  0.00  0.00    +0.000 F 
ATOM     27  F   UNL     1      -0.390   9.634  23.592  0.00  0.00    +0.000 F 
ENDBRANCH  23  24
ENDBRANCH  22  23
ENDBRANCH  20  22
ENDBRANCH  19  20
ENDBRANCH  18  19
ENDBRANCH   1  18
TORSDOF 10
ENDMDL
