MODEL 1
REMARK VINA RESULT:      -8.4      0.000      0.000
REMARK  Name = 
REMARK  10 active torsions:
REMARK  status: ('A' for Active; 'I' for Inactive)
REMARK    1  A    between atoms: N_1  and  C_2
REMARK    2  A    between atoms: C_4  and  O_5
REMARK    3  A    between atoms: O_5  and  C_6
REMARK    4  A    between atoms: C_6  and  C_7
REMARK    5  A    between atoms: C_7  and  C_8
REMARK    6  A    between atoms: N_19  and  C1*_20
REMARK    7  A    between atoms: C4*_22  and  C5*_23
REMARK    8  A    between atoms: C5*_23  and  O5*_24
REMARK    9  A    between atoms: C3*_25  and  O3*_26
REMARK   10  A    between atoms: C2*_27  and  O2*_28
REMARK                            x       y       z     vdW  Elec       q    Type
REMARK                         _______ _______ _______ _____ _____    ______ ____
ROOT
ATOM      1  C   UNL     1       7.077   5.623  15.702  0.00  0.00    +0.000 A 
ATOM      2  N   UNL     1       7.808   6.462  16.467  0.00  0.00    +0.000 NA
ATOM      3  C   UNL     1       7.460   6.645  17.763  0.00  0.00    +0.000 A 
ATOM      4  N   UNL     1       6.443   6.068  18.419  0.00  0.00    +0.000 NA
ATOM      5  C   UNL     1       5.725   5.274  17.611  0.00  0.00    +0.000 A 
ATOM      6  C   UNL     1       5.962   5.002  16.275  0.00  0.00    +0.000 A 
ATOM      7  N   UNL     1       4.997   4.148  15.782  0.00  0.00    +0.000 NA
ATOM      8  C   UNL     1       4.217   3.888  16.811  0.00  0.00    +0.000 A 
ATOM      9  N   UNL     1       4.627   4.538  17.943  0.00  0.00    +0.000 N 
ENDROOT
BRANCH   9  10
ATOM     10  C1* UNL     1       4.047   4.411  19.262  0.00  0.00    +0.000 C 
ATOM     11  O4* UNL     1       3.787   3.019  19.540  0.00  0.00    +0.000 OA
ATOM     12  C4* UNL     1       2.483   2.906  20.170  0.00  0.00    +0.000 C 
ATOM     13  C3* UNL     1       2.027   4.329  20.493  0.00  0.00    +0.000 C 
ATOM     14  C2* UNL     1       2.732   5.177  19.448  0.00  0.00    +0.000 C 
BRANCH  13  15
ATOM     15  O3* UNL     1       2.490   4.758  21.789  0.00  0.00    +0.000 OA
ATOM     16  H3* UNL     1       1.785   5.273  22.223  0.00  0.00    +0.000 HD
ENDBRANCH  13  15
BRANCH  14  17
ATOM     17  O2* UNL     1       2.944   6.513  19.908  0.00  0.00    +0.000 OA
ATOM     18  H2* UNL     1       2.982   7.075  19.105  0.00  0.00    +0.000 HD
ENDBRANCH  14  17
BRANCH  12  19
ATOM     19  C5* UNL     1       1.521   2.156  19.246  0.00  0.00    +0.000 C 
BRANCH  19  20
ATOM     20  O5* UNL     1       2.259   1.468  18.238  0.00  0.00    +0.000 OA
ATOM     21  H5* UNL     1       1.623   0.867  17.804  0.00  0.00    +0.000 HD
ENDBRANCH  19  20
ENDBRANCH  12  19
ENDBRANCH   9  10
BRANCH   1  22
ATOM     22  N   UNL     1       7.465   5.425  14.385  0.00  0.00    +0.000 N 
ATOM     23  H   UNL     1       7.293   6.229  13.796  0.00  0.00    +0.000 HD
ATOM     24  H   UNL     1       7.234   4.507  14.023  0.00  0.00    +0.000 HD
ENDBRANCH   1  22
BRANCH   3  25
ATOM     25  O   UNL     1       8.201   7.514  18.545  0.00  0.00    +0.000 OA
BRANCH  25  26
ATOM     26  C   UNL     1       8.207   8.817  17.969  0.00  0.00    +0.000 C 
BRANCH  26  27
ATOM     27  C   UNL     1       8.937   9.793  18.877  0.00  0.00    +0.000 C 
BRANCH  27  28
ATOM     28  C   UNL     1       9.367  11.105  18.181  0.00  0.00    +0.000 C 
ATOM     29  C   UNL     1       8.880  12.366  18.921  0.00  0.00    +0.000 C 
ATOM     30  C   UNL     1       9.874  12.948  19.925  0.00  0.00    +0.000 C 
ATOM     31  C   UNL     1      11.214  13.199  19.258  0.00  0.00    +0.000 C 
ATOM     32  C   UNL     1      11.801  11.890  18.751  0.00  0.00    +0.000 C 
ATOM     33  C   UNL     1      10.864  11.141  17.804  0.00  0.00    +0.000 C 
ENDBRANCH  27  28
ENDBRANCH  26  27
ENDBRANCH  25  26
ENDBRANCH   3  25
TORSDOF 10
ENDMDL
MODEL 2
REMARK VINA RESULT:      -8.0      4.783      7.544
REMARK  Name = 
REMARK  10 active torsions:
REMARK  status: ('A' for Active; 'I' for Inactive)
REMARK    1  A    between atoms: N_1  and  C_2
REMARK    2  A    between atoms: C_4  and  O_5
REMARK    3  A    between atoms: O_5  and  C_6
REMARK    4  A    between atoms: C_6  and  C_7
REMARK    5  A    between atoms: C_7  and  C_8
REMARK    6  A    between atoms: N_19  and  C1*_20
REMARK    7  A    between atoms: C4*_22  and  C5*_23
REMARK    8  A    between atoms: C5*_23  and  O5*_24
REMARK    9  A    between atoms: C3*_25  and  O3*_26
REMARK   10  A    between atoms: C2*_27  and  O2*_28
REMARK                            x       y       z     vdW  Elec       q    Type
REMARK                         _______ _______ _______ _____ _____    ______ ____
ROOT
ATOM      1  C   UNL     1       1.534   3.860  20.064  0.00  0.00    +0.000 A 
ATOM      2  N   UNL     1       1.381   5.117  20.534  0.00  0.00    +0.000 NA
ATOM      3  C   UNL     1       2.222   6.088  20.105  0.00  0.00    +0.000 A 
ATOM      4  N   UNL     1       3.228   5.961  19.228  0.00  0.00    +0.000 NA
ATOM      5  C   UNL     1       3.364   4.691  18.818  0.00  0.00    +0.000 A 
ATOM      6  C   UNL     1       2.584   3.606  19.177  0.00  0.00    +0.000 A 
ATOM      7  N   UNL     1       3.044   2.461  18.558  0.00  0.00    +0.000 NA
ATOM      8  C   UNL     1       4.058   2.859  17.818  0.00  0.00    +0.000 A 
ATOM      9  N   UNL     1       4.280   4.204  17.934  0.00  0.00    +0.000 N 
ENDROOT
BRANCH   9  10
ATOM     10  C1* UNL     1       5.258   4.978  17.200  0.00  0.00    +0.000 C 
ATOM     11  O4* UNL     1       4.748   5.270  15.882  0.00  0.00    +0.000 OA
ATOM     12  C4* UNL     1       5.815   5.075  14.917  0.00  0.00    +0.000 C 
ATOM     13  C3* UNL     1       7.101   4.870  15.718  0.00  0.00    +0.000 C 
ATOM     14  C2* UNL     1       6.613   4.282  17.032  0.00  0.00    +0.000 C 
BRANCH  13  15
ATOM     15  O3* UNL     1       7.752   6.121  16.016  0.00  0.00    +0.000 OA
ATOM     16  H3* UNL     1       7.184   6.855  15.715  0.00  0.00    +0.000 HD
ENDBRANCH  13  15
BRANCH  14  17
ATOM     17  O2* UNL     1       7.510   4.574  18.105  0.00  0.00    +0.000 OA
ATOM     18  H2* UNL     1       8.179   5.191  17.741  0.00  0.00    +0.000 HD
ENDBRANCH  14  17
BRANCH  12  19
ATOM     19  C5* UNL     1       5.480   3.897  13.999  0.00  0.00    +0.000 C 
BRANCH  19  20
ATOM     20  O5* UNL     1       6.608   3.586  13.184  0.00  0.00    +0.000 OA
ATOM     21  H5* UNL     1       7.065   4.435  13.024  0.00  0.00    +0.000 HD
ENDBRANCH  19  20
ENDBRANCH  12  19
ENDBRANCH   9  10
BRANCH   1  22
ATOM     22  N   UNL     1       0.645   2.884  20.492  0.00  0.00    +0.000 N 
ATOM     23  H   UNL     1       0.845   2.548  21.424  0.00  0.00    +0.000 HD
ATOM     24  H   UNL     1       0.406   2.207  19.778  0.00  0.00    +0.000 HD
ENDBRANCH   1  22
BRANCH   3  25
ATOM     25  O   UNL     1       2.075   7.374  20.594  0.00  0.00    +0.000 OA
BRANCH  25  26
ATOM     26  C   UNL     1       1.614   8.247  19.567  0.00  0.00    +0.000 C 
BRANCH  26  27
ATOM     27  C   UNL     1       1.216   9.591  20.153  0.00  0.00    +0.000 C 
BRANCH  27  28
ATOM     28  C   UNL     1      -0.249   9.660  20.642  0.00  0.00    +0.000 C 
ATOM     29  C   UNL     1      -0.477   8.897  21.962  0.00  0.00    +0.000 C 
ATOM     30  C   UNL     1      -0.350   9.745  23.227  0.00  0.00    +0.000 C 
ATOM     31  C   UNL     1      -1.257  10.959  23.143  0.00  0.00    +0.000 C 
ATOM     32  C   UNL     1      -0.849  11.838  21.970  0.00  0.00    +0.000 C 
ATOM     33  C   UNL     1      -0.835  11.089  20.638  0.00  0.00    +0.000 C 
ENDBRANCH  27  28
ENDBRANCH  26  27
ENDBRANCH  25  26
ENDBRANCH   3  25
TORSDOF 10
ENDMDL
MODEL 3
REMARK VINA RESULT:      -7.8      0.774      1.165
REMARK  Name = 
REMARK  10 active torsions:
REMARK  status: ('A' for Active; 'I' for Inactive)
REMARK    1  A    between atoms: N_1  and  C_2
REMARK    2  A    between atoms: C_4  and  O_5
REMARK    3  A    between atoms: O_5  and  C_6
REMARK    4  A    between atoms: C_6  and  C_7
REMARK    5  A    between atoms: C_7  and  C_8
REMARK    6  A    between atoms: N_19  and  C1*_20
REMARK    7  A    between atoms: C4*_22  and  C5*_23
REMARK    8  A    between atoms: C5*_23  and  O5*_24
REMARK    9  A    between atoms: C3*_25  and  O3*_26
REMARK   10  A    between atoms: C2*_27  and  O2*_28
REMARK                            x       y       z     vdW  Elec       q    Type
REMARK                         _______ _______ _______ _____ _____    ______ ____
ROOT
ATOM      1  C   UNL     1       7.030   5.549  15.734  0.00  0.00    +0.000 A 
ATOM      2  N   UNL     1       7.300   6.763  16.262  0.00  0.00    +0.000 NA
ATOM      3  C   UNL     1       6.687   7.132  17.412  0.00  0.00    +0.000 A 
ATOM      4  N   UNL     1       5.814   6.414  18.133  0.00  0.00    +0.000 NA
ATOM      5  C   UNL     1       5.550   5.234  17.551  0.00  0.00    +0.000 A 
ATOM      6  C   UNL     1       6.095   4.735  16.382  0.00  0.00    +0.000 A 
ATOM      7  N   UNL     1       5.565   3.493  16.098  0.00  0.00    +0.000 NA
ATOM      8  C   UNL     1       4.743   3.240  17.096  0.00  0.00    +0.000 A 
ATOM      9  N   UNL     1       4.711   4.262  18.006  0.00  0.00    +0.000 N 
ENDROOT
BRANCH   9  10
ATOM     10  C1* UNL     1       3.980   4.275  19.254  0.00  0.00    +0.000 C 
ATOM     11  O4* UNL     1       3.498   2.946  19.542  0.00  0.00    +0.000 OA
ATOM     12  C4* UNL     1       2.131   3.040  20.023  0.00  0.00    +0.000 C 
ATOM     13  C3* UNL     1       1.847   4.525  20.250  0.00  0.00    +0.000 C 
ATOM     14  C2* UNL     1       2.773   5.221  19.267  0.00  0.00    +0.000 C 
BRANCH  13  15
ATOM     15  O3* UNL     1       2.224   4.946  21.577  0.00  0.00    +0.000 OA
ATOM     16  H3* UNL     1       2.284   4.163  22.154  0.00  0.00    +0.000 HD
ENDBRANCH  13  15
BRANCH  14  17
ATOM     17  O2* UNL     1       3.120   6.535  19.708  0.00  0.00    +0.000 OA
ATOM     18  H2* UNL     1       3.052   6.521  20.686  0.00  0.00    +0.000 HD
ENDBRANCH  14  17
BRANCH  12  19
ATOM     19  C5* UNL     1       1.178   2.388  19.020  0.00  0.00    +0.000 C 
BRANCH  19  20
ATOM     20  O5* UNL     1       1.914   1.544  18.136  0.00  0.00    +0.000 OA
ATOM     21  H5* UNL     1       2.689   1.235  18.645  0.00  0.00    +0.000 HD
ENDBRANCH  19  20
ENDBRANCH  12  19
ENDBRANCH   9  10
BRANCH   1  22
ATOM     22  N   UNL     1       7.688   5.176  14.571  0.00  0.00    +0.000 N 
ATOM     23  H   UNL     1       7.472   4.232  14.279  0.00  0.00    +0.000 HD
ATOM     24  H   UNL     1       8.653   5.481  14.529  0.00  0.00    +0.000 HD
ENDBRANCH   1  22
BRANCH   3  25
ATOM     25  O   UNL     1       6.953   8.380  17.948  0.00  0.00    +0.000 OA
BRANCH  25  26
ATOM     26  C   UNL     1       8.359   8.593  18.035  0.00  0.00    +0.000 C 
BRANCH  26  27
ATOM     27  C   UNL     1       8.666  10.079  18.113  0.00  0.00    +0.000 C 
BRANCH  27  28
ATOM     28  C   UNL     1       9.854  10.433  19.036  0.00  0.00    +0.000 C 
ATOM     29  C   UNL     1      10.834  11.438  18.396  0.00  0.00    +0.000 C 
ATOM     30  C   UNL     1      10.557  12.904  18.723  0.00  0.00    +0.000 C 
ATOM     31  C   UNL     1      10.483  13.107  20.225  0.00  0.00    +0.000 C 
ATOM     32  C   UNL     1       9.338  12.293  20.809  0.00  0.00    +0.000 C 
ATOM     33  C   UNL     1       9.431  10.804  20.474  0.00  0.00    +0.000 C 
ENDBRANCH  27  28
ENDBRANCH  26  27
ENDBRANCH  25  26
ENDBRANCH   3  25
TORSDOF 10
ENDMDL
MODEL 4
REMARK VINA RESULT:      -7.8      4.567      7.095
REMARK  Name = 
REMARK  10 active torsions:
REMARK  status: ('A' for Active; 'I' for Inactive)
REMARK    1  A    between atoms: N_1  and  C_2
REMARK    2  A    between atoms: C_4  and  O_5
REMARK    3  A    between atoms: O_5  and  C_6
REMARK    4  A    between atoms: C_6  and  C_7
REMARK    5  A    between atoms: C_7  and  C_8
REMARK    6  A    between atoms: N_19  and  C1*_20
REMARK    7  A    between atoms: C4*_22  and  C5*_23
REMARK    8  A    between atoms: C5*_23  and  O5*_24
REMARK    9  A    between atoms: C3*_25  and  O3*_26
REMARK   10  A    between atoms: C2*_27  and  O2*_28
REMARK                            x       y       z     vdW  Elec       q    Type
REMARK                         _______ _______ _______ _____ _____    ______ ____
ROOT
ATOM      1  C   UNL     1       1.522   3.892  20.346  0.00  0.00    +0.000 A 
ATOM      2  N   UNL     1       1.234   5.155  20.726  0.00  0.00    +0.000 NA
ATOM      3  C   UNL     1       2.006   6.172  20.271  0.00  0.00    +0.000 A 
ATOM      4  N   UNL     1       3.061   6.085  19.449  0.00  0.00    +0.000 NA
ATOM      5  C   UNL     1       3.330   4.811  19.129  0.00  0.00    +0.000 A 
ATOM      6  C   UNL     1       2.634   3.682  19.523  0.00  0.00    +0.000 A 
ATOM      7  N   UNL     1       3.224   2.549  19.001  0.00  0.00    +0.000 NA
ATOM      8  C   UNL     1       4.234   2.993  18.282  0.00  0.00    +0.000 A 
ATOM      9  N   UNL     1       4.329   4.358  18.321  0.00  0.00    +0.000 N 
ENDROOT
BRANCH   9  10
ATOM     10  C1* UNL     1       5.269   5.173  17.582  0.00  0.00    +0.000 C 
ATOM     11  O4* UNL     1       4.706   5.509  16.296  0.00  0.00    +0.000 OA
ATOM     12  C4* UNL     1       5.737   5.367  15.284  0.00  0.00    +0.000 C 
ATOM     13  C3* UNL     1       7.055   5.148  16.028  0.00  0.00    +0.000 C 
ATOM     14  C2* UNL     1       6.625   4.502  17.334  0.00  0.00    +0.000 C 
BRANCH  13  15
ATOM     15  O3* UNL     1       7.703   6.395  16.350  0.00  0.00    +0.000 OA
ATOM     16  H3* UNL     1       8.261   6.269  17.139  0.00  0.00    +0.000 HD
ENDBRANCH  13  15
BRANCH  14  17
ATOM     17  O2* UNL     1       7.559   4.764  18.384  0.00  0.00    +0.000 OA
ATOM     18  H2* UNL     1       8.180   4.005  18.392  0.00  0.00    +0.000 HD
ENDBRANCH  14  17
BRANCH  12  19
ATOM     19  C5* UNL     1       5.381   4.222  14.334  0.00  0.00    +0.000 C 
BRANCH  19  20
ATOM     20  O5* UNL     1       6.575   3.605  13.854  0.00  0.00    +0.000 OA
ATOM     21  H5* UNL     1       7.067   4.307  13.384  0.00  0.00    +0.000 HD
ENDBRANCH  19  20
ENDBRANCH  12  19
ENDBRANCH   9  10
BRANCH   1  22
ATOM     22  N   UNL     1       0.705   2.865  20.796  0.00  0.00    +0.000 N 
ATOM     23  H   UNL     1       1.058   1.947  20.566  0.00  0.00    +0.000 HD
ATOM     24  H   UNL     1      -0.284   3.044  20.672  0.00  0.00    +0.000 HD
ENDBRANCH   1  22
BRANCH   3  25
ATOM     25  O   UNL     1       1.719   7.466  20.669  0.00  0.00    +0.000 OA
BRANCH  25  26
ATOM     26  C   UNL     1       1.817   8.359  19.563  0.00  0.00    +0.000 C 
BRANCH  26  27
ATOM     27  C   UNL     1       0.917   9.566  19.775  0.00  0.00    +0.000 C 
BRANCH  27  28
ATOM     28  C   UNL     1       0.728  10.443  18.517  0.00  0.00    +0.000 C 
ATOM     29  C   UNL     1      -0.755  10.707  18.186  0.00  0.00    +0.000 C 
ATOM     30  C   UNL     1      -1.327  11.995  18.779  0.00  0.00    +0.000 C 
ATOM     31  C   UNL     1      -0.468  13.183  18.390  0.00  0.00    +0.000 C 
ATOM     32  C   UNL     1       0.939  13.019  18.947  0.00  0.00    +0.000 C 
ATOM     33  C   UNL     1       1.605  11.714  18.512  0.00  0.00    +0.000 C 
ENDBRANCH  27  28
ENDBRANCH  26  27
ENDBRANCH  25  26
ENDBRANCH   3  25
TORSDOF 10
ENDMDL
MODEL 5
REMARK VINA RESULT:      -7.7      4.686      7.520
REMARK  Name = 
REMARK  10 active torsions:
REMARK  status: ('A' for Active; 'I' for Inactive)
REMARK    1  A    between atoms: N_1  and  C_2
REMARK    2  A    between atoms: C_4  and  O_5
REMARK    3  A    between atoms: O_5  and  C_6
REMARK    4  A    between atoms: C_6  and  C_7
REMARK    5  A    between atoms: C_7  and  C_8
REMARK    6  A    between atoms: N_19  and  C1*_20
REMARK    7  A    between atoms: C4*_22  and  C5*_23
REMARK    8  A    between atoms: C5*_23  and  O5*_24
REMARK    9  A    between atoms: C3*_25  and  O3*_26
REMARK   10  A    between atoms: C2*_27  and  O2*_28
REMARK                            x       y       z     vdW  Elec       q    Type
REMARK                         _______ _______ _______ _____ _____    ______ ____
ROOT
ATOM      1  C   UNL     1       1.606   4.162  20.386  0.00  0.00    +0.000 A 
ATOM      2  N   UNL     1       1.276   5.450  20.622  0.00  0.00    +0.000 NA
ATOM      3  C   UNL     1       2.033   6.434  20.081  0.00  0.00    +0.000 A 
ATOM      4  N   UNL     1       3.112   6.291  19.299  0.00  0.00    +0.000 NA
ATOM      5  C   UNL     1       3.423   4.998  19.123  0.00  0.00    +0.000 A 
ATOM      6  C   UNL     1       2.746   3.898  19.618  0.00  0.00    +0.000 A 
ATOM      7  N   UNL     1       3.378   2.733  19.234  0.00  0.00    +0.000 NA
ATOM      8  C   UNL     1       4.396   3.127  18.496  0.00  0.00    +0.000 A 
ATOM      9  N   UNL     1       4.455   4.491  18.391  0.00  0.00    +0.000 N 
ENDROOT
BRANCH   9  10
ATOM     10  C1* UNL     1       5.393   5.249  17.593  0.00  0.00    +0.000 C 
ATOM     11  O4* UNL     1       4.781   5.594  16.332  0.00  0.00    +0.000 OA
ATOM     12  C4* UNL     1       5.752   5.388  15.272  0.00  0.00    +0.000 C 
ATOM     13  C3* UNL     1       7.094   5.116  15.952  0.00  0.00    +0.000 C 
ATOM     14  C2* UNL     1       6.701   4.510  17.289  0.00  0.00    +0.000 C 
BRANCH  13  15
ATOM     15  O3* UNL     1       7.815   6.335  16.220  0.00  0.00    +0.000 OA
ATOM     16  H3* UNL     1       7.556   6.671  17.098  0.00  0.00    +0.000 HD
ENDBRANCH  13  15
BRANCH  14  17
ATOM     17  O2* UNL     1       7.699   4.741  18.286  0.00  0.00    +0.000 OA
ATOM     18  H2* UNL     1       8.137   5.584  18.042  0.00  0.00    +0.000 HD
ENDBRANCH  14  17
BRANCH  12  19
ATOM     19  C5* UNL     1       5.294   4.248  14.359  0.00  0.00    +0.000 C 
BRANCH  19  20
ATOM     20  O5* UNL     1       6.416   3.452  13.984  0.00  0.00    +0.000 OA
ATOM     21  H5* UNL     1       6.762   3.849  13.161  0.00  0.00    +0.000 HD
ENDBRANCH  19  20
ENDBRANCH  12  19
ENDBRANCH   9  10
BRANCH   1  22
ATOM     22  N   UNL     1       0.804   3.166  20.924  0.00  0.00    +0.000 N 
ATOM     23  H   UNL     1       0.767   2.334  20.352  0.00  0.00    +0.000 HD
ATOM     24  H   UNL     1      -0.060   3.509  21.327  0.00  0.00    +0.000 HD
ENDBRANCH   1  22
BRANCH   3  25
ATOM     25  O   UNL     1       1.703   7.755  20.332  0.00  0.00    +0.000 OA
BRANCH  25  26
ATOM     26  C   UNL     1       1.774   8.520  19.132  0.00  0.00    +0.000 C 
BRANCH  26  27
ATOM     27  C   UNL     1       1.184   9.904  19.351  0.00  0.00    +0.000 C 
BRANCH  27  28
ATOM     28  C   UNL     1      -0.309   9.900  19.749  0.00  0.00    +0.000 C 
ATOM     29  C   UNL     1      -0.590  10.700  21.037  0.00  0.00    +0.000 C 
ATOM     30  C   UNL     1      -0.982  12.160  20.816  0.00  0.00    +0.000 C 
ATOM     31  C   UNL     1      -2.154  12.254  19.857  0.00  0.00    +0.000 C 
ATOM     32  C   UNL     1      -1.770  11.682  18.501  0.00  0.00    +0.000 C 
ATOM     33  C   UNL     1      -1.260  10.243  18.581  0.00  0.00    +0.000 C 
ENDBRANCH  27  28
ENDBRANCH  26  27
ENDBRANCH  25  26
ENDBRANCH   3  25
TORSDOF 10
ENDMDL
MODEL 6
REMARK VINA RESULT:      -7.7      4.697      7.593
REMARK  Name = 
REMARK  10 active torsions:
REMARK  status: ('A' for Active; 'I' for Inactive)
REMARK    1  A    between atoms: N_1  and  C_2
REMARK    2  A    between atoms: C_4  and  O_5
REMARK    3  A    between atoms: O_5  and  C_6
REMARK    4  A    between atoms: C_6  and  C_7
REMARK    5  A    between atoms: C_7  and  C_8
REMARK    6  A    between atoms: N_19  and  C1*_20
REMARK    7  A    between atoms: C4*_22  and  C5*_23
REMARK    8  A    between atoms: C5*_23  and  O5*_24
REMARK    9  A    between atoms: C3*_25  and  O3*_26
REMARK   10  A    between atoms: C2*_27  and  O2*_28
REMARK                            x       y       z     vdW  Elec       q    Type
REMARK                         _______ _______ _______ _____ _____    ______ ____
ROOT
ATOM      1  C   UNL     1       1.704   3.989  20.515  0.00  0.00    +0.000 A 
ATOM      2  N   UNL     1       1.377   5.267  20.802  0.00  0.00    +0.000 NA
ATOM      3  C   UNL     1       2.105   6.272  20.258  0.00  0.00    +0.000 A 
ATOM      4  N   UNL     1       3.150   6.158  19.426  0.00  0.00    +0.000 NA
ATOM      5  C   UNL     1       3.460   4.872  19.200  0.00  0.00    +0.000 A 
ATOM      6  C   UNL     1       2.810   3.754  19.691  0.00  0.00    +0.000 A 
ATOM      7  N   UNL     1       3.431   2.605  19.247  0.00  0.00    +0.000 NA
ATOM      8  C   UNL     1       4.414   3.027  18.478  0.00  0.00    +0.000 A 
ATOM      9  N   UNL     1       4.461   4.393  18.410  0.00  0.00    +0.000 N 
ENDROOT
BRANCH   9  10
ATOM     10  C1* UNL     1       5.360   5.180  17.594  0.00  0.00    +0.000 C 
ATOM     11  O4* UNL     1       4.716   5.504  16.345  0.00  0.00    +0.000 OA
ATOM     12  C4* UNL     1       5.673   5.328  15.267  0.00  0.00    +0.000 C 
ATOM     13  C3* UNL     1       7.035   5.100  15.923  0.00  0.00    +0.000 C 
ATOM     14  C2* UNL     1       6.686   4.483  17.267  0.00  0.00    +0.000 C 
BRANCH  13  15
ATOM     15  O3* UNL     1       7.722   6.342  16.178  0.00  0.00    +0.000 OA
ATOM     16  H3* UNL     1       7.692   6.892  15.374  0.00  0.00    +0.000 HD
ENDBRANCH  13  15
BRANCH  14  17
ATOM     17  O2* UNL     1       7.693   4.747  18.246  0.00  0.00    +0.000 OA
ATOM     18  H2* UNL     1       7.806   3.914  18.752  0.00  0.00    +0.000 HD
ENDBRANCH  14  17
BRANCH  12  19
ATOM     19  C5* UNL     1       5.236   4.173  14.364  0.00  0.00    +0.000 C 
BRANCH  19  20
ATOM     20  O5* UNL     1       6.382   3.452  13.915  0.00  0.00    +0.000 OA
ATOM     21  H5* UNL     1       6.150   3.105  13.031  0.00  0.00    +0.000 HD
ENDBRANCH  19  20
ENDBRANCH  12  19
ENDBRANCH   9  10
BRANCH   1  22
ATOM     22  N   UNL     1       0.930   2.973  21.057  0.00  0.00    +0.000 N 
ATOM     23  H   UNL     1       0.971   2.940  22.067  0.00  0.00    +0.000 HD
ATOM     24  H   UNL     1       0.982   2.100  20.546  0.00  0.00    +0.000 HD
ENDBRANCH   1  22
BRANCH   3  25
ATOM     25  O   UNL     1       1.780   7.582  20.561  0.00  0.00    +0.000 OA
BRANCH  25  26
ATOM     26  C   UNL     1       0.515   7.641  21.213  0.00  0.00    +0.000 C 
BRANCH  26  27
ATOM     27  C   UNL     1      -0.152   8.983  20.957  0.00  0.00    +0.000 C 
BRANCH  27  28
ATOM     28  C   UNL     1       0.320  10.115  21.897  0.00  0.00    +0.000 C 
ATOM     29  C   UNL     1       0.631  11.427  21.149  0.00  0.00    +0.000 C 
ATOM     30  C   UNL     1      -0.532  12.413  21.069  0.00  0.00    +0.000 C 
ATOM     31  C   UNL     1      -1.080  12.700  22.454  0.00  0.00    +0.000 C 
ATOM     32  C   UNL     1      -1.617  11.423  23.081  0.00  0.00    +0.000 C 
ATOM     33  C   UNL     1      -0.580  10.302  23.138  0.00  0.00    +0.000 C 
ENDBRANCH  27  28
ENDBRANCH  26  27
ENDBRANCH  25  26
ENDBRANCH   3  25
TORSDOF 10
ENDMDL
MODEL 7
REMARK VINA RESULT:      -7.7      1.413      1.853
REMARK  Name = 
REMARK  10 active torsions:
REMARK  status: ('A' for Active; 'I' for Inactive)
REMARK    1  A    between atoms: N_1  and  C_2
REMARK    2  A    between atoms: C_4  and  O_5
REMARK    3  A    between atoms: O_5  and  C_6
REMARK    4  A    between atoms: C_6  and  C_7
REMARK    5  A    between atoms: C_7  and  C_8
REMARK    6  A    between atoms: N_19  and  C1*_20
REMARK    7  A    between atoms: C4*_22  and  C5*_23
REMARK    8  A    between atoms: C5*_23  and  O5*_24
REMARK    9  A    between atoms: C3*_25  and  O3*_26
REMARK   10  A    between atoms: C2*_27  and  O2*_28
REMARK                            x       y       z     vdW  Elec       q    Type
REMARK                         _______ _______ _______ _____ _____    ______ ____
ROOT
ATOM      1  C   UNL     1       6.492   4.664  15.476  0.00  0.00    +0.000 A 
ATOM      2  N   UNL     1       7.327   5.714  15.626  0.00  0.00    +0.000 NA
ATOM      3  C   UNL     1       7.071   6.627  16.594  0.00  0.00    +0.000 A 
ATOM      4  N   UNL     1       6.056   6.620  17.468  0.00  0.00    +0.000 NA
ATOM      5  C   UNL     1       5.234   5.580  17.257  0.00  0.00    +0.000 A 
ATOM      6  C   UNL     1       5.370   4.583  16.308  0.00  0.00    +0.000 A 
ATOM      7  N   UNL     1       4.316   3.695  16.392  0.00  0.00    +0.000 NA
ATOM      8  C   UNL     1       3.582   4.135  17.393  0.00  0.00    +0.000 A 
ATOM      9  N   UNL     1       4.106   5.268  17.955  0.00  0.00    +0.000 N 
ENDROOT
BRANCH   9  10
ATOM     10  C1* UNL     1       3.598   5.961  19.118  0.00  0.00    +0.000 C 
ATOM     11  O4* UNL     1       3.343   5.008  20.172  0.00  0.00    +0.000 OA
ATOM     12  C4* UNL     1       2.075   5.335  20.799  0.00  0.00    +0.000 C 
ATOM     13  C3* UNL     1       1.647   6.693  20.242  0.00  0.00    +0.000 C 
ATOM     14  C2* UNL     1       2.301   6.739  18.871  0.00  0.00    +0.000 C 
BRANCH  13  15
ATOM     15  O3* UNL     1       2.184   7.784  21.018  0.00  0.00    +0.000 OA
ATOM     16  H3* UNL     1       1.823   7.738  21.922  0.00  0.00    +0.000 HD
ENDBRANCH  13  15
BRANCH  14  17
ATOM     17  O2* UNL     1       2.547   8.082  18.449  0.00  0.00    +0.000 OA
ATOM     18  H2* UNL     1       3.492   8.117  18.189  0.00  0.00    +0.000 HD
ENDBRANCH  14  17
BRANCH  12  19
ATOM     19  C5* UNL     1       1.058   4.224  20.531  0.00  0.00    +0.000 C 
BRANCH  19  20
ATOM     20  O5* UNL     1       1.740   3.020  20.186  0.00  0.00    +0.000 OA
ATOM     21  H5* UNL     1       1.967   2.589  21.034  0.00  0.00    +0.000 HD
ENDBRANCH  19  20
ENDBRANCH  12  19
ENDBRANCH   9  10
BRANCH   1  22
ATOM     22  N   UNL     1       6.784   3.723  14.499  0.00  0.00    +0.000 N 
ATOM     23  H   UNL     1       7.363   4.090  13.756  0.00  0.00    +0.000 HD
ATOM     24  H   UNL     1       6.000   3.134  14.250  0.00  0.00    +0.000 HD
ENDBRANCH   1  22
BRANCH   3  25
ATOM     25  O   UNL     1       7.920   7.711  16.740  0.00  0.00    +0.000 OA
BRANCH  25  26
ATOM     26  C   UNL     1       7.971   8.120  18.104  0.00  0.00    +0.000 C 
BRANCH  26  27
ATOM     27  C   UNL     1       8.093   9.632  18.199  0.00  0.00    +0.000 C 
BRANCH  27  28
ATOM     28  C   UNL     1       9.438  10.123  18.781  0.00  0.00    +0.000 C 
ATOM     29  C   UNL     1      10.179  11.097  17.843  0.00  0.00    +0.000 C 
ATOM     30  C   UNL     1       9.895  12.577  18.096  0.00  0.00    +0.000 C 
ATOM     31  C   UNL     1      10.157  12.925  19.549  0.00  0.00    +0.000 C 
ATOM     32  C   UNL     1       9.229  12.129  20.455  0.00  0.00    +0.000 C 
ATOM     33  C   UNL     1       9.335  10.619  20.240  0.00  0.00    +0.000 C 
ENDBRANCH  27  28
ENDBRANCH  26  27
ENDBRANCH  25  26
ENDBRANCH   3  25
TORSDOF 10
ENDMDL
MODEL 8
REMARK VINA RESULT:      -7.6      4.767      7.481
REMARK  Name = 
REMARK  10 active torsions:
REMARK  status: ('A' for Active; 'I' for Inactive)
REMARK    1  A    between atoms: N_1  and  C_2
REMARK    2  A    between atoms: C_4  and  O_5
REMARK    3  A    between atoms: O_5  and  C_6
REMARK    4  A    between atoms: C_6  and  C_7
REMARK    5  A    between atoms: C_7  and  C_8
REMARK    6  A    between atoms: N_19  and  C1*_20
REMARK    7  A    between atoms: C4*_22  and  C5*_23
REMARK    8  A    between atoms: C5*_23  and  O5*_24
REMARK    9  A    between atoms: C3*_25  and  O3*_26
REMARK   10  A    between atoms: C2*_27  and  O2*_28
REMARK                            x       y       z     vdW  Elec       q    Type
REMARK                         _______ _______ _______ _____ _____    ______ ____
ROOT
ATOM      1  C   UNL     1       1.538   4.103  20.219  0.00  0.00    +0.000 A 
ATOM      2  N   UNL     1       1.395   5.373  20.654  0.00  0.00    +0.000 NA
ATOM      3  C   UNL     1       2.245   6.326  20.200  0.00  0.00    +0.000 A 
ATOM      4  N   UNL     1       3.250   6.167  19.328  0.00  0.00    +0.000 NA
ATOM      5  C   UNL     1       3.376   4.885  18.953  0.00  0.00    +0.000 A 
ATOM      6  C   UNL     1       2.587   3.816  19.340  0.00  0.00    +0.000 A 
ATOM      7  N   UNL     1       3.038   2.651  18.753  0.00  0.00    +0.000 NA
ATOM      8  C   UNL     1       4.056   3.021  18.003  0.00  0.00    +0.000 A 
ATOM      9  N   UNL     1       4.289   4.367  18.084  0.00  0.00    +0.000 N 
ENDROOT
BRANCH   9  10
ATOM     10  C1* UNL     1       5.274   5.113  17.331  0.00  0.00    +0.000 C 
ATOM     11  O4* UNL     1       4.745   5.424  16.025  0.00  0.00    +0.000 OA
ATOM     12  C4* UNL     1       5.784   5.200  15.036  0.00  0.00    +0.000 C 
ATOM     13  C3* UNL     1       7.080   4.953  15.809  0.00  0.00    +0.000 C 
ATOM     14  C2* UNL     1       6.604   4.376  17.131  0.00  0.00    +0.000 C 
BRANCH  13  15
ATOM     15  O3* UNL     1       7.776   6.183  16.095  0.00  0.00    +0.000 OA
ATOM     16  H3* UNL     1       7.195   6.762  16.623  0.00  0.00    +0.000 HD
ENDBRANCH  13  15
BRANCH  14  17
ATOM     17  O2* UNL     1       7.532   4.637  18.186  0.00  0.00    +0.000 OA
ATOM     18  H2* UNL     1       7.922   5.517  17.994  0.00  0.00    +0.000 HD
ENDBRANCH  14  17
BRANCH  12  19
ATOM     19  C5* UNL     1       5.393   4.036  14.123  0.00  0.00    +0.000 C 
BRANCH  19  20
ATOM     20  O5* UNL     1       6.549   3.547  13.445  0.00  0.00    +0.000 OA
ATOM     21  H5* UNL     1       7.316   3.867  13.959  0.00  0.00    +0.000 HD
ENDBRANCH  19  20
ENDBRANCH  12  19
ENDBRANCH   9  10
BRANCH   1  22
ATOM     22  N   UNL     1       0.641   3.146  20.671  0.00  0.00    +0.000 N 
ATOM     23  H   UNL     1      -0.323   3.385  20.482  0.00  0.00    +0.000 HD
ATOM     24  H   UNL     1       0.871   2.767  21.582  0.00  0.00    +0.000 HD
ENDBRANCH   1  22
BRANCH   3  25
ATOM     25  O   UNL     1       2.107   7.626  20.655  0.00  0.00    +0.000 OA
BRANCH  25  26
ATOM     26  C   UNL     1       0.746   7.897  20.977  0.00  0.00    +0.000 C 
BRANCH  26  27
ATOM     27  C   UNL     1       0.629   9.223  21.710  0.00  0.00    +0.000 C 
BRANCH  27  28
ATOM     28  C   UNL     1       0.682  10.463  20.789  0.00  0.00    +0.000 C 
ATOM     29  C   UNL     1       0.277  10.149  19.335  0.00  0.00    +0.000 C 
ATOM     30  C   UNL     1      -1.200  10.372  19.016  0.00  0.00    +0.000 C 
ATOM     31  C   UNL     1      -1.618  11.780  19.399  0.00  0.00    +0.000 C 
ATOM     32  C   UNL     1      -1.446  11.989  20.896  0.00  0.00    +0.000 C 
ATOM     33  C   UNL     1      -0.025  11.703  21.380  0.00  0.00    +0.000 C 
ENDBRANCH  27  28
ENDBRANCH  26  27
ENDBRANCH  25  26
ENDBRANCH   3  25
TORSDOF 10
ENDMDL
MODEL 9
REMARK VINA RESULT:      -7.6      4.040      7.426
REMARK  Name = 
REMARK  10 active torsions:
REMARK  status: ('A' for Active; 'I' for Inactive)
REMARK    1  A    between atoms: N_1  and  C_2
REMARK    2  A    between atoms: C_4  and  O_5
REMARK    3  A    between atoms: O_5  and  C_6
REMARK    4  A    between atoms: C_6  and  C_7
REMARK    5  A    between atoms: C_7  and  C_8
REMARK    6  A    between atoms: N_19  and  C1*_20
REMARK    7  A    between atoms: C4*_22  and  C5*_23
REMARK    8  A    between atoms: C5*_23  and  O5*_24
REMARK    9  A    between atoms: C3*_25  and  O3*_26
REMARK   10  A    between atoms: C2*_27  and  O2*_28
REMARK                            x       y       z     vdW  Elec       q    Type
REMARK                         _______ _______ _______ _____ _____    ______ ____
ROOT
ATOM      1  C   UNL     1       1.215   3.553  19.677  0.00  0.00    +0.000 A 
ATOM      2  N   UNL     1       0.861   4.594  20.461  0.00  0.00    +0.000 NA
ATOM      3  C   UNL     1       1.685   5.666  20.543  0.00  0.00    +0.000 A 
ATOM      4  N   UNL     1       2.855   5.841  19.915  0.00  0.00    +0.000 NA
ATOM      5  C   UNL     1       3.182   4.768  19.179  0.00  0.00    +0.000 A 
ATOM      6  C   UNL     1       2.444   3.610  19.010  0.00  0.00    +0.000 A 
ATOM      7  N   UNL     1       3.117   2.728  18.190  0.00  0.00    +0.000 NA
ATOM      8  C   UNL     1       4.223   3.358  17.850  0.00  0.00    +0.000 A 
ATOM      9  N   UNL     1       4.298   4.602  18.415  0.00  0.00    +0.000 N 
ENDROOT
BRANCH   9  10
ATOM     10  C1* UNL     1       5.334   5.586  18.186  0.00  0.00    +0.000 C 
ATOM     11  O4* UNL     1       5.351   5.949  16.790  0.00  0.00    +0.000 OA
ATOM     12  C4* UNL     1       6.731   6.019  16.344  0.00  0.00    +0.000 C 
ATOM     13  C3* UNL     1       7.603   5.911  17.595  0.00  0.00    +0.000 C 
ATOM     14  C2* UNL     1       6.744   5.115  18.562  0.00  0.00    +0.000 C 
BRANCH  13  15
ATOM     15  O3* UNL     1       7.848   7.202  18.190  0.00  0.00    +0.000 OA
ATOM     16  H3* UNL     1       7.208   7.346  18.911  0.00  0.00    +0.000 HD
ENDBRANCH  13  15
BRANCH  14  17
ATOM     17  O2* UNL     1       7.069   5.409  19.922  0.00  0.00    +0.000 OA
ATOM     18  H2* UNL     1       6.565   4.768  20.467  0.00  0.00    +0.000 HD
ENDBRANCH  14  17
BRANCH  12  19
ATOM     19  C5* UNL     1       7.005   4.917  15.318  0.00  0.00    +0.000 C 
BRANCH  19  20
ATOM     20  O5* UNL     1       7.752   5.451  14.226  0.00  0.00    +0.000 OA
ATOM     21  H5* UNL     1       7.385   6.342  14.062  0.00  0.00    +0.000 HD
ENDBRANCH  19  20
ENDBRANCH  12  19
ENDBRANCH   9  10
BRANCH   1  22
ATOM     22  N   UNL     1       0.347   2.475  19.581  0.00  0.00    +0.000 N 
ATOM     23  H   UNL     1       0.812   1.612  19.331  0.00  0.00    +0.000 HD
ATOM     24  H   UNL     1      -0.531   2.695  19.128  0.00  0.00    +0.000 HD
ENDBRANCH   1  22
BRANCH   3  25
ATOM     25  O   UNL     1       1.329   6.730  21.355  0.00  0.00    +0.000 OA
BRANCH  25  26
ATOM     26  C   UNL     1       1.552   7.965  20.682  0.00  0.00    +0.000 C 
BRANCH  26  27
ATOM     27  C   UNL     1       1.196   9.133  21.586  0.00  0.00    +0.000 C 
BRANCH  27  28
ATOM     28  C   UNL     1      -0.233   9.684  21.376  0.00  0.00    +0.000 C 
ATOM     29  C   UNL     1      -0.572  10.851  22.326  0.00  0.00    +0.000 C 
ATOM     30  C   UNL     1      -0.296  12.243  21.759  0.00  0.00    +0.000 C 
ATOM     31  C   UNL     1      -0.991  12.417  20.422  0.00  0.00    +0.000 C 
ATOM     32  C   UNL     1      -0.455  11.409  19.416  0.00  0.00    +0.000 C 
ATOM     33  C   UNL     1      -0.576   9.964  19.896  0.00  0.00    +0.000 C 
ENDBRANCH  27  28
ENDBRANCH  26  27
ENDBRANCH  25  26
ENDBRANCH   3  25
TORSDOF 10
ENDMDL
