MODEL 1
REMARK VINA RESULT:      -7.8      0.000      0.000
REMARK  Name = 
REMARK  6 active torsions:
REMARK  status: ('A' for Active; 'I' for Inactive)
REMARK    1  A    between atoms: C_1  and  O_2
REMARK    2  A    between atoms: O_2  and  C_3
REMARK    3  A    between atoms: C_5  and  O_6
REMARK    4  A    between atoms: C_12  and  C_13
REMARK    5  A    between atoms: C_13  and  C_14
REMARK    6  A    between atoms: C_17  and  O_18
REMARK                            x       y       z     vdW  Elec       q    Type
REMARK                         _______ _______ _______ _____ _____    ______ ____
ROOT
ATOM      1  C   UNL     1       7.306   6.696  17.869  0.00  0.00    +0.000 A 
ATOM      2  C   UNL     1       8.116   6.447  18.989  0.00  0.00    +0.000 A 
ATOM      3  C   UNL     1       7.799   5.412  19.865  0.00  0.00    +0.000 A 
ATOM      4  C   UNL     1       6.700   4.600  19.639  0.00  0.00    +0.000 A 
ATOM      5  C   UNL     1       5.889   4.837  18.530  0.00  0.00    +0.000 A 
ATOM      6  C   UNL     1       6.154   5.914  17.666  0.00  0.00    +0.000 A 
ATOM      7  C   UNL     1       5.144   6.194  16.599  0.00  0.00    +0.000 C 
ATOM      8  O   UNL     1       5.319   7.015  15.708  0.00  0.00    +0.000 OA
ATOM      9  C   UNL     1       3.844   5.422  16.701  0.00  0.00    +0.000 C 
ATOM     10  C   UNL     1       4.256   4.008  17.081  0.00  0.00    +0.000 C 
ATOM     11  O   UNL     1       4.830   3.974  18.389  0.00  0.00    +0.000 OA
ENDROOT
BRANCH   1  13
ATOM     12  C   UNL     1       7.973   8.954  17.576  0.00  0.00    +0.000 C 
ATOM     13  O   UNL     1       7.577   7.715  16.995  0.00  0.00    +0.000 OA
ENDBRANCH   1  13
BRANCH   3  14
ATOM     14  O   UNL     1       8.556   5.163  20.972  0.00  0.00    +0.000 OA
ATOM     15  H   UNL     1       8.051   4.602  21.585  0.00  0.00    +0.000 HD
ENDBRANCH   3  14
BRANCH   9  16
ATOM     16  C   UNL     1       2.912   6.127  17.705  0.00  0.00    +0.000 C 
BRANCH  16  17
ATOM     17  C   UNL     1       2.320   5.202  18.743  0.00  0.00    +0.000 A 
ATOM     18  C   UNL     1       2.598   5.391  20.107  0.00  0.00    +0.000 A 
ATOM     19  C   UNL     1       2.095   4.510  21.066  0.00  0.00    +0.000 A 
ATOM     20  C   UNL     1       1.297   3.445  20.663  0.00  0.00    +0.000 A 
ATOM     21  C   UNL     1       0.984   3.261  19.322  0.00  0.00    +0.000 A 
ATOM     22  C   UNL     1       1.500   4.133  18.360  0.00  0.00    +0.000 A 
BRANCH  20  23
ATOM     23  O   UNL     1       0.802   2.548  21.563  0.00  0.00    +0.000 OA
ATOM     24  H   UNL     1       0.283   1.884  21.082  0.00  0.00    +0.000 HD
ENDBRANCH  20  23
ENDBRANCH  16  17
ENDBRANCH   9  16
TORSDOF 5
ENDMDL
MODEL 2
REMARK VINA RESULT:      -7.8      0.090      1.034
REMARK  Name = 
REMARK  6 active torsions:
REMARK  status: ('A' for Active; 'I' for Inactive)
REMARK    1  A    between atoms: C_1  and  O_2
REMARK    2  A    between atoms: O_2  and  C_3
REMARK    3  A    between atoms: C_5  and  O_6
REMARK    4  A    between atoms: C_12  and  C_13
REMARK    5  A    between atoms: C_13  and  C_14
REMARK    6  A    between atoms: C_17  and  O_18
REMARK                            x       y       z     vdW  Elec       q    Type
REMARK                         _______ _______ _______ _____ _____    ______ ____
ROOT
ATOM      1  C   UNL     1       7.272   6.696  17.859  0.00  0.00    +0.000 A 
ATOM      2  C   UNL     1       8.095   6.457  18.972  0.00  0.00    +0.000 A 
ATOM      3  C   UNL     1       7.809   5.405  19.837  0.00  0.00    +0.000 A 
ATOM      4  C   UNL     1       6.731   4.566  19.609  0.00  0.00    +0.000 A 
ATOM      5  C   UNL     1       5.908   4.794  18.507  0.00  0.00    +0.000 A 
ATOM      6  C   UNL     1       6.140   5.887  17.654  0.00  0.00    +0.000 A 
ATOM      7  C   UNL     1       5.116   6.153  16.595  0.00  0.00    +0.000 C 
ATOM      8  O   UNL     1       5.264   6.988  15.712  0.00  0.00    +0.000 OA
ATOM      9  C   UNL     1       3.837   5.346  16.697  0.00  0.00    +0.000 C 
ATOM     10  C   UNL     1       4.289   3.939  17.058  0.00  0.00    +0.000 C 
ATOM     11  O   UNL     1       4.871   3.906  18.362  0.00  0.00    +0.000 OA
ENDROOT
BRANCH   1  13
ATOM     12  C   UNL     1       7.930   8.960  17.583  0.00  0.00    +0.000 C 
ATOM     13  O   UNL     1       7.511   7.732  16.995  0.00  0.00    +0.000 OA
ENDBRANCH   1  13
BRANCH   3  14
ATOM     14  O   UNL     1       8.579   5.163  20.937  0.00  0.00    +0.000 OA
ATOM     15  H   UNL     1       9.414   5.653  20.858  0.00  0.00    +0.000 HD
ENDBRANCH   3  14
BRANCH   9  16
ATOM     16  C   UNL     1       2.893   6.015  17.713  0.00  0.00    +0.000 C 
BRANCH  16  17
ATOM     17  C   UNL     1       2.356   5.069  18.762  0.00  0.00    +0.000 A 
ATOM     18  C   UNL     1       1.511   4.008  18.399  0.00  0.00    +0.000 A 
ATOM     19  C   UNL     1       0.971   3.161  19.369  0.00  0.00    +0.000 A 
ATOM     20  C   UNL     1       1.291   3.365  20.707  0.00  0.00    +0.000 A 
ATOM     21  C   UNL     1       2.152   4.389  21.082  0.00  0.00    +0.000 A 
ATOM     22  C   UNL     1       2.680   5.245  20.114  0.00  0.00    +0.000 A 
BRANCH  20  23
ATOM     23  O   UNL     1       0.770   2.576  21.689  0.00  0.00    +0.000 OA
ATOM     24  H   UNL     1       1.408   1.873  21.890  0.00  0.00    +0.000 HD
ENDBRANCH  20  23
ENDBRANCH  16  17
ENDBRANCH   9  16
TORSDOF 5
ENDMDL
MODEL 3
REMARK VINA RESULT:      -7.7      2.657      6.082
REMARK  Name = 
REMARK  6 active torsions:
REMARK  status: ('A' for Active; 'I' for Inactive)
REMARK    1  A    between atoms: C_1  and  O_2
REMARK    2  A    between atoms: O_2  and  C_3
REMARK    3  A    between atoms: C_5  and  O_6
REMARK    4  A    between atoms: C_12  and  C_13
REMARK    5  A    between atoms: C_13  and  C_14
REMARK    6  A    between atoms: C_17  and  O_18
REMARK                            x       y       z     vdW  Elec       q    Type
REMARK                         _______ _______ _______ _____ _____    ______ ____
ROOT
ATOM      1  C   UNL     1       2.296   5.583  19.963  0.00  0.00    +0.000 A 
ATOM      2  C   UNL     1       1.613   4.723  20.839  0.00  0.00    +0.000 A 
ATOM      3  C   UNL     1       2.134   3.465  21.129  0.00  0.00    +0.000 A 
ATOM      4  C   UNL     1       3.337   3.049  20.582  0.00  0.00    +0.000 A 
ATOM      5  C   UNL     1       4.023   3.894  19.713  0.00  0.00    +0.000 A 
ATOM      6  C   UNL     1       3.486   5.144  19.356  0.00  0.00    +0.000 A 
ATOM      7  C   UNL     1       4.205   5.915  18.295  0.00  0.00    +0.000 C 
ATOM      8  O   UNL     1       3.918   7.065  17.988  0.00  0.00    +0.000 OA
ATOM      9  C   UNL     1       5.308   5.170  17.569  0.00  0.00    +0.000 C 
ATOM     10  C   UNL     1       6.044   4.402  18.657  0.00  0.00    +0.000 C 
ATOM     11  O   UNL     1       5.208   3.395  19.230  0.00  0.00    +0.000 OA
ENDROOT
BRANCH   1  13
ATOM     12  C   UNL     1       1.545   7.700  20.731  0.00  0.00    +0.000 C 
ATOM     13  O   UNL     1       1.806   6.821  19.640  0.00  0.00    +0.000 OA
ENDBRANCH   1  13
BRANCH   3  14
ATOM     14  O   UNL     1       1.481   2.602  21.959  0.00  0.00    +0.000 OA
ATOM     15  H   UNL     1       0.773   2.157  21.465  0.00  0.00    +0.000 HD
ENDBRANCH   3  14
BRANCH   9  16
ATOM     16  C   UNL     1       4.689   4.302  16.458  0.00  0.00    +0.000 C 
BRANCH  16  17
ATOM     17  C   UNL     1       5.484   4.297  15.173  0.00  0.00    +0.000 A 
ATOM     18  C   UNL     1       6.673   5.037  15.068  0.00  0.00    +0.000 A 
ATOM     19  C   UNL     1       7.386   5.076  13.868  0.00  0.00    +0.000 A 
ATOM     20  C   UNL     1       6.917   4.358  12.772  0.00  0.00    +0.000 A 
ATOM     21  C   UNL     1       5.761   3.594  12.867  0.00  0.00    +0.000 A 
ATOM     22  C   UNL     1       5.040   3.567  14.063  0.00  0.00    +0.000 A 
BRANCH  20  23
ATOM     23  O   UNL     1       7.569   4.385  11.575  0.00  0.00    +0.000 OA
ATOM     24  H   UNL     1       8.070   3.559  11.478  0.00  0.00    +0.000 HD
ENDBRANCH  20  23
ENDBRANCH  16  17
ENDBRANCH   9  16
TORSDOF 5
ENDMDL
MODEL 4
REMARK VINA RESULT:      -7.6      2.733      6.121
REMARK  Name = 
REMARK  6 active torsions:
REMARK  status: ('A' for Active; 'I' for Inactive)
REMARK    1  A    between atoms: C_1  and  O_2
REMARK    2  A    between atoms: O_2  and  C_3
REMARK    3  A    between atoms: C_5  and  O_6
REMARK    4  A    between atoms: C_12  and  C_13
REMARK    5  A    between atoms: C_13  and  C_14
REMARK    6  A    between atoms: C_17  and  O_18
REMARK                            x       y       z     vdW  Elec       q    Type
REMARK                         _______ _______ _______ _____ _____    ______ ____
ROOT
ATOM      1  C   UNL     1       2.476   5.842  19.849  0.00  0.00    +0.000 A 
ATOM      2  C   UNL     1       1.787   5.027  20.762  0.00  0.00    +0.000 A 
ATOM      3  C   UNL     1       2.275   3.761  21.075  0.00  0.00    +0.000 A 
ATOM      4  C   UNL     1       3.451   3.293  20.514  0.00  0.00    +0.000 A 
ATOM      5  C   UNL     1       4.144   4.093  19.608  0.00  0.00    +0.000 A 
ATOM      6  C   UNL     1       3.639   5.349  19.229  0.00  0.00    +0.000 A 
ATOM      7  C   UNL     1       4.357   6.069  18.132  0.00  0.00    +0.000 C 
ATOM      8  O   UNL     1       4.099   7.219  17.801  0.00  0.00    +0.000 OA
ATOM      9  C   UNL     1       5.420   5.271  17.404  0.00  0.00    +0.000 C 
ATOM     10  C   UNL     1       6.156   4.509  18.496  0.00  0.00    +0.000 C 
ATOM     11  O   UNL     1       5.302   3.544  19.113  0.00  0.00    +0.000 OA
ENDROOT
BRANCH   1  13
ATOM     12  C   UNL     1       1.587   7.919  20.576  0.00  0.00    +0.000 C 
ATOM     13  O   UNL     1       2.018   7.085  19.504  0.00  0.00    +0.000 OA
ENDBRANCH   1  13
BRANCH   3  14
ATOM     14  O   UNL     1       1.614   2.941  21.941  0.00  0.00    +0.000 OA
ATOM     15  H   UNL     1       1.590   3.355  22.820  0.00  0.00    +0.000 HD
ENDBRANCH   3  14
BRANCH   9  16
ATOM     16  C   UNL     1       4.750   4.394  16.329  0.00  0.00    +0.000 C 
BRANCH  16  17
ATOM     17  C   UNL     1       5.492   4.367  15.013  0.00  0.00    +0.000 A 
ATOM     18  C   UNL     1       4.958   3.683  13.909  0.00  0.00    +0.000 A 
ATOM     19  C   UNL     1       5.662   3.612  12.705  0.00  0.00    +0.000 A 
ATOM     20  C   UNL     1       6.897   4.240  12.599  0.00  0.00    +0.000 A 
ATOM     21  C   UNL     1       7.427   4.949  13.670  0.00  0.00    +0.000 A 
ATOM     22  C   UNL     1       6.730   5.008  14.879  0.00  0.00    +0.000 A 
BRANCH  20  23
ATOM     23  O   UNL     1       7.629   4.179  11.450  0.00  0.00    +0.000 OA
ATOM     24  H   UNL     1       8.506   4.555  11.623  0.00  0.00    +0.000 HD
ENDBRANCH  20  23
ENDBRANCH  16  17
ENDBRANCH   9  16
TORSDOF 5
ENDMDL
MODEL 5
REMARK VINA RESULT:      -7.4      3.754      5.782
REMARK  Name = 
REMARK  6 active torsions:
REMARK  status: ('A' for Active; 'I' for Inactive)
REMARK    1  A    between atoms: C_1  and  O_2
REMARK    2  A    between atoms: O_2  and  C_3
REMARK    3  A    between atoms: C_5  and  O_6
REMARK    4  A    between atoms: C_12  and  C_13
REMARK    5  A    between atoms: C_13  and  C_14
REMARK    6  A    between atoms: C_17  and  O_18
REMARK                            x       y       z     vdW  Elec       q    Type
REMARK                         _______ _______ _______ _____ _____    ______ ____
ROOT
ATOM      1  C   UNL     1       0.502   9.773  19.566  0.00  0.00    +0.000 A 
ATOM      2  C   UNL     1      -0.237   9.903  20.753  0.00  0.00    +0.000 A 
ATOM      3  C   UNL     1      -0.064   8.987  21.787  0.00  0.00    +0.000 A 
ATOM      4  C   UNL     1       0.848   7.950  21.675  0.00  0.00    +0.000 A 
ATOM      5  C   UNL     1       1.587   7.811  20.502  0.00  0.00    +0.000 A 
ATOM      6  C   UNL     1       1.386   8.687  19.421  0.00  0.00    +0.000 A 
ATOM      7  C   UNL     1       2.100   8.369  18.145  0.00  0.00    +0.000 C 
ATOM      8  O   UNL     1       2.112   9.118  17.177  0.00  0.00    +0.000 OA
ATOM      9  C   UNL     1       2.790   7.020  18.094  0.00  0.00    +0.000 C 
ATOM     10  C   UNL     1       3.449   6.865  19.456  0.00  0.00    +0.000 C 
ATOM     11  O   UNL     1       2.469   6.759  20.491  0.00  0.00    +0.000 OA
ENDROOT
BRANCH   1  13
ATOM     12  C   UNL     1      -0.925  11.274  18.409  0.00  0.00    +0.000 C 
ATOM     13  O   UNL     1       0.347  10.644  18.520  0.00  0.00    +0.000 OA
ENDBRANCH   1  13
BRANCH   3  14
ATOM     14  O   UNL     1      -0.784   9.077  22.942  0.00  0.00    +0.000 OA
ATOM     15  H   UNL     1      -1.623   9.533  22.761  0.00  0.00    +0.000 HD
ENDBRANCH   3  14
BRANCH   9  16
ATOM     16  C   UNL     1       1.759   5.935  17.735  0.00  0.00    +0.000 C 
BRANCH  16  17
ATOM     17  C   UNL     1       2.286   4.524  17.864  0.00  0.00    +0.000 A 
ATOM     18  C   UNL     1       1.551   3.550  18.560  0.00  0.00    +0.000 A 
ATOM     19  C   UNL     1       2.056   2.259  18.725  0.00  0.00    +0.000 A 
ATOM     20  C   UNL     1       3.292   1.934  18.178  0.00  0.00    +0.000 A 
ATOM     21  C   UNL     1       4.019   2.875  17.458  0.00  0.00    +0.000 A 
ATOM     22  C   UNL     1       3.521   4.171  17.306  0.00  0.00    +0.000 A 
BRANCH  20  23
ATOM     23  O   UNL     1       3.833   0.692  18.333  0.00  0.00    +0.000 OA
ATOM     24  H   UNL     1       4.653   0.775  18.845  0.00  0.00    +0.000 HD
ENDBRANCH  20  23
ENDBRANCH  16  17
ENDBRANCH   9  16
TORSDOF 5
ENDMDL
MODEL 6
REMARK VINA RESULT:      -7.2      3.784      5.823
REMARK  Name = 
REMARK  6 active torsions:
REMARK  status: ('A' for Active; 'I' for Inactive)
REMARK    1  A    between atoms: C_1  and  O_2
REMARK    2  A    between atoms: O_2  and  C_3
REMARK    3  A    between atoms: C_5  and  O_6
REMARK    4  A    between atoms: C_12  and  C_13
REMARK    5  A    between atoms: C_13  and  C_14
REMARK    6  A    between atoms: C_17  and  O_18
REMARK                            x       y       z     vdW  Elec       q    Type
REMARK                         _______ _______ _______ _____ _____    ______ ____
ROOT
ATOM      1  C   UNL     1       0.402   9.811  19.579  0.00  0.00    +0.000 A 
ATOM      2  C   UNL     1      -0.316   9.927  20.780  0.00  0.00    +0.000 A 
ATOM      3  C   UNL     1      -0.091   9.028  21.819  0.00  0.00    +0.000 A 
ATOM      4  C   UNL     1       0.853   8.021  21.698  0.00  0.00    +0.000 A 
ATOM      5  C   UNL     1       1.572   7.896  20.511  0.00  0.00    +0.000 A 
ATOM      6  C   UNL     1       1.318   8.754  19.426  0.00  0.00    +0.000 A 
ATOM      7  C   UNL     1       2.016   8.448  18.139  0.00  0.00    +0.000 C 
ATOM      8  O   UNL     1       1.983   9.187  17.164  0.00  0.00    +0.000 OA
ATOM      9  C   UNL     1       2.751   7.122  18.085  0.00  0.00    +0.000 C 
ATOM     10  C   UNL     1       3.442   7.003  19.435  0.00  0.00    +0.000 C 
ATOM     11  O   UNL     1       2.489   6.874  20.491  0.00  0.00    +0.000 OA
ENDROOT
BRANCH   1  13
ATOM     12  C   UNL     1      -1.155  10.831  18.107  0.00  0.00    +0.000 C 
ATOM     13  O   UNL     1       0.196  10.666  18.530  0.00  0.00    +0.000 OA
ENDBRANCH   1  13
BRANCH   3  14
ATOM     14  O   UNL     1      -0.790   9.105  22.988  0.00  0.00    +0.000 OA
ATOM     15  H   UNL     1      -1.043   8.210  23.270  0.00  0.00    +0.000 HD
ENDBRANCH   3  14
BRANCH   9  16
ATOM     16  C   UNL     1       1.750   5.999  17.758  0.00  0.00    +0.000 C 
BRANCH  16  17
ATOM     17  C   UNL     1       2.314   4.608  17.929  0.00  0.00    +0.000 A 
ATOM     18  C   UNL     1       3.566   4.276  17.385  0.00  0.00    +0.000 A 
ATOM     19  C   UNL     1       4.071   2.979  17.496  0.00  0.00    +0.000 A 
ATOM     20  C   UNL     1       3.330   2.014  18.168  0.00  0.00    +0.000 A 
ATOM     21  C   UNL     1       2.105   2.332  18.742  0.00  0.00    +0.000 A 
ATOM     22  C   UNL     1       1.592   3.625  18.617  0.00  0.00    +0.000 A 
BRANCH  20  23
ATOM     23  O   UNL     1       3.774   0.730  18.282  0.00  0.00    +0.000 OA
ATOM     24  H   UNL     1       4.697   0.695  17.984  0.00  0.00    +0.000 HD
ENDBRANCH  20  23
ENDBRANCH  16  17
ENDBRANCH   9  16
TORSDOF 5
ENDMDL
MODEL 7
REMARK VINA RESULT:      -7.1      1.809      3.369
REMARK  Name = 
REMARK  6 active torsions:
REMARK  status: ('A' for Active; 'I' for Inactive)
REMARK    1  A    between atoms: C_1  and  O_2
REMARK    2  A    between atoms: O_2  and  C_3
REMARK    3  A    between atoms: C_5  and  O_6
REMARK    4  A    between atoms: C_12  and  C_13
REMARK    5  A    between atoms: C_13  and  C_14
REMARK    6  A    between atoms: C_17  and  O_18
REMARK                            x       y       z     vdW  Elec       q    Type
REMARK                         _______ _______ _______ _____ _____    ______ ____
ROOT
ATOM      1  C   UNL     1       6.721   4.830  17.296  0.00  0.00    +0.000 A 
ATOM      2  C   UNL     1       7.260   4.518  16.037  0.00  0.00    +0.000 A 
ATOM      3  C   UNL     1       6.679   5.033  14.882  0.00  0.00    +0.000 A 
ATOM      4  C   UNL     1       5.581   5.874  14.950  0.00  0.00    +0.000 A 
ATOM      5  C   UNL     1       5.038   6.191  16.193  0.00  0.00    +0.000 A 
ATOM      6  C   UNL     1       5.568   5.634  17.370  0.00  0.00    +0.000 A 
ATOM      7  C   UNL     1       4.826   5.897  18.642  0.00  0.00    +0.000 C 
ATOM      8  O   UNL     1       5.251   5.580  19.746  0.00  0.00    +0.000 OA
ATOM      9  C   UNL     1       3.468   6.553  18.491  0.00  0.00    +0.000 C 
ATOM     10  C   UNL     1       3.666   7.623  17.428  0.00  0.00    +0.000 C 
ATOM     11  O   UNL     1       3.957   7.037  16.157  0.00  0.00    +0.000 OA
ENDROOT
BRANCH   1  13
ATOM     12  C   UNL     1       8.247   5.129  19.088  0.00  0.00    +0.000 C 
ATOM     13  O   UNL     1       7.254   4.329  18.453  0.00  0.00    +0.000 OA
ENDBRANCH   1  13
BRANCH   3  14
ATOM     14  O   UNL     1       7.170   4.728  13.645  0.00  0.00    +0.000 OA
ATOM     15  H   UNL     1       7.940   5.290  13.459  0.00  0.00    +0.000 HD
ENDBRANCH   3  14
BRANCH   9  16
ATOM     16  C   UNL     1       2.419   5.478  18.153  0.00  0.00    +0.000 C 
BRANCH  16  17
ATOM     17  C   UNL     1       2.140   4.518  19.285  0.00  0.00    +0.000 A 
ATOM     18  C   UNL     1       1.775   3.188  19.019  0.00  0.00    +0.000 A 
ATOM     19  C   UNL     1       1.469   2.309  20.060  0.00  0.00    +0.000 A 
ATOM     20  C   UNL     1       1.543   2.757  21.374  0.00  0.00    +0.000 A 
ATOM     21  C   UNL     1       1.934   4.059  21.659  0.00  0.00    +0.000 A 
ATOM     22  C   UNL     1       2.227   4.942  20.618  0.00  0.00    +0.000 A 
BRANCH  20  23
ATOM     23  O   UNL     1       1.231   1.940  22.421  0.00  0.00    +0.000 OA
ATOM     24  H   UNL     1       0.841   1.124  22.069  0.00  0.00    +0.000 HD
ENDBRANCH  20  23
ENDBRANCH  16  17
ENDBRANCH   9  16
TORSDOF 5
ENDMDL
MODEL 8
REMARK VINA RESULT:      -7.1      5.457      7.057
REMARK  Name = 
REMARK  6 active torsions:
REMARK  status: ('A' for Active; 'I' for Inactive)
REMARK    1  A    between atoms: C_1  and  O_2
REMARK    2  A    between atoms: O_2  and  C_3
REMARK    3  A    between atoms: C_5  and  O_6
REMARK    4  A    between atoms: C_12  and  C_13
REMARK    5  A    between atoms: C_13  and  C_14
REMARK    6  A    between atoms: C_17  and  O_18
REMARK                            x       y       z     vdW  Elec       q    Type
REMARK                         _______ _______ _______ _____ _____    ______ ____
ROOT
ATOM      1  C   UNL     1       2.480   6.489  19.583  0.00  0.00    +0.000 A 
ATOM      2  C   UNL     1       3.303   5.637  18.829  0.00  0.00    +0.000 A 
ATOM      3  C   UNL     1       3.839   6.073  17.620  0.00  0.00    +0.000 A 
ATOM      4  C   UNL     1       3.592   7.353  17.152  0.00  0.00    +0.000 A 
ATOM      5  C   UNL     1       2.777   8.208  17.892  0.00  0.00    +0.000 A 
ATOM      6  C   UNL     1       2.175   7.769  19.084  0.00  0.00    +0.000 A 
ATOM      7  C   UNL     1       1.189   8.691  19.728  0.00  0.00    +0.000 C 
ATOM      8  O   UNL     1       0.695   8.485  20.830  0.00  0.00    +0.000 OA
ATOM      9  C   UNL     1       0.787   9.903  18.911  0.00  0.00    +0.000 C 
ATOM     10  C   UNL     1       2.082  10.402  18.288  0.00  0.00    +0.000 C 
ATOM     11  O   UNL     1       2.598   9.457  17.350  0.00  0.00    +0.000 OA
ENDROOT
BRANCH   1  13
ATOM     12  C   UNL     1       1.550   4.717  20.858  0.00  0.00    +0.000 C 
ATOM     13  O   UNL     1       1.921   6.089  20.768  0.00  0.00    +0.000 OA
ENDBRANCH   1  13
BRANCH   3  14
ATOM     14  O   UNL     1       4.624   5.259  16.857  0.00  0.00    +0.000 OA
ATOM     15  H   UNL     1       5.548   5.549  16.926  0.00  0.00    +0.000 HD
ENDBRANCH   3  14
BRANCH   9  16
ATOM     16  C   UNL     1      -0.311   9.501  17.910  0.00  0.00    +0.000 C 
BRANCH  16  17
ATOM     17  C   UNL     1      -1.601  10.269  18.075  0.00  0.00    +0.000 A 
ATOM     18  C   UNL     1      -2.728   9.942  17.304  0.00  0.00    +0.000 A 
ATOM     19  C   UNL     1      -3.909  10.681  17.416  0.00  0.00    +0.000 A 
ATOM     20  C   UNL     1      -3.967  11.740  18.315  0.00  0.00    +0.000 A 
ATOM     21  C   UNL     1      -2.873  12.057  19.110  0.00  0.00    +0.000 A 
ATOM     22  C   UNL     1      -1.688  11.328  18.987  0.00  0.00    +0.000 A 
BRANCH  20  23
ATOM     23  O   UNL     1      -5.091  12.501  18.442  0.00  0.00    +0.000 OA
ATOM     24  H   UNL     1      -5.841  12.008  18.072  0.00  0.00    +0.000 HD
ENDBRANCH  20  23
ENDBRANCH  16  17
ENDBRANCH   9  16
TORSDOF 5
ENDMDL
MODEL 9
REMARK VINA RESULT:      -7.1      1.813      3.215
REMARK  Name = 
REMARK  6 active torsions:
REMARK  status: ('A' for Active; 'I' for Inactive)
REMARK    1  A    between atoms: C_1  and  O_2
REMARK    2  A    between atoms: O_2  and  C_3
REMARK    3  A    between atoms: C_5  and  O_6
REMARK    4  A    between atoms: C_12  and  C_13
REMARK    5  A    between atoms: C_13  and  C_14
REMARK    6  A    between atoms: C_17  and  O_18
REMARK                            x       y       z     vdW  Elec       q    Type
REMARK                         _______ _______ _______ _____ _____    ______ ____
ROOT
ATOM      1  C   UNL     1       6.683   4.826  17.323  0.00  0.00    +0.000 A 
ATOM      2  C   UNL     1       7.240   4.501  16.075  0.00  0.00    +0.000 A 
ATOM      3  C   UNL     1       6.685   5.016  14.907  0.00  0.00    +0.000 A 
ATOM      4  C   UNL     1       5.595   5.869  14.952  0.00  0.00    +0.000 A 
ATOM      5  C   UNL     1       5.034   6.200  16.185  0.00  0.00    +0.000 A 
ATOM      6  C   UNL     1       5.539   5.643  17.373  0.00  0.00    +0.000 A 
ATOM      7  C   UNL     1       4.779   5.922  18.631  0.00  0.00    +0.000 C 
ATOM      8  O   UNL     1       5.181   5.607  19.744  0.00  0.00    +0.000 OA
ATOM      9  C   UNL     1       3.430   6.592  18.453  0.00  0.00    +0.000 C 
ATOM     10  C   UNL     1       3.658   7.653  17.388  0.00  0.00    +0.000 C 
ATOM     11  O   UNL     1       3.963   7.057  16.126  0.00  0.00    +0.000 OA
ENDROOT
BRANCH   1  13
ATOM     12  C   UNL     1       8.221   5.093  19.111  0.00  0.00    +0.000 C 
ATOM     13  O   UNL     1       7.191   4.326  18.492  0.00  0.00    +0.000 OA
ENDBRANCH   1  13
BRANCH   3  14
ATOM     14  O   UNL     1       7.193   4.698  13.681  0.00  0.00    +0.000 OA
ATOM     15  H   UNL     1       7.722   3.887  13.754  0.00  0.00    +0.000 HD
ENDBRANCH   3  14
BRANCH   9  16
ATOM     16  C   UNL     1       2.375   5.526  18.104  0.00  0.00    +0.000 C 
BRANCH  16  17
ATOM     17  C   UNL     1       2.072   4.571  19.235  0.00  0.00    +0.000 A 
ATOM     18  C   UNL     1       2.064   5.023  20.565  0.00  0.00    +0.000 A 
ATOM     19  C   UNL     1       1.833   4.136  21.618  0.00  0.00    +0.000 A 
ATOM     20  C   UNL     1       1.595   2.795  21.341  0.00  0.00    +0.000 A 
ATOM     21  C   UNL     1       1.566   2.335  20.029  0.00  0.00    +0.000 A 
ATOM     22  C   UNL     1       1.811   3.220  18.977  0.00  0.00    +0.000 A 
BRANCH  20  23
ATOM     23  O   UNL     1       1.387   1.889  22.339  0.00  0.00    +0.000 OA
ATOM     24  H   UNL     1       1.832   1.061  22.101  0.00  0.00    +0.000 HD
ENDBRANCH  20  23
ENDBRANCH  16  17
ENDBRANCH   9  16
TORSDOF 5
ENDMDL
