MODEL 1
REMARK VINA RESULT:      -7.5      0.000      0.000
REMARK  Name = 
REMARK  8 active torsions:
REMARK  status: ('A' for Active; 'I' for Inactive)
REMARK    1  A    between atoms: C_1  and  C_2
REMARK    2  A    between atoms: C_5  and  C_6
REMARK    3  A    between atoms: N_8  and  C_9
REMARK    4  A    between atoms: C_9  and  N_10
REMARK    5  A    between atoms: C_9  and  C_22
REMARK    6  A    between atoms: N_12  and  C_13
REMARK    7  A    between atoms: N_15  and  C_16
REMARK    8  A    between atoms: C_22  and  C_23
REMARK                            x       y       z     vdW  Elec       q    Type
REMARK                         _______ _______ _______ _____ _____    ______ ____
ROOT
ATOM      1  C   UNL     1       3.093   4.566  19.599  0.00  0.00    +0.000 C 
ENDROOT
BRANCH   1   2
ATOM      2  N   UNL     1       4.419   4.714  19.022  0.00  0.00    +0.000 NA
ATOM      3  C   UNL     1       4.915   4.002  18.079  0.00  0.00    +0.000 C 
ATOM      4  N   UNL     1       4.390   2.977  17.324  0.00  0.00    +0.000 N 
ATOM      5  N   UNL     1       6.233   4.182  17.693  0.00  0.00    +0.000 N 
ATOM      6  H   UNL     1       4.975   2.798  16.515  0.00  0.00    +0.000 HD
ATOM      7  H   UNL     1       6.817   3.381  17.912  0.00  0.00    +0.000 HD
BRANCH   5   8
ATOM      8  C   UNL     1       6.945   5.396  17.854  0.00  0.00    +0.000 A 
ATOM      9  C   UNL     1       7.734   5.664  18.977  0.00  0.00    +0.000 A 
ATOM     10  C   UNL     1       8.343   6.907  19.133  0.00  0.00    +0.000 A 
ATOM     11  C   UNL     1       8.127   7.869  18.164  0.00  0.00    +0.000 A 
ATOM     12  N   UNL     1       7.356   7.674  17.075  0.00  0.00    +0.000 NA
ATOM     13  C   UNL     1       6.789   6.450  16.950  0.00  0.00    +0.000 A 
ENDBRANCH   5   8
BRANCH   4  14
ATOM     14  C   UNL     1       2.998   3.058  16.927  0.00  0.00    +0.000 C 
ATOM     15  N   UNL     1       1.879   3.119  16.632  0.00  0.00    +0.000 NA
ENDBRANCH   4  14
ENDBRANCH   1   2
BRANCH   1  18
ATOM     16  C   UNL     1       2.250   6.908  19.297  0.00  0.00    +0.000 C 
ATOM     17  O   UNL     1       2.278   6.900  18.075  0.00  0.00    +0.000 OA
ATOM     18  N   UNL     1       2.679   5.879  20.094  0.00  0.00    +0.000 N 
ATOM     19  H   UNL     1       2.411   5.912  21.068  0.00  0.00    +0.000 HD
BRANCH  16  24
ATOM     20  C   UNL     1      -0.426  11.276  21.915  0.00  0.00    +0.000 C 
ATOM     21  C   UNL     1       0.405  10.223  21.248  0.00  0.00    +0.000 A 
ATOM     22  C   UNL     1       0.857   9.120  21.976  0.00  0.00    +0.000 A 
ATOM     23  C   UNL     1       1.531   8.087  21.330  0.00  0.00    +0.000 A 
ATOM     24  C   UNL     1       1.762   8.145  19.948  0.00  0.00    +0.000 A 
ATOM     25  C   UNL     1       1.366   9.269  19.220  0.00  0.00    +0.000 A 
ATOM     26  C   UNL     1       0.689  10.304  19.876  0.00  0.00    +0.000 A 
ENDBRANCH  16  24
ENDBRANCH   1  18
BRANCH   1  27
ATOM     27  C   UNL     1       2.983   3.298  20.545  0.00  0.00    +0.000 C 
ATOM     28  C   UNL     1       2.418   3.684  21.915  0.00  0.00    +0.000 C 
ATOM     29 CL   UNL     1       1.777   2.136  19.788  0.00  0.00    +0.000 Cl
ATOM     30 CL   UNL     1       4.471   2.298  20.719  0.00  0.00    +0.000 Cl
ENDBRANCH   1  27
TORSDOF 6
ENDMDL
MODEL 2
REMARK VINA RESULT:      -7.5      2.394      4.922
REMARK  Name = 
REMARK  8 active torsions:
REMARK  status: ('A' for Active; 'I' for Inactive)
REMARK    1  A    between atoms: C_1  and  C_2
REMARK    2  A    between atoms: C_5  and  C_6
REMARK    3  A    between atoms: N_8  and  C_9
REMARK    4  A    between atoms: C_9  and  N_10
REMARK    5  A    between atoms: C_9  and  C_22
REMARK    6  A    between atoms: N_12  and  C_13
REMARK    7  A    between atoms: N_15  and  C_16
REMARK    8  A    between atoms: C_22  and  C_23
REMARK                            x       y       z     vdW  Elec       q    Type
REMARK                         _______ _______ _______ _____ _____    ______ ____
ROOT
ATOM      1  C   UNL     1       5.066   6.126  17.258  0.00  0.00    +0.000 C 
ENDROOT
BRANCH   1   2
ATOM      2  N   UNL     1       4.700   4.930  17.999  0.00  0.00    +0.000 NA
ATOM      3  C   UNL     1       5.511   4.116  18.566  0.00  0.00    +0.000 C 
ATOM      4  N   UNL     1       6.883   4.123  18.698  0.00  0.00    +0.000 N 
ATOM      5  N   UNL     1       5.034   2.955  19.151  0.00  0.00    +0.000 N 
ATOM      6  H   UNL     1       7.173   3.453  19.401  0.00  0.00    +0.000 HD
ATOM      7  H   UNL     1       5.340   2.118  18.665  0.00  0.00    +0.000 HD
BRANCH   5   8
ATOM      8  C   UNL     1       3.718   2.806  19.652  0.00  0.00    +0.000 A 
ATOM      9  C   UNL     1       2.669   2.301  18.877  0.00  0.00    +0.000 A 
ATOM     10  C   UNL     1       1.372   2.257  19.385  0.00  0.00    +0.000 A 
ATOM     11  C   UNL     1       1.150   2.745  20.660  0.00  0.00    +0.000 A 
ATOM     12  N   UNL     1       2.119   3.266  21.440  0.00  0.00    +0.000 NA
ATOM     13  C   UNL     1       3.369   3.283  20.918  0.00  0.00    +0.000 A 
ENDBRANCH   5   8
BRANCH   4  14
ATOM     14  C   UNL     1       7.546   5.393  18.912  0.00  0.00    +0.000 C 
ATOM     15  N   UNL     1       8.063   6.419  19.067  0.00  0.00    +0.000 NA
ENDBRANCH   4  14
ENDBRANCH   1   2
BRANCH   1  18
ATOM     16  C   UNL     1       2.879   6.971  18.148  0.00  0.00    +0.000 C 
ATOM     17  O   UNL     1       2.334   5.879  18.211  0.00  0.00    +0.000 OA
ATOM     18  N   UNL     1       4.137   7.186  17.649  0.00  0.00    +0.000 N 
ATOM     19  H   UNL     1       4.559   8.085  17.843  0.00  0.00    +0.000 HD
BRANCH  16  24
ATOM     20  C   UNL     1      -0.857  10.933  20.002  0.00  0.00    +0.000 C 
ATOM     21  C   UNL     1       0.228  10.013  19.531  0.00  0.00    +0.000 A 
ATOM     22  C   UNL     1       0.827   9.121  20.423  0.00  0.00    +0.000 A 
ATOM     23  C   UNL     1       1.754   8.191  19.960  0.00  0.00    +0.000 A 
ATOM     24  C   UNL     1       2.092   8.140  18.600  0.00  0.00    +0.000 A 
ATOM     25  C   UNL     1       1.543   9.066  17.710  0.00  0.00    +0.000 A 
ATOM     26  C   UNL     1       0.613   9.999  18.181  0.00  0.00    +0.000 A 
ENDBRANCH  16  24
ENDBRANCH   1  18
BRANCH   1  27
ATOM     27  C   UNL     1       5.323   5.831  15.722  0.00  0.00    +0.000 C 
ATOM     28  C   UNL     1       4.890   7.018  14.857  0.00  0.00    +0.000 C 
ATOM     29 CL   UNL     1       7.135   5.640  15.482  0.00  0.00    +0.000 Cl
ATOM     30 CL   UNL     1       4.653   4.287  15.080  0.00  0.00    +0.000 Cl
ENDBRANCH   1  27
TORSDOF 6
ENDMDL
MODEL 3
REMARK VINA RESULT:      -7.3      2.616      4.941
REMARK  Name = 
REMARK  8 active torsions:
REMARK  status: ('A' for Active; 'I' for Inactive)
REMARK    1  A    between atoms: C_1  and  C_2
REMARK    2  A    between atoms: C_5  and  C_6
REMARK    3  A    between atoms: N_8  and  C_9
REMARK    4  A    between atoms: C_9  and  N_10
REMARK    5  A    between atoms: C_9  and  C_22
REMARK    6  A    between atoms: N_12  and  C_13
REMARK    7  A    between atoms: N_15  and  C_16
REMARK    8  A    between atoms: C_22  and  C_23
REMARK                            x       y       z     vdW  Elec       q    Type
REMARK                         _______ _______ _______ _____ _____    ______ ____
ROOT
ATOM      1  C   UNL     1       4.894   6.043  17.364  0.00  0.00    +0.000 C 
ENDROOT
BRANCH   1   2
ATOM      2  N   UNL     1       4.537   4.857  18.126  0.00  0.00    +0.000 NA
ATOM      3  C   UNL     1       5.356   4.039  18.677  0.00  0.00    +0.000 C 
ATOM      4  N   UNL     1       6.730   4.032  18.768  0.00  0.00    +0.000 N 
ATOM      5  N   UNL     1       4.883   2.889  19.286  0.00  0.00    +0.000 N 
ATOM      6  H   UNL     1       7.034   3.365  19.468  0.00  0.00    +0.000 HD
ATOM      7  H   UNL     1       5.165   2.045  18.799  0.00  0.00    +0.000 HD
BRANCH   5   8
ATOM      8  C   UNL     1       3.581   2.758  19.827  0.00  0.00    +0.000 A 
ATOM      9  C   UNL     1       2.441   2.634  19.026  0.00  0.00    +0.000 A 
ATOM     10  C   UNL     1       1.173   2.599  19.601  0.00  0.00    +0.000 A 
ATOM     11  C   UNL     1       1.073   2.714  20.976  0.00  0.00    +0.000 A 
ATOM     12  N   UNL     1       2.135   2.863  21.793  0.00  0.00    +0.000 NA
ATOM     13  C   UNL     1       3.354   2.881  21.200  0.00  0.00    +0.000 A 
ENDBRANCH   5   8
BRANCH   4  14
ATOM     14  C   UNL     1       7.414   5.297  18.951  0.00  0.00    +0.000 C 
ATOM     15  N   UNL     1       7.975   6.298  19.113  0.00  0.00    +0.000 NA
ENDBRANCH   4  14
ENDBRANCH   1   2
BRANCH   1  18
ATOM     16  C   UNL     1       3.054   7.092  18.705  0.00  0.00    +0.000 C 
ATOM     17  O   UNL     1       3.030   6.241  19.582  0.00  0.00    +0.000 OA
ATOM     18  N   UNL     1       3.851   7.042  17.592  0.00  0.00    +0.000 N 
ATOM     19  H   UNL     1       3.939   7.895  17.054  0.00  0.00    +0.000 HD
BRANCH  16  24
ATOM     20  C   UNL     1      -1.237  10.868  19.356  0.00  0.00    +0.000 C 
ATOM     21  C   UNL     1      -0.020  10.009  19.195  0.00  0.00    +0.000 A 
ATOM     22  C   UNL     1       0.513   9.334  20.295  0.00  0.00    +0.000 A 
ATOM     23  C   UNL     1       1.573   8.448  20.122  0.00  0.00    +0.000 A 
ATOM     24  C   UNL     1       2.113   8.226  18.847  0.00  0.00    +0.000 A 
ATOM     25  C   UNL     1       1.626   8.939  17.749  0.00  0.00    +0.000 A 
ATOM     26  C   UNL     1       0.561   9.829  17.930  0.00  0.00    +0.000 A 
ENDBRANCH  16  24
ENDBRANCH   1  18
BRANCH   1  27
ATOM     27  C   UNL     1       5.344   5.698  15.884  0.00  0.00    +0.000 C 
ATOM     28  C   UNL     1       4.625   4.446  15.371  0.00  0.00    +0.000 C 
ATOM     29 CL   UNL     1       4.819   7.086  14.799  0.00  0.00    +0.000 Cl
ATOM     30 CL   UNL     1       7.118   5.588  15.591  0.00  0.00    +0.000 Cl
ENDBRANCH   1  27
TORSDOF 6
ENDMDL
MODEL 4
REMARK VINA RESULT:      -7.3      2.372      5.003
REMARK  Name = 
REMARK  8 active torsions:
REMARK  status: ('A' for Active; 'I' for Inactive)
REMARK    1  A    between atoms: C_1  and  C_2
REMARK    2  A    between atoms: C_5  and  C_6
REMARK    3  A    between atoms: N_8  and  C_9
REMARK    4  A    between atoms: C_9  and  N_10
REMARK    5  A    between atoms: C_9  and  C_22
REMARK    6  A    between atoms: N_12  and  C_13
REMARK    7  A    between atoms: N_15  and  C_16
REMARK    8  A    between atoms: C_22  and  C_23
REMARK                            x       y       z     vdW  Elec       q    Type
REMARK                         _______ _______ _______ _____ _____    ______ ____
ROOT
ATOM      1  C   UNL     1       5.019   6.156  17.427  0.00  0.00    +0.000 C 
ENDROOT
BRANCH   1   2
ATOM      2  N   UNL     1       4.646   4.949  18.148  0.00  0.00    +0.000 NA
ATOM      3  C   UNL     1       5.454   4.102  18.668  0.00  0.00    +0.000 C 
ATOM      4  N   UNL     1       6.829   4.072  18.756  0.00  0.00    +0.000 N 
ATOM      5  N   UNL     1       4.966   2.938  19.238  0.00  0.00    +0.000 N 
ATOM      6  H   UNL     1       7.124   3.377  19.432  0.00  0.00    +0.000 HD
ATOM      7  H   UNL     1       5.236   2.107  18.721  0.00  0.00    +0.000 HD
BRANCH   5   8
ATOM      8  C   UNL     1       3.663   2.807  19.776  0.00  0.00    +0.000 A 
ATOM      9  C   UNL     1       2.544   2.537  18.983  0.00  0.00    +0.000 A 
ATOM     10  C   UNL     1       1.269   2.507  19.546  0.00  0.00    +0.000 A 
ATOM     11  C   UNL     1       1.142   2.773  20.897  0.00  0.00    +0.000 A 
ATOM     12  N   UNL     1       2.183   3.064  21.703  0.00  0.00    +0.000 NA
ATOM     13  C   UNL     1       3.409   3.074  21.124  0.00  0.00    +0.000 A 
ENDBRANCH   5   8
BRANCH   4  14
ATOM     14  C   UNL     1       7.530   5.320  18.982  0.00  0.00    +0.000 C 
ATOM     15  N   UNL     1       8.108   6.306  19.173  0.00  0.00    +0.000 NA
ENDBRANCH   4  14
ENDBRANCH   1   2
BRANCH   1  18
ATOM     16  C   UNL     1       2.783   6.991  18.196  0.00  0.00    +0.000 C 
ATOM     17  O   UNL     1       2.213   5.911  18.135  0.00  0.00    +0.000 OA
ATOM     18  N   UNL     1       4.082   7.209  17.818  0.00  0.00    +0.000 N 
ATOM     19  H   UNL     1       4.504   8.080  18.111  0.00  0.00    +0.000 HD
BRANCH  16  24
ATOM     20  C   UNL     1       0.469  11.889  20.131  0.00  0.00    +0.000 C 
ATOM     21  C   UNL     1       0.924  10.566  19.595  0.00  0.00    +0.000 A 
ATOM     22  C   UNL     1       1.395  10.466  18.284  0.00  0.00    +0.000 A 
ATOM     23  C   UNL     1       1.922   9.262  17.824  0.00  0.00    +0.000 A 
ATOM     24  C   UNL     1       1.985   8.144  18.668  0.00  0.00    +0.000 A 
ATOM     25  C   UNL     1       1.463   8.217  19.961  0.00  0.00    +0.000 A 
ATOM     26  C   UNL     1       0.933   9.429  20.418  0.00  0.00    +0.000 A 
ENDBRANCH  16  24
ENDBRANCH   1  18
BRANCH   1  27
ATOM     27  C   UNL     1       5.297   5.880  15.890  0.00  0.00    +0.000 C 
ATOM     28  C   UNL     1       4.805   7.046  15.027  0.00  0.00    +0.000 C 
ATOM     29 CL   UNL     1       7.118   5.787  15.657  0.00  0.00    +0.000 Cl
ATOM     30 CL   UNL     1       4.713   4.305  15.241  0.00  0.00    +0.000 Cl
ENDBRANCH   1  27
TORSDOF 6
ENDMDL
MODEL 5
REMARK VINA RESULT:      -7.1      0.771      1.263
REMARK  Name = 
REMARK  8 active torsions:
REMARK  status: ('A' for Active; 'I' for Inactive)
REMARK    1  A    between atoms: C_1  and  C_2
REMARK    2  A    between atoms: C_5  and  C_6
REMARK    3  A    between atoms: N_8  and  C_9
REMARK    4  A    between atoms: C_9  and  N_10
REMARK    5  A    between atoms: C_9  and  C_22
REMARK    6  A    between atoms: N_12  and  C_13
REMARK    7  A    between atoms: N_15  and  C_16
REMARK    8  A    between atoms: C_22  and  C_23
REMARK                            x       y       z     vdW  Elec       q    Type
REMARK                         _______ _______ _______ _____ _____    ______ ____
ROOT
ATOM      1  C   UNL     1       2.950   4.537  19.478  0.00  0.00    +0.000 C 
ENDROOT
BRANCH   1   2
ATOM      2  N   UNL     1       4.316   4.674  18.999  0.00  0.00    +0.000 NA
ATOM      3  C   UNL     1       4.950   3.829  18.273  0.00  0.00    +0.000 C 
ATOM      4  N   UNL     1       4.570   2.631  17.710  0.00  0.00    +0.000 N 
ATOM      5  N   UNL     1       6.286   4.036  17.974  0.00  0.00    +0.000 N 
ATOM      6  H   UNL     1       5.245   2.341  17.010  0.00  0.00    +0.000 HD
ATOM      7  H   UNL     1       6.894   3.348  18.406  0.00  0.00    +0.000 HD
BRANCH   5   8
ATOM      8  C   UNL     1       6.899   5.312  17.935  0.00  0.00    +0.000 A 
ATOM      9  C   UNL     1       7.749   5.770  18.947  0.00  0.00    +0.000 A 
ATOM     10  C   UNL     1       8.257   7.067  18.910  0.00  0.00    +0.000 A 
ATOM     11  C   UNL     1       7.881   7.890  17.864  0.00  0.00    +0.000 A 
ATOM     12  N   UNL     1       7.044   7.509  16.877  0.00  0.00    +0.000 NA
ATOM     13  C   UNL     1       6.579   6.237  16.939  0.00  0.00    +0.000 A 
ENDBRANCH   5   8
BRANCH   4  14
ATOM     14  C   UNL     1       3.224   2.513  17.186  0.00  0.00    +0.000 C 
ATOM     15  N   UNL     1       2.145   2.399  16.780  0.00  0.00    +0.000 NA
ENDBRANCH   4  14
ENDBRANCH   1   2
BRANCH   1  18
ATOM     16  C   UNL     1       2.503   6.904  18.782  0.00  0.00    +0.000 C 
ATOM     17  O   UNL     1       3.132   6.852  17.735  0.00  0.00    +0.000 OA
ATOM     18  N   UNL     1       2.422   5.884  19.694  0.00  0.00    +0.000 N 
ATOM     19  H   UNL     1       1.709   5.963  20.407  0.00  0.00    +0.000 HD
BRANCH  16  24
ATOM     20  C   UNL     1       0.709  12.221  20.048  0.00  0.00    +0.000 C 
ATOM     21  C   UNL     1       1.024  10.800  19.692  0.00  0.00    +0.000 A 
ATOM     22  C   UNL     1       1.467  10.481  18.407  0.00  0.00    +0.000 A 
ATOM     23  C   UNL     1       1.867   9.180  18.111  0.00  0.00    +0.000 A 
ATOM     24  C   UNL     1       1.828   8.183  19.096  0.00  0.00    +0.000 A 
ATOM     25  C   UNL     1       1.331   8.477  20.367  0.00  0.00    +0.000 A 
ATOM     26  C   UNL     1       0.930   9.786  20.659  0.00  0.00    +0.000 A 
ENDBRANCH  16  24
ENDBRANCH   1  18
BRANCH   1  27
ATOM     27  C   UNL     1       2.818   3.447  20.622  0.00  0.00    +0.000 C 
ATOM     28  C   UNL     1       2.401   4.092  21.947  0.00  0.00    +0.000 C 
ATOM     29 CL   UNL     1       1.464   2.297  20.149  0.00  0.00    +0.000 Cl
ATOM     30 CL   UNL     1       4.230   2.354  20.854  0.00  0.00    +0.000 Cl
ENDBRANCH   1  27
TORSDOF 6
ENDMDL
MODEL 6
REMARK VINA RESULT:      -7.0      2.451      4.911
REMARK  Name = 
REMARK  8 active torsions:
REMARK  status: ('A' for Active; 'I' for Inactive)
REMARK    1  A    between atoms: C_1  and  C_2
REMARK    2  A    between atoms: C_5  and  C_6
REMARK    3  A    between atoms: N_8  and  C_9
REMARK    4  A    between atoms: C_9  and  N_10
REMARK    5  A    between atoms: C_9  and  C_22
REMARK    6  A    between atoms: N_12  and  C_13
REMARK    7  A    between atoms: N_15  and  C_16
REMARK    8  A    between atoms: C_22  and  C_23
REMARK                            x       y       z     vdW  Elec       q    Type
REMARK                         _______ _______ _______ _____ _____    ______ ____
ROOT
ATOM      1  C   UNL     1       5.171   6.124  17.094  0.00  0.00    +0.000 C 
ENDROOT
BRANCH   1   2
ATOM      2  N   UNL     1       4.815   4.931  17.846  0.00  0.00    +0.000 NA
ATOM      3  C   UNL     1       5.630   4.149  18.451  0.00  0.00    +0.000 C 
ATOM      4  N   UNL     1       6.996   4.194  18.622  0.00  0.00    +0.000 N 
ATOM      5  N   UNL     1       5.165   2.987  19.044  0.00  0.00    +0.000 N 
ATOM      6  H   UNL     1       7.282   3.544  19.346  0.00  0.00    +0.000 HD
ATOM      7  H   UNL     1       5.506   2.150  18.582  0.00  0.00    +0.000 HD
BRANCH   5   8
ATOM      8  C   UNL     1       3.839   2.812  19.510  0.00  0.00    +0.000 A 
ATOM      9  C   UNL     1       3.455   3.113  20.820  0.00  0.00    +0.000 A 
ATOM     10  C   UNL     1       2.161   2.838  21.258  0.00  0.00    +0.000 A 
ATOM     11  C   UNL     1       1.281   2.243  20.373  0.00  0.00    +0.000 A 
ATOM     12  N   UNL     1       1.605   1.909  19.107  0.00  0.00    +0.000 NA
ATOM     13  C   UNL     1       2.869   2.200  18.712  0.00  0.00    +0.000 A 
ENDBRANCH   5   8
BRANCH   4  14
ATOM     14  C   UNL     1       7.620   5.485  18.832  0.00  0.00    +0.000 C 
ATOM     15  N   UNL     1       8.107   6.520  19.019  0.00  0.00    +0.000 NA
ENDBRANCH   4  14
ENDBRANCH   1   2
BRANCH   1  18
ATOM     16  C   UNL     1       3.057   6.964  18.149  0.00  0.00    +0.000 C 
ATOM     17  O   UNL     1       2.605   5.862  18.428  0.00  0.00    +0.000 OA
ATOM     18  N   UNL     1       4.224   7.175  17.462  0.00  0.00    +0.000 N 
ATOM     19  H   UNL     1       4.600   8.114  17.478  0.00  0.00    +0.000 HD
BRANCH  16  24
ATOM     20  C   UNL     1      -0.773  10.961  19.710  0.00  0.00    +0.000 C 
ATOM     21  C   UNL     1       0.336  10.030  19.327  0.00  0.00    +0.000 A 
ATOM     22  C   UNL     1       0.839   9.118  20.258  0.00  0.00    +0.000 A 
ATOM     23  C   UNL     1       1.790   8.178  19.868  0.00  0.00    +0.000 A 
ATOM     24  C   UNL     1       2.250   8.139  18.544  0.00  0.00    +0.000 A 
ATOM     25  C   UNL     1       1.798   9.084  17.621  0.00  0.00    +0.000 A 
ATOM     26  C   UNL     1       0.843  10.027  18.018  0.00  0.00    +0.000 A 
ENDBRANCH  16  24
ENDBRANCH   1  18
BRANCH   1  27
ATOM     27  C   UNL     1       5.448   5.813  15.565  0.00  0.00    +0.000 C 
ATOM     28  C   UNL     1       6.936   5.543  15.322  0.00  0.00    +0.000 C 
ATOM     29 CL   UNL     1       4.556   4.265  15.134  0.00  0.00    +0.000 Cl
ATOM     30 CL   UNL     1       4.807   7.007  14.377  0.00  0.00    +0.000 Cl
ENDBRANCH   1  27
TORSDOF 6
ENDMDL
MODEL 7
REMARK VINA RESULT:      -7.0      0.723      1.385
REMARK  Name = 
REMARK  8 active torsions:
REMARK  status: ('A' for Active; 'I' for Inactive)
REMARK    1  A    between atoms: C_1  and  C_2
REMARK    2  A    between atoms: C_5  and  C_6
REMARK    3  A    between atoms: N_8  and  C_9
REMARK    4  A    between atoms: C_9  and  N_10
REMARK    5  A    between atoms: C_9  and  C_22
REMARK    6  A    between atoms: N_12  and  C_13
REMARK    7  A    between atoms: N_15  and  C_16
REMARK    8  A    between atoms: C_22  and  C_23
REMARK                            x       y       z     vdW  Elec       q    Type
REMARK                         _______ _______ _______ _____ _____    ______ ____
ROOT
ATOM      1  C   UNL     1       3.001   4.554  19.620  0.00  0.00    +0.000 C 
ENDROOT
BRANCH   1   2
ATOM      2  N   UNL     1       4.362   4.769  19.154  0.00  0.00    +0.000 NA
ATOM      3  C   UNL     1       4.998   4.035  18.319  0.00  0.00    +0.000 C 
ATOM      4  N   UNL     1       4.627   2.918  17.604  0.00  0.00    +0.000 N 
ATOM      5  N   UNL     1       6.330   4.295  18.041  0.00  0.00    +0.000 N 
ATOM      6  H   UNL     1       5.299   2.730  16.868  0.00  0.00    +0.000 HD
ATOM      7  H   UNL     1       6.949   3.563  18.374  0.00  0.00    +0.000 HD
BRANCH   5   8
ATOM      8  C   UNL     1       6.929   5.571  18.168  0.00  0.00    +0.000 A 
ATOM      9  C   UNL     1       6.730   6.594  17.236  0.00  0.00    +0.000 A 
ATOM     10  C   UNL     1       7.414   7.803  17.355  0.00  0.00    +0.000 A 
ATOM     11  C   UNL     1       8.305   7.952  18.401  0.00  0.00    +0.000 A 
ATOM     12  N   UNL     1       8.555   6.990  19.314  0.00  0.00    +0.000 NA
ATOM     13  C   UNL     1       7.864   5.833  19.173  0.00  0.00    +0.000 A 
ENDBRANCH   5   8
BRANCH   4  14
ATOM     14  C   UNL     1       3.278   2.855  17.078  0.00  0.00    +0.000 C 
ATOM     15  N   UNL     1       2.203   2.825  16.646  0.00  0.00    +0.000 NA
ENDBRANCH   4  14
ENDBRANCH   1   2
BRANCH   1  18
ATOM     16  C   UNL     1       2.284   6.913  19.168  0.00  0.00    +0.000 C 
ATOM     17  O   UNL     1       2.669   6.946  18.008  0.00  0.00    +0.000 OA
ATOM     18  N   UNL     1       2.462   5.853  20.018  0.00  0.00    +0.000 N 
ATOM     19  H   UNL     1       1.921   5.857  20.873  0.00  0.00    +0.000 HD
BRANCH  16  24
ATOM     20  C   UNL     1       0.539  12.037  21.116  0.00  0.00    +0.000 C 
ATOM     21  C   UNL     1       0.840  10.660  20.608  0.00  0.00    +0.000 A 
ATOM     22  C   UNL     1       1.047  10.445  19.244  0.00  0.00    +0.000 A 
ATOM     23  C   UNL     1       1.438   9.189  18.788  0.00  0.00    +0.000 A 
ATOM     24  C   UNL     1       1.628   8.132  19.691  0.00  0.00    +0.000 A 
ATOM     25  C   UNL     1       1.367   8.321  21.050  0.00  0.00    +0.000 A 
ATOM     26  C   UNL     1       0.974   9.586  21.502  0.00  0.00    +0.000 A 
ENDBRANCH  16  24
ENDBRANCH   1  18
BRANCH   1  27
ATOM     27  C   UNL     1       2.888   3.318  20.607  0.00  0.00    +0.000 C 
ATOM     28  C   UNL     1       2.359   3.757  21.976  0.00  0.00    +0.000 C 
ATOM     29 CL   UNL     1       1.646   2.155  19.912  0.00  0.00    +0.000 Cl
ATOM     30 CL   UNL     1       4.361   2.297  20.783  0.00  0.00    +0.000 Cl
ENDBRANCH   1  27
TORSDOF 6
ENDMDL
MODEL 8
REMARK VINA RESULT:      -6.6      5.465      9.640
REMARK  Name = 
REMARK  8 active torsions:
REMARK  status: ('A' for Active; 'I' for Inactive)
REMARK    1  A    between atoms: C_1  and  C_2
REMARK    2  A    between atoms: C_5  and  C_6
REMARK    3  A    between atoms: N_8  and  C_9
REMARK    4  A    between atoms: C_9  and  N_10
REMARK    5  A    between atoms: C_9  and  C_22
REMARK    6  A    between atoms: N_12  and  C_13
REMARK    7  A    between atoms: N_15  and  C_16
REMARK    8  A    between atoms: C_22  and  C_23
REMARK                            x       y       z     vdW  Elec       q    Type
REMARK                         _______ _______ _______ _____ _____    ______ ____
ROOT
ATOM      1  C   UNL     1       0.005  12.029  18.935  0.00  0.00    +0.000 C 
ENDROOT
BRANCH   1   2
ATOM      2  N   UNL     1      -1.245  12.341  19.609  0.00  0.00    +0.000 NA
ATOM      3  C   UNL     1      -2.415  12.294  19.089  0.00  0.00    +0.000 C 
ATOM      4  N   UNL     1      -2.853  11.917  17.838  0.00  0.00    +0.000 N 
ATOM      5  N   UNL     1      -3.514  12.719  19.815  0.00  0.00    +0.000 N 
ATOM      6  H   UNL     1      -3.858  11.781  17.843  0.00  0.00    +0.000 HD
ATOM      7  H   UNL     1      -3.936  13.558  19.430  0.00  0.00    +0.000 HD
BRANCH   5   8
ATOM      8  C   UNL     1      -3.577  12.715  21.230  0.00  0.00    +0.000 A 
ATOM      9  C   UNL     1      -2.444  12.563  22.034  0.00  0.00    +0.000 A 
ATOM     10  C   UNL     1      -2.566  12.474  23.420  0.00  0.00    +0.000 A 
ATOM     11  C   UNL     1      -3.834  12.518  23.970  0.00  0.00    +0.000 A 
ATOM     12  N   UNL     1      -4.963  12.637  23.240  0.00  0.00    +0.000 NA
ATOM     13  C   UNL     1      -4.804  12.731  21.898  0.00  0.00    +0.000 A 
ENDBRANCH   5   8
BRANCH   4  14
ATOM     14  C   UNL     1      -2.200  10.799  17.189  0.00  0.00    +0.000 C 
ATOM     15  N   UNL     1      -1.656   9.914  16.673  0.00  0.00    +0.000 NA
ENDBRANCH   4  14
ENDBRANCH   1   2
BRANCH   1  18
ATOM     16  C   UNL     1       1.275   9.883  18.674  0.00  0.00    +0.000 C 
ATOM     17  O   UNL     1       1.696  10.117  17.550  0.00  0.00    +0.000 OA
ATOM     18  N   UNL     1       0.420  10.696  19.371  0.00  0.00    +0.000 N 
ATOM     19  H   UNL     1       0.313  10.508  20.359  0.00  0.00    +0.000 HD
BRANCH  16  24
ATOM     20  C   UNL     1       2.239   4.537  20.567  0.00  0.00    +0.000 C 
ATOM     21  C   UNL     1       2.119   5.972  20.152  0.00  0.00    +0.000 A 
ATOM     22  C   UNL     1       2.569   6.378  18.894  0.00  0.00    +0.000 A 
ATOM     23  C   UNL     1       2.355   7.686  18.466  0.00  0.00    +0.000 A 
ATOM     24  C   UNL     1       1.688   8.603  19.291  0.00  0.00    +0.000 A 
ATOM     25  C   UNL     1       1.287   8.224  20.574  0.00  0.00    +0.000 A 
ATOM     26  C   UNL     1       1.506   6.909  20.999  0.00  0.00    +0.000 A 
ENDBRANCH  16  24
ENDBRANCH   1  18
BRANCH   1  27
ATOM     27  C   UNL     1       1.038  13.231  18.988  0.00  0.00    +0.000 C 
ATOM     28  C   UNL     1       0.311  14.579  18.953  0.00  0.00    +0.000 C 
ATOM     29 CL   UNL     1       1.914  13.149  20.601  0.00  0.00    +0.000 Cl
ATOM     30 CL   UNL     1       2.377  13.190  17.784  0.00  0.00    +0.000 Cl
ENDBRANCH   1  27
TORSDOF 6
ENDMDL
MODEL 9
REMARK VINA RESULT:      -6.5      4.876      8.641
REMARK  Name = 
REMARK  8 active torsions:
REMARK  status: ('A' for Active; 'I' for Inactive)
REMARK    1  A    between atoms: C_1  and  C_2
REMARK    2  A    between atoms: C_5  and  C_6
REMARK    3  A    between atoms: N_8  and  C_9
REMARK    4  A    between atoms: C_9  and  N_10
REMARK    5  A    between atoms: C_9  and  C_22
REMARK    6  A    between atoms: N_12  and  C_13
REMARK    7  A    between atoms: N_15  and  C_16
REMARK    8  A    between atoms: C_22  and  C_23
REMARK                            x       y       z     vdW  Elec       q    Type
REMARK                         _______ _______ _______ _____ _____    ______ ____
ROOT
ATOM      1  C   UNL     1       0.566  10.005  20.357  0.00  0.00    +0.000 C 
ENDROOT
BRANCH   1   2
ATOM      2  N   UNL     1      -0.513  10.543  19.543  0.00  0.00    +0.000 NA
ATOM      3  C   UNL     1      -0.789  11.783  19.380  0.00  0.00    +0.000 C 
ATOM      4  N   UNL     1      -0.182  12.931  19.840  0.00  0.00    +0.000 N 
ATOM      5  N   UNL     1      -1.912  12.155  18.661  0.00  0.00    +0.000 N 
ATOM      6  H   UNL     1      -0.525  13.739  19.332  0.00  0.00    +0.000 HD
ATOM      7  H   UNL     1      -2.617  12.601  19.240  0.00  0.00    +0.000 HD
BRANCH   5   8
ATOM      8  C   UNL     1      -2.506  11.357  17.653  0.00  0.00    +0.000 A 
ATOM      9  C   UNL     1      -1.788  10.398  16.931  0.00  0.00    +0.000 A 
ATOM     10  C   UNL     1      -2.393   9.701  15.886  0.00  0.00    +0.000 A 
ATOM     11  C   UNL     1      -3.706   9.999  15.572  0.00  0.00    +0.000 A 
ATOM     12  N   UNL     1      -4.436  10.931  16.218  0.00  0.00    +0.000 NA
ATOM     13  C   UNL     1      -3.820  11.581  17.235  0.00  0.00    +0.000 A 
ENDBRANCH   5   8
BRANCH   4  14
ATOM     14  C   UNL     1       1.265  12.962  19.912  0.00  0.00    +0.000 C 
ATOM     15  N   UNL     1       2.423  12.982  19.947  0.00  0.00    +0.000 NA
ENDBRANCH   4  14
ENDBRANCH   1   2
BRANCH   1  18
ATOM     16  C   UNL     1       1.980   9.046  18.522  0.00  0.00    +0.000 C 
ATOM     17  O   UNL     1       2.201  10.109  17.959  0.00  0.00    +0.000 OA
ATOM     18  N   UNL     1       1.167   8.898  19.614  0.00  0.00    +0.000 N 
ATOM     19  H   UNL     1       1.230   8.021  20.115  0.00  0.00    +0.000 HD
BRANCH  16  24
ATOM     20  C   UNL     1       4.685   4.177  17.084  0.00  0.00    +0.000 C 
ATOM     21  C   UNL     1       3.920   5.445  17.311  0.00  0.00    +0.000 A 
ATOM     22  C   UNL     1       2.687   5.413  17.967  0.00  0.00    +0.000 A 
ATOM     23  C   UNL     1       2.033   6.602  18.278  0.00  0.00    +0.000 A 
ATOM     24  C   UNL     1       2.602   7.837  17.937  0.00  0.00    +0.000 A 
ATOM     25  C   UNL     1       3.805   7.879  17.229  0.00  0.00    +0.000 A 
ATOM     26  C   UNL     1       4.458   6.681  16.919  0.00  0.00    +0.000 A 
ENDBRANCH  16  24
ENDBRANCH   1  18
BRANCH   1  27
ATOM     27  C   UNL     1       0.139   9.800  21.869  0.00  0.00    +0.000 C 
ATOM     28  C   UNL     1      -0.745   8.559  22.025  0.00  0.00    +0.000 C 
ATOM     29 CL   UNL     1       1.664   9.483  22.846  0.00  0.00    +0.000 Cl
ATOM     30 CL   UNL     1      -0.596  11.223  22.694  0.00  0.00    +0.000 Cl
ENDBRANCH   1  27
TORSDOF 6
ENDMDL
