MODEL 1
REMARK VINA RESULT:      -6.8      0.000      0.000
REMARK  Name = 
REMARK  8 active torsions:
REMARK  status: ('A' for Active; 'I' for Inactive)
REMARK    1  A    between atoms: N_2  and  C_4
REMARK    2  A    between atoms: C_7  and  C_8
REMARK    3  A    between atoms: N_10  and  C_11
REMARK    4  A    between atoms: C_11  and  C_12
REMARK    5  A    between atoms: C_12  and  O_13
REMARK    6  A    between atoms: N_15  and  C_16
REMARK    7  A    between atoms: C_19  and  O_20
REMARK    8  A    between atoms: O_20  and  C_21
REMARK                            x       y       z     vdW  Elec       q    Type
REMARK                         _______ _______ _______ _____ _____    ______ ____
ROOT
ATOM      1  C   UNL     1       1.653   9.445  18.612  0.00  0.00    +0.000 C 
ATOM      2  N   UNL     1       0.436   9.382  19.061  0.00  0.00    +0.000 NA
ATOM      3  N   UNL     1      -0.310  10.547  19.021  0.00  0.00    +0.000 N 
ATOM      4  C   UNL     1       0.178  11.777  19.481  0.00  0.00    +0.000 C 
ATOM      5  N   UNL     1      -0.310  12.765  20.154  0.00  0.00    +0.000 NA
ATOM      6  S   UNL     1       1.912  12.085  19.146  0.00  0.00    +0.000 S 
ATOM      7  C   UNL     1       2.238  10.710  18.036  0.00  0.00    +0.000 C 
ENDROOT
BRANCH   1  11
ATOM      8  C   UNL     1       3.903   5.817  18.260  0.00  0.00    +0.000 A 
ATOM      9  C   UNL     1       4.029   6.827  17.303  0.00  0.00    +0.000 A 
ATOM     10  C   UNL     1       3.286   7.997  17.451  0.00  0.00    +0.000 A 
ATOM     11  C   UNL     1       2.426   8.173  18.548  0.00  0.00    +0.000 A 
ATOM     12  C   UNL     1       2.300   7.156  19.502  0.00  0.00    +0.000 A 
ATOM     13  C   UNL     1       3.044   5.977  19.360  0.00  0.00    +0.000 A 
BRANCH   8  15
ATOM     14  O   UNL     1       5.426   4.245  19.028  0.00  0.00    +0.000 OA
ATOM     15  N   UNL     1       4.670   4.578  18.103  0.00  0.00    +0.000 N 
ATOM     16  O   UNL     1       4.520   3.934  17.056  0.00  0.00    +0.000 OA
ENDBRANCH   8  15
ENDBRANCH   1  11
BRANCH   5  17
ATOM     17  C   UNL     1      -1.539  12.832  20.799  0.00  0.00    +0.000 A 
ATOM     18  C   UNL     1      -2.708  13.288  20.188  0.00  0.00    +0.000 A 
ATOM     19  C   UNL     1      -3.935  13.225  20.852  0.00  0.00    +0.000 A 
ATOM     20  C   UNL     1      -4.021  12.610  22.101  0.00  0.00    +0.000 A 
ATOM     21  C   UNL     1      -2.863  12.162  22.729  0.00  0.00    +0.000 A 
ATOM     22  C   UNL     1      -1.632  12.268  22.074  0.00  0.00    +0.000 A 
BRANCH  20  23
ATOM     23  O   UNL     1      -5.250  12.558  22.686  0.00  0.00    +0.000 OA
BRANCH  23  24
ATOM     24  C   UNL     1      -5.330  13.061  24.019  0.00  0.00    +0.000 C 
ATOM     25  F   UNL     1      -4.875  12.212  24.964  0.00  0.00    +0.000 F 
ATOM     26  F   UNL     1      -4.596  14.194  24.089  0.00  0.00    +0.000 F 
ATOM     27  F   UNL     1      -6.613  13.373  24.306  0.00  0.00    +0.000 F 
ENDBRANCH  23  24
ENDBRANCH  20  23
ENDBRANCH   5  17
BRANCH   3  28
ATOM     28  C   UNL     1      -1.717  10.217  18.740  0.00  0.00    +0.000 C 
BRANCH  28  29
ATOM     29  C   UNL     1      -2.147  10.264  17.278  0.00  0.00    +0.000 C 
BRANCH  29  30
ATOM     30  O   UNL     1      -2.036  11.580  16.746  0.00  0.00    +0.000 OA
ATOM     31  H   UNL     1      -1.610  11.491  15.876  0.00  0.00    +0.000 HD
ENDBRANCH  29  30
ENDBRANCH  28  29
ENDBRANCH   3  28
TORSDOF 8
ENDMDL
MODEL 2
REMARK VINA RESULT:      -6.8      1.511      1.786
REMARK  Name = 
REMARK  8 active torsions:
REMARK  status: ('A' for Active; 'I' for Inactive)
REMARK    1  A    between atoms: N_2  and  C_4
REMARK    2  A    between atoms: C_7  and  C_8
REMARK    3  A    between atoms: N_10  and  C_11
REMARK    4  A    between atoms: C_11  and  C_12
REMARK    5  A    between atoms: C_12  and  O_13
REMARK    6  A    between atoms: N_15  and  C_16
REMARK    7  A    between atoms: C_19  and  O_20
REMARK    8  A    between atoms: O_20  and  C_21
REMARK                            x       y       z     vdW  Elec       q    Type
REMARK                         _______ _______ _______ _____ _____    ______ ____
ROOT
ATOM      1  C   UNL     1       0.960  10.711  19.292  0.00  0.00    +0.000 C 
ATOM      2  N   UNL     1      -0.239  10.758  19.789  0.00  0.00    +0.000 NA
ATOM      3  N   UNL     1      -0.835  12.003  19.878  0.00  0.00    +0.000 N 
ATOM      4  C   UNL     1      -0.182  13.120  20.415  0.00  0.00    +0.000 C 
ATOM      5  N   UNL     1      -0.519  14.098  21.189  0.00  0.00    +0.000 NA
ATOM      6  S   UNL     1       1.564  13.243  20.029  0.00  0.00    +0.000 S 
ATOM      7  C   UNL     1       1.678  11.941  18.797  0.00  0.00    +0.000 C 
ENDROOT
BRANCH   1  11
ATOM      8  C   UNL     1       2.689   6.865  18.538  0.00  0.00    +0.000 A 
ATOM      9  C   UNL     1       2.676   7.846  17.544  0.00  0.00    +0.000 A 
ATOM     10  C   UNL     1       2.109   9.089  17.824  0.00  0.00    +0.000 A 
ATOM     11  C   UNL     1       1.565   9.365  19.090  0.00  0.00    +0.000 A 
ATOM     12  C   UNL     1       1.576   8.377  20.082  0.00  0.00    +0.000 A 
ATOM     13  C   UNL     1       2.144   7.126  19.807  0.00  0.00    +0.000 A 
BRANCH   8  15
ATOM     14  O   UNL     1       4.373   5.518  17.682  0.00  0.00    +0.000 OA
ATOM     15  N   UNL     1       3.269   5.552  18.246  0.00  0.00    +0.000 N 
ATOM     16  O   UNL     1       2.623   4.548  18.579  0.00  0.00    +0.000 OA
ENDBRANCH   8  15
ENDBRANCH   1  11
BRANCH   5  17
ATOM     17  C   UNL     1      -1.707  14.258  21.891  0.00  0.00    +0.000 A 
ATOM     18  C   UNL     1      -2.801  14.978  21.407  0.00  0.00    +0.000 A 
ATOM     19  C   UNL     1      -4.007  15.007  22.109  0.00  0.00    +0.000 A 
ATOM     20  C   UNL     1      -4.165  14.231  23.257  0.00  0.00    +0.000 A 
ATOM     21  C   UNL     1      -3.081  13.517  23.760  0.00  0.00    +0.000 A 
ATOM     22  C   UNL     1      -1.864  13.527  23.073  0.00  0.00    +0.000 A 
BRANCH  20  23
ATOM     23  O   UNL     1      -5.373  14.283  23.883  0.00  0.00    +0.000 OA
BRANCH  23  24
ATOM     24  C   UNL     1      -6.125  13.071  23.893  0.00  0.00    +0.000 C 
ATOM     25  F   UNL     1      -5.696  12.156  24.789  0.00  0.00    +0.000 F 
ATOM     26  F   UNL     1      -7.410  13.372  24.189  0.00  0.00    +0.000 F 
ATOM     27  F   UNL     1      -6.098  12.512  22.664  0.00  0.00    +0.000 F 
ENDBRANCH  23  24
ENDBRANCH  20  23
ENDBRANCH   5  17
BRANCH   3  28
ATOM     28  C   UNL     1      -2.282  11.873  19.634  0.00  0.00    +0.000 C 
BRANCH  28  29
ATOM     29  C   UNL     1      -2.708  11.635  18.190  0.00  0.00    +0.000 C 
BRANCH  29  30
ATOM     30  O   UNL     1      -1.755  12.164  17.273  0.00  0.00    +0.000 OA
ATOM     31  H   UNL     1      -1.948  13.115  17.193  0.00  0.00    +0.000 HD
ENDBRANCH  29  30
ENDBRANCH  28  29
ENDBRANCH   3  28
TORSDOF 8
ENDMDL
MODEL 3
REMARK VINA RESULT:      -6.8      0.426      1.249
REMARK  Name = 
REMARK  8 active torsions:
REMARK  status: ('A' for Active; 'I' for Inactive)
REMARK    1  A    between atoms: N_2  and  C_4
REMARK    2  A    between atoms: C_7  and  C_8
REMARK    3  A    between atoms: N_10  and  C_11
REMARK    4  A    between atoms: C_11  and  C_12
REMARK    5  A    between atoms: C_12  and  O_13
REMARK    6  A    between atoms: N_15  and  C_16
REMARK    7  A    between atoms: C_19  and  O_20
REMARK    8  A    between atoms: O_20  and  C_21
REMARK                            x       y       z     vdW  Elec       q    Type
REMARK                         _______ _______ _______ _____ _____    ______ ____
ROOT
ATOM      1  C   UNL     1       1.577   9.613  18.624  0.00  0.00    +0.000 C 
ATOM      2  N   UNL     1       0.353   9.539  19.052  0.00  0.00    +0.000 NA
ATOM      3  N   UNL     1      -0.384  10.709  19.056  0.00  0.00    +0.000 N 
ATOM      4  C   UNL     1       0.105  11.913  19.580  0.00  0.00    +0.000 C 
ATOM      5  N   UNL     1      -0.386  12.872  20.291  0.00  0.00    +0.000 NA
ATOM      6  S   UNL     1       1.846  12.223  19.285  0.00  0.00    +0.000 S 
ATOM      7  C   UNL     1       2.179  10.899  18.117  0.00  0.00    +0.000 C 
ENDROOT
BRANCH   1  11
ATOM      8  C   UNL     1       3.747   5.923  18.473  0.00  0.00    +0.000 A 
ATOM      9  C   UNL     1       2.865   6.186  19.523  0.00  0.00    +0.000 A 
ATOM     10  C   UNL     1       2.171   7.395  19.540  0.00  0.00    +0.000 A 
ATOM     11  C   UNL     1       2.342   8.340  18.513  0.00  0.00    +0.000 A 
ATOM     12  C   UNL     1       3.230   8.073  17.464  0.00  0.00    +0.000 A 
ATOM     13  C   UNL     1       3.931   6.859  17.442  0.00  0.00    +0.000 A 
BRANCH   8  15
ATOM     14  O   UNL     1       5.500   4.592  17.738  0.00  0.00    +0.000 OA
ATOM     15  N   UNL     1       4.492   4.661  18.457  0.00  0.00    +0.000 N 
ATOM     16  O   UNL     1       4.071   3.734  19.163  0.00  0.00    +0.000 OA
ENDBRANCH   8  15
ENDBRANCH   1  11
BRANCH   5  17
ATOM     17  C   UNL     1      -1.624  12.919  20.920  0.00  0.00    +0.000 A 
ATOM     18  C   UNL     1      -2.780  13.415  20.315  0.00  0.00    +0.000 A 
ATOM     19  C   UNL     1      -4.018  13.331  20.957  0.00  0.00    +0.000 A 
ATOM     20  C   UNL     1      -4.128  12.655  22.172  0.00  0.00    +0.000 A 
ATOM     21  C   UNL     1      -2.983  12.165  22.794  0.00  0.00    +0.000 A 
ATOM     22  C   UNL     1      -1.742  12.292  22.164  0.00  0.00    +0.000 A 
BRANCH  20  23
ATOM     23  O   UNL     1      -5.366  12.586  22.735  0.00  0.00    +0.000 OA
BRANCH  23  24
ATOM     24  C   UNL     1      -5.505  13.195  24.018  0.00  0.00    +0.000 C 
ATOM     25  F   UNL     1      -6.748  13.642  24.292  0.00  0.00    +0.000 F 
ATOM     26  F   UNL     1      -5.174  12.280  24.958  0.00  0.00    +0.000 F 
ATOM     27  F   UNL     1      -4.645  14.231  24.121  0.00  0.00    +0.000 F 
ENDBRANCH  23  24
ENDBRANCH  20  23
ENDBRANCH   5  17
BRANCH   3  28
ATOM     28  C   UNL     1      -1.790  10.404  18.739  0.00  0.00    +0.000 C 
BRANCH  28  29
ATOM     29  C   UNL     1      -2.225  10.630  17.295  0.00  0.00    +0.000 C 
BRANCH  29  30
ATOM     30  O   UNL     1      -2.086  11.996  16.919  0.00  0.00    +0.000 OA
ATOM     31  H   UNL     1      -1.638  12.001  16.055  0.00  0.00    +0.000 HD
ENDBRANCH  29  30
ENDBRANCH  28  29
ENDBRANCH   3  28
TORSDOF 8
ENDMDL
MODEL 4
REMARK VINA RESULT:      -6.7      1.186      1.559
REMARK  Name = 
REMARK  8 active torsions:
REMARK  status: ('A' for Active; 'I' for Inactive)
REMARK    1  A    between atoms: N_2  and  C_4
REMARK    2  A    between atoms: C_7  and  C_8
REMARK    3  A    between atoms: N_10  and  C_11
REMARK    4  A    between atoms: C_11  and  C_12
REMARK    5  A    between atoms: C_12  and  O_13
REMARK    6  A    between atoms: N_15  and  C_16
REMARK    7  A    between atoms: C_19  and  O_20
REMARK    8  A    between atoms: O_20  and  C_21
REMARK                            x       y       z     vdW  Elec       q    Type
REMARK                         _______ _______ _______ _____ _____    ______ ____
ROOT
ATOM      1  C   UNL     1       1.790   9.236  18.591  0.00  0.00    +0.000 C 
ATOM      2  N   UNL     1       0.754   9.403  19.356  0.00  0.00    +0.000 NA
ATOM      3  N   UNL     1       0.071  10.600  19.240  0.00  0.00    +0.000 N 
ATOM      4  C   UNL     1       0.715  11.844  19.235  0.00  0.00    +0.000 C 
ATOM      5  N   UNL     1       0.480  13.003  19.755  0.00  0.00    +0.000 NA
ATOM      6  S   UNL     1       2.288  11.887  18.376  0.00  0.00    +0.000 S 
ATOM      7  C   UNL     1       2.228  10.273  17.588  0.00  0.00    +0.000 C 
ENDROOT
BRANCH   1  11
ATOM      8  C   UNL     1       3.692   5.409  18.875  0.00  0.00    +0.000 A 
ATOM      9  C   UNL     1       2.794   5.831  19.857  0.00  0.00    +0.000 A 
ATOM     10  C   UNL     1       2.188   7.080  19.732  0.00  0.00    +0.000 A 
ATOM     11  C   UNL     1       2.464   7.909  18.631  0.00  0.00    +0.000 A 
ATOM     12  C   UNL     1       3.370   7.484  17.651  0.00  0.00    +0.000 A 
ATOM     13  C   UNL     1       3.981   6.228  17.771  0.00  0.00    +0.000 A 
BRANCH   8  15
ATOM     14  O   UNL     1       5.581   4.079  19.099  0.00  0.00    +0.000 OA
ATOM     15  N   UNL     1       4.344   4.103  19.008  0.00  0.00    +0.000 N 
ATOM     16  O   UNL     1       3.623   3.097  19.021  0.00  0.00    +0.000 OA
ENDBRANCH   8  15
ENDBRANCH   1  11
BRANCH   5  17
ATOM     17  C   UNL     1      -0.507  13.339  20.674  0.00  0.00    +0.000 A 
ATOM     18  C   UNL     1      -1.847  13.533  20.333  0.00  0.00    +0.000 A 
ATOM     19  C   UNL     1      -2.811  13.759  21.318  0.00  0.00    +0.000 A 
ATOM     20  C   UNL     1      -2.460  13.691  22.666  0.00  0.00    +0.000 A 
ATOM     21  C   UNL     1      -1.127  13.510  23.022  0.00  0.00    +0.000 A 
ATOM     22  C   UNL     1      -0.161  13.328  22.028  0.00  0.00    +0.000 A 
BRANCH  20  23
ATOM     23  O   UNL     1      -3.450  13.894  23.578  0.00  0.00    +0.000 OA
BRANCH  23  24
ATOM     24  C   UNL     1      -4.033  12.720  24.141  0.00  0.00    +0.000 C 
ATOM     25  F   UNL     1      -3.363  11.580  23.872  0.00  0.00    +0.000 F 
ATOM     26  F   UNL     1      -4.075  12.871  25.484  0.00  0.00    +0.000 F 
ATOM     27  F   UNL     1      -5.301  12.587  23.695  0.00  0.00    +0.000 F 
ENDBRANCH  23  24
ENDBRANCH  20  23
ENDBRANCH   5  17
BRANCH   3  28
ATOM     28  C   UNL     1      -1.369  10.365  19.441  0.00  0.00    +0.000 C 
BRANCH  28  29
ATOM     29  C   UNL     1      -2.229  10.296  18.185  0.00  0.00    +0.000 C 
BRANCH  29  30
ATOM     30  O   UNL     1      -1.437  10.054  17.026  0.00  0.00    +0.000 OA
ATOM     31  H   UNL     1      -1.477   9.096  16.860  0.00  0.00    +0.000 HD
ENDBRANCH  29  30
ENDBRANCH  28  29
ENDBRANCH   3  28
TORSDOF 8
ENDMDL
MODEL 5
REMARK VINA RESULT:      -6.7      0.907      1.382
REMARK  Name = 
REMARK  8 active torsions:
REMARK  status: ('A' for Active; 'I' for Inactive)
REMARK    1  A    between atoms: N_2  and  C_4
REMARK    2  A    between atoms: C_7  and  C_8
REMARK    3  A    between atoms: N_10  and  C_11
REMARK    4  A    between atoms: C_11  and  C_12
REMARK    5  A    between atoms: C_12  and  O_13
REMARK    6  A    between atoms: N_15  and  C_16
REMARK    7  A    between atoms: C_19  and  O_20
REMARK    8  A    between atoms: O_20  and  C_21
REMARK                            x       y       z     vdW  Elec       q    Type
REMARK                         _______ _______ _______ _____ _____    ______ ____
ROOT
ATOM      1  C   UNL     1       1.268   9.868  18.904  0.00  0.00    +0.000 C 
ATOM      2  N   UNL     1       0.020   9.787  19.253  0.00  0.00    +0.000 NA
ATOM      3  N   UNL     1      -0.696  10.970  19.312  0.00  0.00    +0.000 N 
ATOM      4  C   UNL     1      -0.217  12.115  19.962  0.00  0.00    +0.000 C 
ATOM      5  N   UNL     1      -0.732  13.023  20.722  0.00  0.00    +0.000 NA
ATOM      6  S   UNL     1       1.544  12.408  19.795  0.00  0.00    +0.000 S 
ATOM      7  C   UNL     1       1.922  11.177  18.542  0.00  0.00    +0.000 C 
ENDROOT
BRANCH   1  11
ATOM      8  C   UNL     1       3.400   6.167  18.577  0.00  0.00    +0.000 A 
ATOM      9  C   UNL     1       2.601   6.431  19.691  0.00  0.00    +0.000 A 
ATOM     10  C   UNL     1       1.916   7.644  19.764  0.00  0.00    +0.000 A 
ATOM     11  C   UNL     1       2.015   8.591  18.731  0.00  0.00    +0.000 A 
ATOM     12  C   UNL     1       2.822   8.324  17.618  0.00  0.00    +0.000 A 
ATOM     13  C   UNL     1       3.511   7.107  17.539  0.00  0.00    +0.000 A 
BRANCH   8  15
ATOM     14  O   UNL     1       5.297   4.931  18.071  0.00  0.00    +0.000 OA
ATOM     15  N   UNL     1       4.134   4.902  18.501  0.00  0.00    +0.000 N 
ATOM     16  O   UNL     1       3.551   3.873  18.870  0.00  0.00    +0.000 OA
ENDBRANCH   8  15
ENDBRANCH   1  11
BRANCH   5  17
ATOM     17  C   UNL     1      -2.004  13.046  21.280  0.00  0.00    +0.000 A 
ATOM     18  C   UNL     1      -3.144  13.463  20.590  0.00  0.00    +0.000 A 
ATOM     19  C   UNL     1      -4.411  13.356  21.168  0.00  0.00    +0.000 A 
ATOM     20  C   UNL     1      -4.561  12.734  22.406  0.00  0.00    +0.000 A 
ATOM     21  C   UNL     1      -3.434  12.323  23.113  0.00  0.00    +0.000 A 
ATOM     22  C   UNL     1      -2.166  12.473  22.545  0.00  0.00    +0.000 A 
BRANCH  20  23
ATOM     23  O   UNL     1      -5.825  12.638  22.905  0.00  0.00    +0.000 OA
BRANCH  23  24
ATOM     24  C   UNL     1      -6.325  13.797  23.571  0.00  0.00    +0.000 C 
ATOM     25  F   UNL     1      -5.370  14.612  24.066  0.00  0.00    +0.000 F 
ATOM     26  F   UNL     1      -7.062  14.507  22.688  0.00  0.00    +0.000 F 
ATOM     27  F   UNL     1      -7.134  13.420  24.585  0.00  0.00    +0.000 F 
ENDBRANCH  23  24
ENDBRANCH  20  23
ENDBRANCH   5  17
BRANCH   3  28
ATOM     28  C   UNL     1      -2.085  10.723  18.890  0.00  0.00    +0.000 C 
BRANCH  28  29
ATOM     29  C   UNL     1      -2.400  10.961  17.418  0.00  0.00    +0.000 C 
BRANCH  29  30
ATOM     30  O   UNL     1      -1.806  12.167  16.948  0.00  0.00    +0.000 OA
ATOM     31  H   UNL     1      -0.958  11.917  16.542  0.00  0.00    +0.000 HD
ENDBRANCH  29  30
ENDBRANCH  28  29
ENDBRANCH   3  28
TORSDOF 8
ENDMDL
MODEL 6
REMARK VINA RESULT:      -6.7      5.172      9.933
REMARK  Name = 
REMARK  8 active torsions:
REMARK  status: ('A' for Active; 'I' for Inactive)
REMARK    1  A    between atoms: N_2  and  C_4
REMARK    2  A    between atoms: C_7  and  C_8
REMARK    3  A    between atoms: N_10  and  C_11
REMARK    4  A    between atoms: C_11  and  C_12
REMARK    5  A    between atoms: C_12  and  O_13
REMARK    6  A    between atoms: N_15  and  C_16
REMARK    7  A    between atoms: C_19  and  O_20
REMARK    8  A    between atoms: O_20  and  C_21
REMARK                            x       y       z     vdW  Elec       q    Type
REMARK                         _______ _______ _______ _____ _____    ______ ____
ROOT
ATOM      1  C   UNL     1       0.269  10.585  20.306  0.00  0.00    +0.000 C 
ATOM      2  N   UNL     1       0.423   9.320  20.558  0.00  0.00    +0.000 NA
ATOM      3  N   UNL     1       1.552   8.709  20.041  0.00  0.00    +0.000 N 
ATOM      4  C   UNL     1       1.953   8.859  18.707  0.00  0.00    +0.000 C 
ATOM      5  N   UNL     1       2.431   8.076  17.798  0.00  0.00    +0.000 NA
ATOM      6  S   UNL     1       1.705  10.493  18.014  0.00  0.00    +0.000 S 
ATOM      7  C   UNL     1       1.278  11.380  19.517  0.00  0.00    +0.000 C 
ENDROOT
BRANCH   1  11
ATOM      8  C   UNL     1      -3.019  12.473  22.298  0.00  0.00    +0.000 A 
ATOM      9  C   UNL     1      -2.053  11.775  23.026  0.00  0.00    +0.000 A 
ATOM     10  C   UNL     1      -0.993  11.176  22.347  0.00  0.00    +0.000 A 
ATOM     11  C   UNL     1      -0.883  11.276  20.949  0.00  0.00    +0.000 A 
ATOM     12  C   UNL     1      -1.856  11.973  20.223  0.00  0.00    +0.000 A 
ATOM     13  C   UNL     1      -2.924  12.578  20.901  0.00  0.00    +0.000 A 
BRANCH   8  15
ATOM     14  O   UNL     1      -5.173  12.417  23.159  0.00  0.00    +0.000 OA
ATOM     15  N   UNL     1      -4.144  13.092  23.004  0.00  0.00    +0.000 N 
ATOM     16  O   UNL     1      -4.005  14.256  23.405  0.00  0.00    +0.000 OA
ENDBRANCH   8  15
ENDBRANCH   1  11
BRANCH   5  17
ATOM     17  C   UNL     1       2.564   6.694  17.848  0.00  0.00    +0.000 A 
ATOM     18  C   UNL     1       1.487   5.810  17.759  0.00  0.00    +0.000 A 
ATOM     19  C   UNL     1       1.695   4.430  17.701  0.00  0.00    +0.000 A 
ATOM     20  C   UNL     1       2.992   3.924  17.628  0.00  0.00    +0.000 A 
ATOM     21  C   UNL     1       4.077   4.790  17.728  0.00  0.00    +0.000 A 
ATOM     22  C   UNL     1       3.859   6.167  17.829  0.00  0.00    +0.000 A 
BRANCH  20  23
ATOM     23  O   UNL     1       3.129   2.571  17.548  0.00  0.00    +0.000 OA
BRANCH  23  24
ATOM     24  C   UNL     1       3.037   1.859  18.781  0.00  0.00    +0.000 C 
ATOM     25  F   UNL     1       1.779   1.535  19.147  0.00  0.00    +0.000 F 
ATOM     26  F   UNL     1       3.744   0.712  18.660  0.00  0.00    +0.000 F 
ATOM     27  F   UNL     1       3.594   2.593  19.769  0.00  0.00    +0.000 F 
ENDBRANCH  23  24
ENDBRANCH  20  23
ENDBRANCH   5  17
BRANCH   3  28
ATOM     28  C   UNL     1       2.029   7.684  20.985  0.00  0.00    +0.000 C 
BRANCH  28  29
ATOM     29  C   UNL     1       1.274   6.360  20.990  0.00  0.00    +0.000 C 
BRANCH  29  30
ATOM     30  O   UNL     1       2.163   5.256  21.133  0.00  0.00    +0.000 OA
ATOM     31  H   UNL     1       1.969   4.648  20.399  0.00  0.00    +0.000 HD
ENDBRANCH  29  30
ENDBRANCH  28  29
ENDBRANCH   3  28
TORSDOF 8
ENDMDL
MODEL 7
REMARK VINA RESULT:      -6.6      1.580      1.797
REMARK  Name = 
REMARK  8 active torsions:
REMARK  status: ('A' for Active; 'I' for Inactive)
REMARK    1  A    between atoms: N_2  and  C_4
REMARK    2  A    between atoms: C_7  and  C_8
REMARK    3  A    between atoms: N_10  and  C_11
REMARK    4  A    between atoms: C_11  and  C_12
REMARK    5  A    between atoms: C_12  and  O_13
REMARK    6  A    between atoms: N_15  and  C_16
REMARK    7  A    between atoms: C_19  and  O_20
REMARK    8  A    between atoms: O_20  and  C_21
REMARK                            x       y       z     vdW  Elec       q    Type
REMARK                         _______ _______ _______ _____ _____    ______ ____
ROOT
ATOM      1  C   UNL     1       0.960  10.285  19.095  0.00  0.00    +0.000 C 
ATOM      2  N   UNL     1      -0.297  10.238  19.418  0.00  0.00    +0.000 NA
ATOM      3  N   UNL     1      -0.982  11.440  19.454  0.00  0.00    +0.000 N 
ATOM      4  C   UNL     1      -0.487  12.576  20.106  0.00  0.00    +0.000 C 
ATOM      5  N   UNL     1      -0.995  13.503  20.849  0.00  0.00    +0.000 NA
ATOM      6  S   UNL     1       1.283  12.823  19.974  0.00  0.00    +0.000 S 
ATOM      7  C   UNL     1       1.655  11.574  18.738  0.00  0.00    +0.000 C 
ENDROOT
BRANCH   1  11
ATOM      8  C   UNL     1       3.019   6.578  18.493  0.00  0.00    +0.000 A 
ATOM      9  C   UNL     1       2.987   7.544  17.486  0.00  0.00    +0.000 A 
ATOM     10  C   UNL     1       2.312   8.742  17.716  0.00  0.00    +0.000 A 
ATOM     11  C   UNL     1       1.677   8.988  18.945  0.00  0.00    +0.000 A 
ATOM     12  C   UNL     1       1.708   8.014  19.951  0.00  0.00    +0.000 A 
ATOM     13  C   UNL     1       2.386   6.808  19.725  0.00  0.00    +0.000 A 
BRANCH   8  15
ATOM     14  O   UNL     1       3.054   4.263  18.332  0.00  0.00    +0.000 OA
ATOM     15  N   UNL     1       3.714   5.310  18.252  0.00  0.00    +0.000 N 
ATOM     16  O   UNL     1       4.923   5.356  17.985  0.00  0.00    +0.000 OA
ENDBRANCH   8  15
ENDBRANCH   1  11
BRANCH   5  17
ATOM     17  C   UNL     1      -2.277  13.563  21.380  0.00  0.00    +0.000 A 
ATOM     18  C   UNL     1      -3.319  14.295  20.806  0.00  0.00    +0.000 A 
ATOM     19  C   UNL     1      -4.614  14.224  21.323  0.00  0.00    +0.000 A 
ATOM     20  C   UNL     1      -4.903  13.338  22.361  0.00  0.00    +0.000 A 
ATOM     21  C   UNL     1      -3.875  12.610  22.952  0.00  0.00    +0.000 A 
ATOM     22  C   UNL     1      -2.572  12.719  22.455  0.00  0.00    +0.000 A 
BRANCH  20  23
ATOM     23  O   UNL     1      -6.190  13.298  22.804  0.00  0.00    +0.000 OA
BRANCH  23  24
ATOM     24  C   UNL     1      -7.084  12.477  22.053  0.00  0.00    +0.000 C 
ATOM     25  F   UNL     1      -7.904  11.712  22.806  0.00  0.00    +0.000 F 
ATOM     26  F   UNL     1      -7.854  13.281  21.286  0.00  0.00    +0.000 F 
ATOM     27  F   UNL     1      -6.376  11.668  21.235  0.00  0.00    +0.000 F 
ENDBRANCH  23  24
ENDBRANCH  20  23
ENDBRANCH   5  17
BRANCH   3  28
ATOM     28  C   UNL     1      -2.368  11.227  19.004  0.00  0.00    +0.000 C 
BRANCH  28  29
ATOM     29  C   UNL     1      -2.644  11.454  17.522  0.00  0.00    +0.000 C 
BRANCH  29  30
ATOM     30  O   UNL     1      -1.675  10.803  16.708  0.00  0.00    +0.000 OA
ATOM     31  H   UNL     1      -1.852   9.849  16.777  0.00  0.00    +0.000 HD
ENDBRANCH  29  30
ENDBRANCH  28  29
ENDBRANCH   3  28
TORSDOF 8
ENDMDL
MODEL 8
REMARK VINA RESULT:      -6.6      1.569      1.993
REMARK  Name = 
REMARK  8 active torsions:
REMARK  status: ('A' for Active; 'I' for Inactive)
REMARK    1  A    between atoms: N_2  and  C_4
REMARK    2  A    between atoms: C_7  and  C_8
REMARK    3  A    between atoms: N_10  and  C_11
REMARK    4  A    between atoms: C_11  and  C_12
REMARK    5  A    between atoms: C_12  and  O_13
REMARK    6  A    between atoms: N_15  and  C_16
REMARK    7  A    between atoms: C_19  and  O_20
REMARK    8  A    between atoms: O_20  and  C_21
REMARK                            x       y       z     vdW  Elec       q    Type
REMARK                         _______ _______ _______ _____ _____    ______ ____
ROOT
ATOM      1  C   UNL     1       0.893  10.435  19.269  0.00  0.00    +0.000 C 
ATOM      2  N   UNL     1      -0.359  10.415  19.615  0.00  0.00    +0.000 NA
ATOM      3  N   UNL     1      -0.994  11.636  19.750  0.00  0.00    +0.000 N 
ATOM      4  C   UNL     1      -0.442  12.703  20.471  0.00  0.00    +0.000 C 
ATOM      5  N   UNL     1      -0.898  13.593  21.288  0.00  0.00    +0.000 NA
ATOM      6  S   UNL     1       1.334  12.889  20.320  0.00  0.00    +0.000 S 
ATOM      7  C   UNL     1       1.633  11.718  18.990  0.00  0.00    +0.000 C 
ENDROOT
BRANCH   1  11
ATOM      8  C   UNL     1       2.804   6.643  18.706  0.00  0.00    +0.000 A 
ATOM      9  C   UNL     1       2.203   6.962  19.925  0.00  0.00    +0.000 A 
ATOM     10  C   UNL     1       1.586   8.203  20.074  0.00  0.00    +0.000 A 
ATOM     11  C   UNL     1       1.554   9.125  19.013  0.00  0.00    +0.000 A 
ATOM     12  C   UNL     1       2.162   8.803  17.794  0.00  0.00    +0.000 A 
ATOM     13  C   UNL     1       2.784   7.557  17.638  0.00  0.00    +0.000 A 
BRANCH   8  15
ATOM     14  O   UNL     1       3.370   4.528  19.474  0.00  0.00    +0.000 OA
ATOM     15  N   UNL     1       3.469   5.347  18.547  0.00  0.00    +0.000 N 
ATOM     16  O   UNL     1       4.092   5.142  17.497  0.00  0.00    +0.000 OA
ENDBRANCH   8  15
ENDBRANCH   1  11
BRANCH   5  17
ATOM     17  C   UNL     1      -2.167  13.665  21.849  0.00  0.00    +0.000 A 
ATOM     18  C   UNL     1      -3.179  14.497  21.367  0.00  0.00    +0.000 A 
ATOM     19  C   UNL     1      -4.468  14.441  21.902  0.00  0.00    +0.000 A 
ATOM     20  C   UNL     1      -4.784  13.477  22.858  0.00  0.00    +0.000 A 
ATOM     21  C   UNL     1      -3.785  12.647  23.358  0.00  0.00    +0.000 A 
ATOM     22  C   UNL     1      -2.487  12.739  22.846  0.00  0.00    +0.000 A 
BRANCH  20  23
ATOM     23  O   UNL     1      -6.064  13.457  23.322  0.00  0.00    +0.000 OA
BRANCH  23  24
ATOM     24  C   UNL     1      -6.995  12.689  22.560  0.00  0.00    +0.000 C 
ATOM     25  F   UNL     1      -6.437  11.954  21.575  0.00  0.00    +0.000 F 
ATOM     26  F   UNL     1      -7.634  11.845  23.399  0.00  0.00    +0.000 F 
ATOM     27  F   UNL     1      -7.915  13.512  22.010  0.00  0.00    +0.000 F 
ENDBRANCH  23  24
ENDBRANCH  20  23
ENDBRANCH   5  17
BRANCH   3  28
ATOM     28  C   UNL     1      -2.396  11.510  19.315  0.00  0.00    +0.000 C 
BRANCH  28  29
ATOM     29  C   UNL     1      -2.624  10.985  17.903  0.00  0.00    +0.000 C 
BRANCH  29  30
ATOM     30  O   UNL     1      -2.350  11.984  16.926  0.00  0.00    +0.000 OA
ATOM     31  H   UNL     1      -1.761  11.574  16.270  0.00  0.00    +0.000 HD
ENDBRANCH  29  30
ENDBRANCH  28  29
ENDBRANCH   3  28
TORSDOF 8
ENDMDL
MODEL 9
REMARK VINA RESULT:      -6.6      5.410     10.006
REMARK  Name = 
REMARK  8 active torsions:
REMARK  status: ('A' for Active; 'I' for Inactive)
REMARK    1  A    between atoms: N_2  and  C_4
REMARK    2  A    between atoms: C_7  and  C_8
REMARK    3  A    between atoms: N_10  and  C_11
REMARK    4  A    between atoms: C_11  and  C_12
REMARK    5  A    between atoms: C_12  and  O_13
REMARK    6  A    between atoms: N_15  and  C_16
REMARK    7  A    between atoms: C_19  and  O_20
REMARK    8  A    between atoms: O_20  and  C_21
REMARK                            x       y       z     vdW  Elec       q    Type
REMARK                         _______ _______ _______ _____ _____    ______ ____
ROOT
ATOM      1  C   UNL     1      -0.403  10.846  19.474  0.00  0.00    +0.000 C 
ATOM      2  N   UNL     1      -0.333   9.654  19.986  0.00  0.00    +0.000 NA
ATOM      3  N   UNL     1       0.909   9.044  19.991  0.00  0.00    +0.000 N 
ATOM      4  C   UNL     1       1.736   8.997  18.860  0.00  0.00    +0.000 C 
ATOM      5  N   UNL     1       2.499   8.108  18.317  0.00  0.00    +0.000 NA
ATOM      6  S   UNL     1       1.723  10.471  17.842  0.00  0.00    +0.000 S 
ATOM      7  C   UNL     1       0.807  11.566  18.934  0.00  0.00    +0.000 C 
ENDROOT
BRANCH   1  11
ATOM      8  C   UNL     1      -4.131  12.910  19.905  0.00  0.00    +0.000 A 
ATOM      9  C   UNL     1      -3.116  13.072  20.850  0.00  0.00    +0.000 A 
ATOM     10  C   UNL     1      -1.913  12.389  20.677  0.00  0.00    +0.000 A 
ATOM     11  C   UNL     1      -1.710  11.554  19.565  0.00  0.00    +0.000 A 
ATOM     12  C   UNL     1      -2.733  11.392  18.622  0.00  0.00    +0.000 A 
ATOM     13  C   UNL     1      -3.944  12.076  18.790  0.00  0.00    +0.000 A 
BRANCH   8  15
ATOM     14  O   UNL     1      -5.434  14.556  20.892  0.00  0.00    +0.000 OA
ATOM     15  N   UNL     1      -5.404  13.613  20.088  0.00  0.00    +0.000 N 
ATOM     16  O   UNL     1      -6.378  13.224  19.429  0.00  0.00    +0.000 OA
ENDBRANCH   8  15
ENDBRANCH   1  11
BRANCH   5  17
ATOM     17  C   UNL     1       2.618   6.766  18.656  0.00  0.00    +0.000 A 
ATOM     18  C   UNL     1       1.660   5.800  18.340  0.00  0.00    +0.000 A 
ATOM     19  C   UNL     1       1.890   4.449  18.607  0.00  0.00    +0.000 A 
ATOM     20  C   UNL     1       3.126   4.036  19.102  0.00  0.00    +0.000 A 
ATOM     21  C   UNL     1       4.088   4.987  19.433  0.00  0.00    +0.000 A 
ATOM     22  C   UNL     1       3.833   6.341  19.202  0.00  0.00    +0.000 A 
BRANCH  20  23
ATOM     23  O   UNL     1       3.297   2.703  19.317  0.00  0.00    +0.000 OA
BRANCH  23  24
ATOM     24  C   UNL     1       3.479   1.898  18.152  0.00  0.00    +0.000 C 
ATOM     25  F   UNL     1       4.011   0.681  18.392  0.00  0.00    +0.000 F 
ATOM     26  F   UNL     1       2.273   1.718  17.570  0.00  0.00    +0.000 F 
ATOM     27  F   UNL     1       4.276   2.548  17.276  0.00  0.00    +0.000 F 
ENDBRANCH  23  24
ENDBRANCH  20  23
ENDBRANCH   5  17
BRANCH   3  28
ATOM     28  C   UNL     1       1.048   8.226  21.207  0.00  0.00    +0.000 C 
BRANCH  28  29
ATOM     29  C   UNL     1       1.400   8.971  22.490  0.00  0.00    +0.000 C 
BRANCH  29  30
ATOM     30  O   UNL     1       0.711  10.214  22.574  0.00  0.00    +0.000 OA
ATOM     31  H   UNL     1       0.749  10.488  23.507  0.00  0.00    +0.000 HD
ENDBRANCH  29  30
ENDBRANCH  28  29
ENDBRANCH   3  28
TORSDOF 8
ENDMDL
