MODEL 1
REMARK VINA RESULT:      -7.8      0.000      0.000
REMARK  Name = 
REMARK  4 active torsions:
REMARK  status: ('A' for Active; 'I' for Inactive)
REMARK    1  A    between atoms: C_1  and  C_2
REMARK    2  A    between atoms: C_2  and  C_3
REMARK    3  A    between atoms: C_2  and  C_4
REMARK    4  A    between atoms: C_9  and  N_10
REMARK                            x       y       z     vdW  Elec       q    Type
REMARK                         _______ _______ _______ _____ _____    ______ ____
ROOT
ATOM      1  N   UNL     1       2.613   6.455  20.423  0.00  0.00    +0.000 N 
ATOM      2  C   UNL     1       2.009   7.400  19.583  0.00  0.00    +0.000 C 
ATOM      3  O   UNL     1       1.763   7.204  18.384  0.00  0.00    +0.000 OA
ATOM      4  N   UNL     1       1.637   8.639  20.145  0.00  0.00    +0.000 N 
ATOM      5  C   UNL     1       1.001   9.647  19.228  0.00  0.00    +0.000 C 
ATOM      6  C   UNL     1       0.935  11.154  19.709  0.00  0.00    +0.000 C 
ATOM      7  C   UNL     1       0.528  11.178  21.148  0.00  0.00    +0.000 A 
ATOM      8  C   UNL     1       0.544   9.995  21.828  0.00  0.00    +0.000 A 
ATOM      9  N   UNL     1      -0.687   9.979  22.442  0.00  0.00    +0.000 N 
ATOM     10  C   UNL     1      -1.152  11.280  22.555  0.00  0.00    +0.000 A 
ATOM     11  C   UNL     1      -2.325  11.785  23.129  0.00  0.00    +0.000 A 
ATOM     12  C   UNL     1      -2.382  13.166  23.345  0.00  0.00    +0.000 A 
ATOM     13  C   UNL     1      -1.335  13.997  22.961  0.00  0.00    +0.000 A 
ATOM     14  C   UNL     1      -0.269  13.490  22.193  0.00  0.00    +0.000 A 
ATOM     15  C   UNL     1      -0.194  12.101  21.959  0.00  0.00    +0.000 A 
ATOM     16  C   UNL     1       1.445   8.839  21.582  0.00  0.00    +0.000 C 
ATOM     17  H   UNL     1       2.880   6.771  21.338  0.00  0.00    +0.000 HD
ATOM     18  H   UNL     1      -1.195   9.160  22.736  0.00  0.00    +0.000 HD
ENDROOT
BRANCH   1  24
ATOM     19  C   UNL     1       4.145   4.752  19.328  0.00  0.00    +0.000 A 
ATOM     20  C   UNL     1       4.470   3.379  19.118  0.00  0.00    +0.000 A 
ATOM     21  C   UNL     1       3.681   2.341  19.600  0.00  0.00    +0.000 A 
ATOM     22  C   UNL     1       2.537   2.658  20.295  0.00  0.00    +0.000 A 
ATOM     23  C   UNL     1       2.193   4.002  20.527  0.00  0.00    +0.000 A 
ATOM     24  C   UNL     1       2.981   5.088  20.092  0.00  0.00    +0.000 A 
BRANCH  19  26
ATOM     25  C   UNL     1       6.571   5.424  19.077  0.00  0.00    +0.000 C 
ATOM     26  C   UNL     1       5.130   5.701  18.649  0.00  0.00    +0.000 C 
ATOM     27  C   UNL     1       4.932   5.840  17.149  0.00  0.00    +0.000 C 
ENDBRANCH  19  26
ENDBRANCH   1  24
TORSDOF 2
ENDMDL
MODEL 2
REMARK VINA RESULT:      -7.8      2.421      3.509
REMARK  Name = 
REMARK  4 active torsions:
REMARK  status: ('A' for Active; 'I' for Inactive)
REMARK    1  A    between atoms: C_1  and  C_2
REMARK    2  A    between atoms: C_2  and  C_3
REMARK    3  A    between atoms: C_2  and  C_4
REMARK    4  A    between atoms: C_9  and  N_10
REMARK                            x       y       z     vdW  Elec       q    Type
REMARK                         _______ _______ _______ _____ _____    ______ ____
ROOT
ATOM      1  N   UNL     1       2.112   6.760  18.030  0.00  0.00    +0.000 N 
ATOM      2  C   UNL     1       1.967   7.493  19.216  0.00  0.00    +0.000 C 
ATOM      3  O   UNL     1       2.215   7.042  20.344  0.00  0.00    +0.000 OA
ATOM      4  N   UNL     1       1.536   8.832  19.114  0.00  0.00    +0.000 N 
ATOM      5  C   UNL     1       1.374   9.602  20.396  0.00  0.00    +0.000 C 
ATOM      6  C   UNL     1       0.534  10.943  20.357  0.00  0.00    +0.000 C 
ATOM      7  C   UNL     1       0.921  11.714  19.135  0.00  0.00    +0.000 A 
ATOM      8  C   UNL     1       1.667  11.068  18.193  0.00  0.00    +0.000 A 
ATOM      9  N   UNL     1       2.684  11.960  17.944  0.00  0.00    +0.000 N 
ATOM     10  C   UNL     1       2.265  13.233  18.300  0.00  0.00    +0.000 A 
ATOM     11  C   UNL     1       2.916  14.469  18.208  0.00  0.00    +0.000 A 
ATOM     12  C   UNL     1       2.132  15.614  18.381  0.00  0.00    +0.000 A 
ATOM     13  C   UNL     1       0.776  15.518  18.676  0.00  0.00    +0.000 A 
ATOM     14  C   UNL     1       0.199  14.268  18.975  0.00  0.00    +0.000 A 
ATOM     15  C   UNL     1       0.974  13.100  18.813  0.00  0.00    +0.000 A 
ATOM     16  C   UNL     1       1.645   9.615  17.882  0.00  0.00    +0.000 C 
ATOM     17  H   UNL     1       1.759   7.185  17.192  0.00  0.00    +0.000 HD
ATOM     18  H   UNL     1       3.602  11.736  17.593  0.00  0.00    +0.000 HD
ENDROOT
BRANCH   1  24
ATOM     19  C   UNL     1       4.009   5.129  17.591  0.00  0.00    +0.000 A 
ATOM     20  C   UNL     1       4.449   3.774  17.544  0.00  0.00    +0.000 A 
ATOM     21  C   UNL     1       3.589   2.701  17.744  0.00  0.00    +0.000 A 
ATOM     22  C   UNL     1       2.260   2.964  17.982  0.00  0.00    +0.000 A 
ATOM     23  C   UNL     1       1.795   4.290  18.043  0.00  0.00    +0.000 A 
ATOM     24  C   UNL     1       2.636   5.411  17.886  0.00  0.00    +0.000 A 
BRANCH  19  26
ATOM     25  C   UNL     1       6.466   5.670  17.860  0.00  0.00    +0.000 C 
ATOM     26  C   UNL     1       5.126   6.123  17.279  0.00  0.00    +0.000 C 
ATOM     27  C   UNL     1       5.184   6.563  15.826  0.00  0.00    +0.000 C 
ENDBRANCH  19  26
ENDBRANCH   1  24
TORSDOF 2
ENDMDL
MODEL 3
REMARK VINA RESULT:      -7.7      1.309      2.459
REMARK  Name = 
REMARK  4 active torsions:
REMARK  status: ('A' for Active; 'I' for Inactive)
REMARK    1  A    between atoms: C_1  and  C_2
REMARK    2  A    between atoms: C_2  and  C_3
REMARK    3  A    between atoms: C_2  and  C_4
REMARK    4  A    between atoms: C_9  and  N_10
REMARK                            x       y       z     vdW  Elec       q    Type
REMARK                         _______ _______ _______ _____ _____    ______ ____
ROOT
ATOM      1  N   UNL     1       2.686   7.347  19.132  0.00  0.00    +0.000 N 
ATOM      2  C   UNL     1       1.982   8.403  18.539  0.00  0.00    +0.000 C 
ATOM      3  O   UNL     1       1.669   8.441  17.340  0.00  0.00    +0.000 OA
ATOM      4  N   UNL     1       1.584   9.475  19.365  0.00  0.00    +0.000 N 
ATOM      5  C   UNL     1       0.839  10.607  18.712  0.00  0.00    +0.000 C 
ATOM      6  C   UNL     1       0.727  11.976  19.498  0.00  0.00    +0.000 C 
ATOM      7  C   UNL     1       0.413  11.680  20.930  0.00  0.00    +0.000 A 
ATOM      8  C   UNL     1       0.534  10.387  21.348  0.00  0.00    +0.000 A 
ATOM      9  N   UNL     1      -0.652  10.166  22.009  0.00  0.00    +0.000 N 
ATOM     10  C   UNL     1      -1.175  11.385  22.414  0.00  0.00    +0.000 A 
ATOM     11  C   UNL     1      -2.333  11.686  23.142  0.00  0.00    +0.000 A 
ATOM     12  C   UNL     1      -2.448  12.988  23.643  0.00  0.00    +0.000 A 
ATOM     13  C   UNL     1      -1.472  13.944  23.385  0.00  0.00    +0.000 A 
ATOM     14  C   UNL     1      -0.432  13.674  22.474  0.00  0.00    +0.000 A 
ATOM     15  C   UNL     1      -0.301  12.370  21.952  0.00  0.00    +0.000 A 
ATOM     16  C   UNL     1       1.476   9.365  20.820  0.00  0.00    +0.000 C 
ATOM     17  H   UNL     1       2.996   7.486  20.077  0.00  0.00    +0.000 HD
ATOM     18  H   UNL     1      -1.098   9.274  22.154  0.00  0.00    +0.000 HD
ENDROOT
BRANCH   1  24
ATOM     19  C   UNL     1       2.559   4.825  18.858  0.00  0.00    +0.000 A 
ATOM     20  C   UNL     1       2.971   3.667  18.135  0.00  0.00    +0.000 A 
ATOM     21  C   UNL     1       3.911   3.719  17.112  0.00  0.00    +0.000 A 
ATOM     22  C   UNL     1       4.470   4.936  16.799  0.00  0.00    +0.000 A 
ATOM     23  C   UNL     1       4.079   6.099  17.487  0.00  0.00    +0.000 A 
ATOM     24  C   UNL     1       3.103   6.102  18.505  0.00  0.00    +0.000 A 
BRANCH  19  26
ATOM     25  C   UNL     1       0.720   3.274  19.638  0.00  0.00    +0.000 C 
ATOM     26  C   UNL     1       1.566   4.502  19.972  0.00  0.00    +0.000 C 
ATOM     27  C   UNL     1       2.171   4.492  21.366  0.00  0.00    +0.000 C 
ENDBRANCH  19  26
ENDBRANCH   1  24
TORSDOF 2
ENDMDL
MODEL 4
REMARK VINA RESULT:      -7.6      2.248      3.803
REMARK  Name = 
REMARK  4 active torsions:
REMARK  status: ('A' for Active; 'I' for Inactive)
REMARK    1  A    between atoms: C_1  and  C_2
REMARK    2  A    between atoms: C_2  and  C_3
REMARK    3  A    between atoms: C_2  and  C_4
REMARK    4  A    between atoms: C_9  and  N_10
REMARK                            x       y       z     vdW  Elec       q    Type
REMARK                         _______ _______ _______ _____ _____    ______ ____
ROOT
ATOM      1  N   UNL     1       2.337   6.735  18.126  0.00  0.00    +0.000 N 
ATOM      2  C   UNL     1       2.128   7.402  19.341  0.00  0.00    +0.000 C 
ATOM      3  O   UNL     1       2.484   6.962  20.443  0.00  0.00    +0.000 OA
ATOM      4  N   UNL     1       1.495   8.662  19.298  0.00  0.00    +0.000 N 
ATOM      5  C   UNL     1       1.267   9.361  20.611  0.00  0.00    +0.000 C 
ATOM      6  C   UNL     1       0.232  10.559  20.646  0.00  0.00    +0.000 C 
ATOM      7  C   UNL     1       0.451  11.414  19.438  0.00  0.00    +0.000 A 
ATOM      8  C   UNL     1       1.250  10.918  18.450  0.00  0.00    +0.000 A 
ATOM      9  N   UNL     1       2.110  11.961  18.198  0.00  0.00    +0.000 N 
ATOM     10  C   UNL     1       1.516  13.144  18.611  0.00  0.00    +0.000 A 
ATOM     11  C   UNL     1       1.968  14.467  18.540  0.00  0.00    +0.000 A 
ATOM     12  C   UNL     1       1.026  15.474  18.778  0.00  0.00    +0.000 A 
ATOM     13  C   UNL     1      -0.287  15.163  19.115  0.00  0.00    +0.000 A 
ATOM     14  C   UNL     1      -0.656  13.832  19.390  0.00  0.00    +0.000 A 
ATOM     15  C   UNL     1       0.280  12.801  19.162  0.00  0.00    +0.000 A 
ATOM     16  C   UNL     1       1.437   9.487  18.091  0.00  0.00    +0.000 C 
ATOM     17  H   UNL     1       1.892   7.124  17.315  0.00  0.00    +0.000 HD
ATOM     18  H   UNL     1       3.036  11.890  17.809  0.00  0.00    +0.000 HD
ENDROOT
BRANCH   1  24
ATOM     19  C   UNL     1       2.554   4.213  18.345  0.00  0.00    +0.000 A 
ATOM     20  C   UNL     1       3.289   3.033  18.030  0.00  0.00    +0.000 A 
ATOM     21  C   UNL     1       4.498   3.065  17.345  0.00  0.00    +0.000 A 
ATOM     22  C   UNL     1       5.006   4.288  16.973  0.00  0.00    +0.000 A 
ATOM     23  C   UNL     1       4.302   5.471  17.261  0.00  0.00    +0.000 A 
ATOM     24  C   UNL     1       3.054   5.486  17.918  0.00  0.00    +0.000 A 
BRANCH  19  26
ATOM     25  C   UNL     1       0.595   2.647  18.680  0.00  0.00    +0.000 C 
ATOM     26  C   UNL     1       1.291   3.923  19.154  0.00  0.00    +0.000 C 
ATOM     27  C   UNL     1       1.477   4.019  20.659  0.00  0.00    +0.000 C 
ENDBRANCH  19  26
ENDBRANCH   1  24
TORSDOF 2
ENDMDL
MODEL 5
REMARK VINA RESULT:      -7.6      1.784      3.222
REMARK  Name = 
REMARK  4 active torsions:
REMARK  status: ('A' for Active; 'I' for Inactive)
REMARK    1  A    between atoms: C_1  and  C_2
REMARK    2  A    between atoms: C_2  and  C_3
REMARK    3  A    between atoms: C_2  and  C_4
REMARK    4  A    between atoms: C_9  and  N_10
REMARK                            x       y       z     vdW  Elec       q    Type
REMARK                         _______ _______ _______ _____ _____    ______ ____
ROOT
ATOM      1  N   UNL     1       2.886   6.940  18.004  0.00  0.00    +0.000 N 
ATOM      2  C   UNL     1       2.544   7.004  19.361  0.00  0.00    +0.000 C 
ATOM      3  O   UNL     1       3.020   6.262  20.232  0.00  0.00    +0.000 OA
ATOM      4  N   UNL     1       1.619   7.992  19.761  0.00  0.00    +0.000 N 
ATOM      5  C   UNL     1       1.252   8.040  21.218  0.00  0.00    +0.000 C 
ATOM      6  C   UNL     1      -0.046   8.847  21.633  0.00  0.00    +0.000 C 
ATOM      7  C   UNL     1      -0.070  10.135  20.872  0.00  0.00    +0.000 A 
ATOM      8  C   UNL     1       0.806  10.272  19.836  0.00  0.00    +0.000 A 
ATOM      9  N   UNL     1       1.376  11.500  20.077  0.00  0.00    +0.000 N 
ATOM     10  C   UNL     1       0.517  12.248  20.867  0.00  0.00    +0.000 A 
ATOM     11  C   UNL     1       0.627  13.558  21.351  0.00  0.00    +0.000 A 
ATOM     12  C   UNL     1      -0.530  14.136  21.885  0.00  0.00    +0.000 A 
ATOM     13  C   UNL     1      -1.718  13.419  21.969  0.00  0.00    +0.000 A 
ATOM     14  C   UNL     1      -1.741  12.041  21.677  0.00  0.00    +0.000 A 
ATOM     15  C   UNL     1      -0.584  11.436  21.143  0.00  0.00    +0.000 A 
ATOM     16  C   UNL     1       1.334   9.188  18.967  0.00  0.00    +0.000 C 
ATOM     17  H   UNL     1       2.342   7.502  17.374  0.00  0.00    +0.000 HD
ATOM     18  H   UNL     1       2.283  11.808  19.766  0.00  0.00    +0.000 HD
ENDROOT
BRANCH   1  24
ATOM     19  C   UNL     1       3.770   4.655  17.333  0.00  0.00    +0.000 A 
ATOM     20  C   UNL     1       4.760   3.900  16.639  0.00  0.00    +0.000 A 
ATOM     21  C   UNL     1       5.860   4.490  16.030  0.00  0.00    +0.000 A 
ATOM     22  C   UNL     1       6.001   5.856  16.116  0.00  0.00    +0.000 A 
ATOM     23  C   UNL     1       5.037   6.631  16.787  0.00  0.00    +0.000 A 
ATOM     24  C   UNL     1       3.885   6.082  17.386  0.00  0.00    +0.000 A 
BRANCH  19  26
ATOM     25  C   UNL     1       1.296   4.143  17.472  0.00  0.00    +0.000 C 
ATOM     26  C   UNL     1       2.695   3.775  17.968  0.00  0.00    +0.000 C 
ATOM     27  C   UNL     1       3.005   2.288  17.938  0.00  0.00    +0.000 C 
ENDBRANCH  19  26
ENDBRANCH   1  24
TORSDOF 2
ENDMDL
MODEL 6
REMARK VINA RESULT:      -7.5      1.123      1.149
REMARK  Name = 
REMARK  4 active torsions:
REMARK  status: ('A' for Active; 'I' for Inactive)
REMARK    1  A    between atoms: C_1  and  C_2
REMARK    2  A    between atoms: C_2  and  C_3
REMARK    3  A    between atoms: C_2  and  C_4
REMARK    4  A    between atoms: C_9  and  N_10
REMARK                            x       y       z     vdW  Elec       q    Type
REMARK                         _______ _______ _______ _____ _____    ______ ____
ROOT
ATOM      1  N   UNL     1       2.416   6.920  19.277  0.00  0.00    +0.000 N 
ATOM      2  C   UNL     1       1.884   8.042  18.628  0.00  0.00    +0.000 C 
ATOM      3  O   UNL     1       1.656   8.096  17.411  0.00  0.00    +0.000 OA
ATOM      4  N   UNL     1       1.567   9.169  19.415  0.00  0.00    +0.000 N 
ATOM      5  C   UNL     1       1.007  10.370  18.703  0.00  0.00    +0.000 C 
ATOM      6  C   UNL     1       1.011  11.757  19.466  0.00  0.00    +0.000 C 
ATOM      7  C   UNL     1       0.572  11.526  20.877  0.00  0.00    +0.000 A 
ATOM      8  C   UNL     1       0.509  10.235  21.315  0.00  0.00    +0.000 A 
ATOM      9  N   UNL     1      -0.735  10.171  21.898  0.00  0.00    +0.000 N 
ATOM     10  C   UNL     1      -1.132  11.450  22.256  0.00  0.00    +0.000 A 
ATOM     11  C   UNL     1      -2.289  11.901  22.902  0.00  0.00    +0.000 A 
ATOM     12  C   UNL     1      -2.278  13.216  23.382  0.00  0.00    +0.000 A 
ATOM     13  C   UNL     1      -1.179  14.044  23.179  0.00  0.00    +0.000 A 
ATOM     14  C   UNL     1      -0.123  13.634  22.341  0.00  0.00    +0.000 A 
ATOM     15  C   UNL     1      -0.118  12.315  21.842  0.00  0.00    +0.000 A 
ATOM     16  C   UNL     1       1.352   9.099  20.861  0.00  0.00    +0.000 C 
ATOM     17  H   UNL     1       2.679   7.038  20.239  0.00  0.00    +0.000 HD
ATOM     18  H   UNL     1      -1.294   9.341  22.023  0.00  0.00    +0.000 HD
ENDROOT
BRANCH   1  24
ATOM     19  C   UNL     1       3.916   5.356  17.952  0.00  0.00    +0.000 A 
ATOM     20  C   UNL     1       4.165   4.033  17.480  0.00  0.00    +0.000 A 
ATOM     21  C   UNL     1       3.272   2.987  17.681  0.00  0.00    +0.000 A 
ATOM     22  C   UNL     1       2.099   3.249  18.351  0.00  0.00    +0.000 A 
ATOM     23  C   UNL     1       1.827   4.541  18.837  0.00  0.00    +0.000 A 
ATOM     24  C   UNL     1       2.719   5.624  18.691  0.00  0.00    +0.000 A 
BRANCH  19  26
ATOM     25  C   UNL     1       6.376   5.927  18.112  0.00  0.00    +0.000 C 
ATOM     26  C   UNL     1       5.014   6.340  17.553  0.00  0.00    +0.000 C 
ATOM     27  C   UNL     1       5.021   6.705  16.078  0.00  0.00    +0.000 C 
ENDBRANCH  19  26
ENDBRANCH   1  24
TORSDOF 2
ENDMDL
MODEL 7
REMARK VINA RESULT:      -7.3      2.229      3.629
REMARK  Name = 
REMARK  4 active torsions:
REMARK  status: ('A' for Active; 'I' for Inactive)
REMARK    1  A    between atoms: C_1  and  C_2
REMARK    2  A    between atoms: C_2  and  C_3
REMARK    3  A    between atoms: C_2  and  C_4
REMARK    4  A    between atoms: C_9  and  N_10
REMARK                            x       y       z     vdW  Elec       q    Type
REMARK                         _______ _______ _______ _____ _____    ______ ____
ROOT
ATOM      1  N   UNL     1       3.362   6.571  17.378  0.00  0.00    +0.000 N 
ATOM      2  C   UNL     1       3.066   6.904  18.707  0.00  0.00    +0.000 C 
ATOM      3  O   UNL     1       3.649   6.421  19.688  0.00  0.00    +0.000 OA
ATOM      4  N   UNL     1       2.060   7.866  18.936  0.00  0.00    +0.000 N 
ATOM      5  C   UNL     1       1.745   8.203  20.367  0.00  0.00    +0.000 C 
ATOM      6  C   UNL     1       0.388   8.960  20.672  0.00  0.00    +0.000 C 
ATOM      7  C   UNL     1       0.203  10.038  19.653  0.00  0.00    +0.000 A 
ATOM      8  C   UNL     1       1.021  10.021  18.561  0.00  0.00    +0.000 A 
ATOM      9  N   UNL     1       1.470  11.319  18.495  0.00  0.00    +0.000 N 
ATOM     10  C   UNL     1       0.569  12.142  19.153  0.00  0.00    +0.000 A 
ATOM     11  C   UNL     1       0.561  13.531  19.333  0.00  0.00    +0.000 A 
ATOM     12  C   UNL     1      -0.628  14.105  19.796  0.00  0.00    +0.000 A 
ATOM     13  C   UNL     1      -1.732  13.317  20.104  0.00  0.00    +0.000 A 
ATOM     14  C   UNL     1      -1.624  11.913  20.121  0.00  0.00    +0.000 A 
ATOM     15  C   UNL     1      -0.432  11.313  19.663  0.00  0.00    +0.000 A 
ATOM     16  C   UNL     1       1.624   8.824  17.919  0.00  0.00    +0.000 C 
ATOM     17  H   UNL     1       2.740   6.927  16.675  0.00  0.00    +0.000 HD
ATOM     18  H   UNL     1       2.328  11.633  18.071  0.00  0.00    +0.000 HD
ENDROOT
BRANCH   1  24
ATOM     19  C   UNL     1       4.341   4.264  16.966  0.00  0.00    +0.000 A 
ATOM     20  C   UNL     1       5.393   3.481  16.406  0.00  0.00    +0.000 A 
ATOM     21  C   UNL     1       6.519   4.049  15.823  0.00  0.00    +0.000 A 
ATOM     22  C   UNL     1       6.622   5.421  15.800  0.00  0.00    +0.000 A 
ATOM     23  C   UNL     1       5.598   6.222  16.337  0.00  0.00    +0.000 A 
ATOM     24  C   UNL     1       4.420   5.693  16.903  0.00  0.00    +0.000 A 
BRANCH  19  26
ATOM     25  C   UNL     1       3.587   3.032  19.044  0.00  0.00    +0.000 C 
ATOM     26  C   UNL     1       3.246   3.410  17.602  0.00  0.00    +0.000 C 
ATOM     27  C   UNL     1       1.839   3.951  17.407  0.00  0.00    +0.000 C 
ENDBRANCH  19  26
ENDBRANCH   1  24
TORSDOF 2
ENDMDL
MODEL 8
REMARK VINA RESULT:      -7.3      1.787      1.845
REMARK  Name = 
REMARK  4 active torsions:
REMARK  status: ('A' for Active; 'I' for Inactive)
REMARK    1  A    between atoms: C_1  and  C_2
REMARK    2  A    between atoms: C_2  and  C_3
REMARK    3  A    between atoms: C_2  and  C_4
REMARK    4  A    between atoms: C_9  and  N_10
REMARK                            x       y       z     vdW  Elec       q    Type
REMARK                         _______ _______ _______ _____ _____    ______ ____
ROOT
ATOM      1  N   UNL     1       2.405   6.918  18.872  0.00  0.00    +0.000 N 
ATOM      2  C   UNL     1       2.399   8.114  18.140  0.00  0.00    +0.000 C 
ATOM      3  O   UNL     1       2.736   8.200  16.951  0.00  0.00    +0.000 OA
ATOM      4  N   UNL     1       1.957   9.283  18.794  0.00  0.00    +0.000 N 
ATOM      5  C   UNL     1       1.968  10.560  18.000  0.00  0.00    +0.000 C 
ATOM      6  C   UNL     1       1.863  11.929  18.790  0.00  0.00    +0.000 C 
ATOM      7  C   UNL     1       0.821  11.787  19.854  0.00  0.00    +0.000 A 
ATOM      8  C   UNL     1       0.364  10.530  20.127  0.00  0.00    +0.000 A 
ATOM      9  N   UNL     1      -1.002  10.691  20.111  0.00  0.00    +0.000 N 
ATOM     10  C   UNL     1      -1.301  12.022  20.356  0.00  0.00    +0.000 A 
ATOM     11  C   UNL     1      -2.534  12.675  20.472  0.00  0.00    +0.000 A 
ATOM     12  C   UNL     1      -2.520  13.970  21.004  0.00  0.00    +0.000 A 
ATOM     13  C   UNL     1      -1.325  14.588  21.355  0.00  0.00    +0.000 A 
ATOM     14  C   UNL     1      -0.091  13.993  21.026  0.00  0.00    +0.000 A 
ATOM     15  C   UNL     1      -0.083  12.691  20.483  0.00  0.00    +0.000 A 
ATOM     16  C   UNL     1       1.125   9.259  19.998  0.00  0.00    +0.000 C 
ATOM     17  H   UNL     1       2.236   6.992  19.859  0.00  0.00    +0.000 HD
ATOM     18  H   UNL     1      -1.685   9.975  19.922  0.00  0.00    +0.000 HD
ENDROOT
BRANCH   1  24
ATOM     19  C   UNL     1       4.048   5.154  18.074  0.00  0.00    +0.000 A 
ATOM     20  C   UNL     1       4.270   3.804  17.671  0.00  0.00    +0.000 A 
ATOM     21  C   UNL     1       3.236   2.886  17.531  0.00  0.00    +0.000 A 
ATOM     22  C   UNL     1       1.949   3.307  17.779  0.00  0.00    +0.000 A 
ATOM     23  C   UNL     1       1.698   4.630  18.187  0.00  0.00    +0.000 A 
ATOM     24  C   UNL     1       2.717   5.585  18.380  0.00  0.00    +0.000 A 
BRANCH  19  26
ATOM     25  C   UNL     1       6.397   5.353  18.995  0.00  0.00    +0.000 C 
ATOM     26  C   UNL     1       5.333   5.981  18.094  0.00  0.00    +0.000 C 
ATOM     27  C   UNL     1       5.832   6.395  16.720  0.00  0.00    +0.000 C 
ENDBRANCH  19  26
ENDBRANCH   1  24
TORSDOF 2
ENDMDL
MODEL 9
REMARK VINA RESULT:      -7.2      1.308      1.378
REMARK  Name = 
REMARK  4 active torsions:
REMARK  status: ('A' for Active; 'I' for Inactive)
REMARK    1  A    between atoms: C_1  and  C_2
REMARK    2  A    between atoms: C_2  and  C_3
REMARK    3  A    between atoms: C_2  and  C_4
REMARK    4  A    between atoms: C_9  and  N_10
REMARK                            x       y       z     vdW  Elec       q    Type
REMARK                         _______ _______ _______ _____ _____    ______ ____
ROOT
ATOM      1  N   UNL     1       2.520   6.587  20.184  0.00  0.00    +0.000 N 
ATOM      2  C   UNL     1       2.209   7.407  19.090  0.00  0.00    +0.000 C 
ATOM      3  O   UNL     1       2.224   7.026  17.911  0.00  0.00    +0.000 OA
ATOM      4  N   UNL     1       1.834   8.741  19.355  0.00  0.00    +0.000 N 
ATOM      5  C   UNL     1       1.516   9.613  18.171  0.00  0.00    +0.000 C 
ATOM      6  C   UNL     1       1.479  11.181  18.390  0.00  0.00    +0.000 C 
ATOM      7  C   UNL     1       0.762  11.467  19.670  0.00  0.00    +0.000 A 
ATOM      8  C   UNL     1       0.517  10.417  20.505  0.00  0.00    +0.000 A 
ATOM      9  N   UNL     1      -0.817  10.568  20.804  0.00  0.00    +0.000 N 
ATOM     10  C   UNL     1      -1.176  11.892  20.606  0.00  0.00    +0.000 A 
ATOM     11  C   UNL     1      -2.398  12.548  20.802  0.00  0.00    +0.000 A 
ATOM     12  C   UNL     1      -2.377  13.947  20.787  0.00  0.00    +0.000 A 
ATOM     13  C   UNL     1      -1.200  14.645  20.541  0.00  0.00    +0.000 A 
ATOM     14  C   UNL     1      -0.038  13.961  20.135  0.00  0.00    +0.000 A 
ATOM     15  C   UNL     1      -0.038  12.550  20.137  0.00  0.00    +0.000 A 
ATOM     16  C   UNL     1       1.342   9.190  20.658  0.00  0.00    +0.000 C 
ATOM     17  H   UNL     1       2.601   7.037  21.077  0.00  0.00    +0.000 HD
ATOM     18  H   UNL     1      -1.451   9.839  21.090  0.00  0.00    +0.000 HD
ENDROOT
BRANCH   1  24
ATOM     19  C   UNL     1       3.973   4.622  19.492  0.00  0.00    +0.000 A 
ATOM     20  C   UNL     1       4.238   3.224  19.587  0.00  0.00    +0.000 A 
ATOM     21  C   UNL     1       3.409   2.351  20.281  0.00  0.00    +0.000 A 
ATOM     22  C   UNL     1       2.283   2.860  20.886  0.00  0.00    +0.000 A 
ATOM     23  C   UNL     1       1.997   4.236  20.818  0.00  0.00    +0.000 A 
ATOM     24  C   UNL     1       2.828   5.165  20.160  0.00  0.00    +0.000 A 
BRANCH  19  26
ATOM     25  C   UNL     1       6.376   5.385  19.278  0.00  0.00    +0.000 C 
ATOM     26  C   UNL     1       4.993   5.358  18.626  0.00  0.00    +0.000 C 
ATOM     27  C   UNL     1       4.992   4.939  17.165  0.00  0.00    +0.000 C 
ENDBRANCH  19  26
ENDBRANCH   1  24
TORSDOF 2
ENDMDL
