MODEL 1
REMARK VINA RESULT:      -7.5      0.000      0.000
REMARK  Name = 
REMARK  6 active torsions:
REMARK  status: ('A' for Active; 'I' for Inactive)
REMARK    1  A    between atoms: N_2  and  C_4
REMARK    2  A    between atoms: C_7  and  S_8
REMARK    3  A    between atoms: S_8  and  N_11
REMARK    4  A    between atoms: C_15  and  S_16
REMARK    5  A    between atoms: S_16  and  C_17
REMARK    6  A    between atoms: C_17  and  C_18
REMARK                            x       y       z     vdW  Elec       q    Type
REMARK                         _______ _______ _______ _____ _____    ______ ____
ROOT
ATOM      1  N   UNL     1       1.964   3.666  19.538  0.00  0.00    +0.000 N 
ATOM      2  C   UNL     1       1.834   2.455  20.356  0.00  0.00    +0.000 C 
ATOM      3  C   UNL     1       2.276   2.988  21.719  0.00  0.00    +0.000 C 
ATOM      4  N   UNL     1       2.266   4.471  21.641  0.00  0.00    +0.000 NA
ATOM      5  C   UNL     1       2.157   4.768  20.386  0.00  0.00    +0.000 C 
ENDROOT
BRANCH   1   6
ATOM      6  S   UNL     1       2.337   3.475  17.924  0.00  0.00    +0.000 S 
ATOM      7  O   UNL     1       1.372   4.241  17.161  0.00  0.00    +0.000 OA
ATOM      8  O   UNL     1       2.601   2.094  17.598  0.00  0.00    +0.000 OA
BRANCH   6  12
ATOM      9  C   UNL     1       6.256   5.821  17.680  0.00  0.00    +0.000 A 
ATOM     10  C   UNL     1       5.147   6.213  16.913  0.00  0.00    +0.000 A 
ATOM     11  C   UNL     1       3.971   5.463  16.963  0.00  0.00    +0.000 A 
ATOM     12  C   UNL     1       3.905   4.322  17.771  0.00  0.00    +0.000 A 
ATOM     13  C   UNL     1       5.018   3.914  18.521  0.00  0.00    +0.000 A 
ATOM     14  C   UNL     1       6.199   4.666  18.475  0.00  0.00    +0.000 A 
BRANCH   9  16
ATOM     15  O   UNL     1       8.093   6.773  18.737  0.00  0.00    +0.000 OA
ATOM     16  N   UNL     1       7.474   6.647  17.670  0.00  0.00    +0.000 N 
ATOM     17  O   UNL     1       7.809   7.167  16.597  0.00  0.00    +0.000 OA
ENDBRANCH   9  16
ENDBRANCH   6  12
ENDBRANCH   1   6
BRANCH   5  18
ATOM     18  S   UNL     1       2.102   6.403  19.836  0.00  0.00    +0.000 S 
BRANCH  18  19
ATOM     19  C   UNL     1       1.252   7.197  21.236  0.00  0.00    +0.000 C 
BRANCH  19  20
ATOM     20  C   UNL     1       1.042   8.677  21.032  0.00  0.00    +0.000 A 
ATOM     21  C   UNL     1       1.037   9.252  19.757  0.00  0.00    +0.000 A 
ATOM     22  C   UNL     1       0.835  10.622  19.610  0.00  0.00    +0.000 A 
ATOM     23  C   UNL     1       0.641  11.384  20.751  0.00  0.00    +0.000 A 
ATOM     24  N   UNL     1       0.624  10.868  21.996  0.00  0.00    +0.000 NA
ATOM     25  C   UNL     1       0.828   9.533  22.110  0.00  0.00    +0.000 A 
ENDBRANCH  19  20
ENDBRANCH  18  19
ENDBRANCH   5  18
TORSDOF 6
ENDMDL
MODEL 2
REMARK VINA RESULT:      -7.5      1.282      1.927
REMARK  Name = 
REMARK  6 active torsions:
REMARK  status: ('A' for Active; 'I' for Inactive)
REMARK    1  A    between atoms: N_2  and  C_4
REMARK    2  A    between atoms: C_7  and  S_8
REMARK    3  A    between atoms: S_8  and  N_11
REMARK    4  A    between atoms: C_15  and  S_16
REMARK    5  A    between atoms: S_16  and  C_17
REMARK    6  A    between atoms: C_17  and  C_18
REMARK                            x       y       z     vdW  Elec       q    Type
REMARK                         _______ _______ _______ _____ _____    ______ ____
ROOT
ATOM      1  N   UNL     1       2.108   3.029  19.240  0.00  0.00    +0.000 N 
ATOM      2  C   UNL     1       1.844   2.219  20.435  0.00  0.00    +0.000 C 
ATOM      3  C   UNL     1       1.520   3.315  21.451  0.00  0.00    +0.000 C 
ATOM      4  N   UNL     1       1.280   4.569  20.692  0.00  0.00    +0.000 NA
ATOM      5  C   UNL     1       1.697   4.349  19.487  0.00  0.00    +0.000 C 
ENDROOT
BRANCH   1   6
ATOM      6  S   UNL     1       3.196   2.434  18.125  0.00  0.00    +0.000 S 
ATOM      7  O   UNL     1       2.510   2.351  16.851  0.00  0.00    +0.000 OA
ATOM      8  O   UNL     1       3.922   1.300  18.643  0.00  0.00    +0.000 OA
BRANCH   6  12
ATOM      9  C   UNL     1       6.435   5.645  17.784  0.00  0.00    +0.000 A 
ATOM     10  C   UNL     1       6.110   5.097  19.035  0.00  0.00    +0.000 A 
ATOM     11  C   UNL     1       5.089   4.150  19.132  0.00  0.00    +0.000 A 
ATOM     12  C   UNL     1       4.391   3.757  17.984  0.00  0.00    +0.000 A 
ATOM     13  C   UNL     1       4.697   4.319  16.736  0.00  0.00    +0.000 A 
ATOM     14  C   UNL     1       5.723   5.268  16.634  0.00  0.00    +0.000 A 
BRANCH   9  16
ATOM     15  O   UNL     1       7.761   7.116  16.570  0.00  0.00    +0.000 OA
ATOM     16  N   UNL     1       7.550   6.599  17.677  0.00  0.00    +0.000 N 
ATOM     17  O   UNL     1       8.211   6.830  18.699  0.00  0.00    +0.000 OA
ENDBRANCH   9  16
ENDBRANCH   6  12
ENDBRANCH   1   6
BRANCH   5  18
ATOM     18  S   UNL     1       1.603   5.553  18.254  0.00  0.00    +0.000 S 
BRANCH  18  19
ATOM     19  C   UNL     1       2.664   6.847  18.971  0.00  0.00    +0.000 C 
BRANCH  19  20
ATOM     20  C   UNL     1       1.891   8.066  19.406  0.00  0.00    +0.000 A 
ATOM     21  C   UNL     1       1.421   8.212  20.716  0.00  0.00    +0.000 A 
ATOM     22  C   UNL     1       0.714   9.356  21.080  0.00  0.00    +0.000 A 
ATOM     23  C   UNL     1       0.496  10.328  20.118  0.00  0.00    +0.000 A 
ATOM     24  N   UNL     1       0.943  10.233  18.850  0.00  0.00    +0.000 NA
ATOM     25  C   UNL     1       1.624   9.109  18.522  0.00  0.00    +0.000 A 
ENDBRANCH  19  20
ENDBRANCH  18  19
ENDBRANCH   5  18
TORSDOF 6
ENDMDL
MODEL 3
REMARK VINA RESULT:      -7.5      0.697      1.007
REMARK  Name = 
REMARK  6 active torsions:
REMARK  status: ('A' for Active; 'I' for Inactive)
REMARK    1  A    between atoms: N_2  and  C_4
REMARK    2  A    between atoms: C_7  and  S_8
REMARK    3  A    between atoms: S_8  and  N_11
REMARK    4  A    between atoms: C_15  and  S_16
REMARK    5  A    between atoms: S_16  and  C_17
REMARK    6  A    between atoms: C_17  and  C_18
REMARK                            x       y       z     vdW  Elec       q    Type
REMARK                         _______ _______ _______ _____ _____    ______ ____
ROOT
ATOM      1  N   UNL     1       2.040   3.554  19.490  0.00  0.00    +0.000 N 
ATOM      2  C   UNL     1       1.849   2.380  20.349  0.00  0.00    +0.000 C 
ATOM      3  C   UNL     1       2.206   2.969  21.714  0.00  0.00    +0.000 C 
ATOM      4  N   UNL     1       2.213   4.448  21.572  0.00  0.00    +0.000 NA
ATOM      5  C   UNL     1       2.187   4.690  20.301  0.00  0.00    +0.000 C 
ENDROOT
BRANCH   1   6
ATOM      6  S   UNL     1       2.515   3.291  17.913  0.00  0.00    +0.000 S 
ATOM      7  O   UNL     1       1.570   3.977  17.055  0.00  0.00    +0.000 OA
ATOM      8  O   UNL     1       2.847   1.906  17.681  0.00  0.00    +0.000 OA
BRANCH   6  12
ATOM      9  C   UNL     1       6.342   5.789  17.718  0.00  0.00    +0.000 A 
ATOM     10  C   UNL     1       5.359   5.921  16.724  0.00  0.00    +0.000 A 
ATOM     11  C   UNL     1       4.215   5.121  16.771  0.00  0.00    +0.000 A 
ATOM     12  C   UNL     1       4.059   4.189  17.803  0.00  0.00    +0.000 A 
ATOM     13  C   UNL     1       5.049   4.038  18.785  0.00  0.00    +0.000 A 
ATOM     14  C   UNL     1       6.196   4.841  18.742  0.00  0.00    +0.000 A 
BRANCH   9  16
ATOM     15  O   UNL     1       8.174   6.783  18.744  0.00  0.00    +0.000 OA
ATOM     16  N   UNL     1       7.517   6.674  17.698  0.00  0.00    +0.000 N 
ATOM     17  O   UNL     1       7.781   7.258  16.637  0.00  0.00    +0.000 OA
ENDBRANCH   9  16
ENDBRANCH   6  12
ENDBRANCH   1   6
BRANCH   5  18
ATOM     18  S   UNL     1       2.180   6.300  19.679  0.00  0.00    +0.000 S 
BRANCH  18  19
ATOM     19  C   UNL     1       1.420   7.192  21.072  0.00  0.00    +0.000 C 
BRANCH  19  20
ATOM     20  C   UNL     1       1.044   8.611  20.725  0.00  0.00    +0.000 A 
ATOM     21  C   UNL     1       0.414   9.453  21.647  0.00  0.00    +0.000 A 
ATOM     22  C   UNL     1       0.086  10.759  21.289  0.00  0.00    +0.000 A 
ATOM     23  C   UNL     1       0.402  11.189  20.011  0.00  0.00    +0.000 A 
ATOM     24  N   UNL     1       1.021  10.415  19.097  0.00  0.00    +0.000 NA
ATOM     25  C   UNL     1       1.324   9.148  19.471  0.00  0.00    +0.000 A 
ENDBRANCH  19  20
ENDBRANCH  18  19
ENDBRANCH   5  18
TORSDOF 6
ENDMDL
MODEL 4
REMARK VINA RESULT:      -7.4      2.397      2.904
REMARK  Name = 
REMARK  6 active torsions:
REMARK  status: ('A' for Active; 'I' for Inactive)
REMARK    1  A    between atoms: N_2  and  C_4
REMARK    2  A    between atoms: C_7  and  S_8
REMARK    3  A    between atoms: S_8  and  N_11
REMARK    4  A    between atoms: C_15  and  S_16
REMARK    5  A    between atoms: S_16  and  C_17
REMARK    6  A    between atoms: C_17  and  C_18
REMARK                            x       y       z     vdW  Elec       q    Type
REMARK                         _______ _______ _______ _____ _____    ______ ____
ROOT
ATOM      1  N   UNL     1       3.306   3.994  18.622  0.00  0.00    +0.000 N 
ATOM      2  C   UNL     1       2.719   2.651  18.699  0.00  0.00    +0.000 C 
ATOM      3  C   UNL     1       1.274   2.997  19.057  0.00  0.00    +0.000 C 
ATOM      4  N   UNL     1       1.088   4.449  18.804  0.00  0.00    +0.000 NA
ATOM      5  C   UNL     1       2.272   4.943  18.638  0.00  0.00    +0.000 C 
ENDROOT
BRANCH   1   6
ATOM      6  S   UNL     1       4.920   4.157  19.010  0.00  0.00    +0.000 S 
ATOM      7  O   UNL     1       5.352   2.910  19.607  0.00  0.00    +0.000 OA
ATOM      8  O   UNL     1       5.185   5.415  19.666  0.00  0.00    +0.000 OA
BRANCH   6  12
ATOM      9  C   UNL     1       6.822   4.651  14.879  0.00  0.00    +0.000 A 
ATOM     10  C   UNL     1       5.487   4.231  14.999  0.00  0.00    +0.000 A 
ATOM     11  C   UNL     1       4.932   4.042  16.266  0.00  0.00    +0.000 A 
ATOM     12  C   UNL     1       5.710   4.264  17.408  0.00  0.00    +0.000 A 
ATOM     13  C   UNL     1       7.049   4.662  17.293  0.00  0.00    +0.000 A 
ATOM     14  C   UNL     1       7.609   4.856  16.023  0.00  0.00    +0.000 A 
BRANCH   9  16
ATOM     15  O   UNL     1       6.924   4.260  12.592  0.00  0.00    +0.000 OA
ATOM     16  N   UNL     1       7.385   4.906  13.544  0.00  0.00    +0.000 N 
ATOM     17  O   UNL     1       8.287   5.751  13.451  0.00  0.00    +0.000 OA
ENDBRANCH   9  16
ENDBRANCH   6  12
ENDBRANCH   1   6
BRANCH   5  18
ATOM     18  S   UNL     1       2.526   6.618  18.311  0.00  0.00    +0.000 S 
BRANCH  18  19
ATOM     19  C   UNL     1       2.155   7.336  19.944  0.00  0.00    +0.000 C 
BRANCH  19  20
ATOM     20  C   UNL     1       1.352   8.609  19.856  0.00  0.00    +0.000 A 
ATOM     21  C   UNL     1       1.185   9.294  18.648  0.00  0.00    +0.000 A 
ATOM     22  C   UNL     1       0.431  10.465  18.608  0.00  0.00    +0.000 A 
ATOM     23  C   UNL     1      -0.140  10.920  19.785  0.00  0.00    +0.000 A 
ATOM     24  N   UNL     1      -0.015  10.283  20.967  0.00  0.00    +0.000 NA
ATOM     25  C   UNL     1       0.727   9.149  20.978  0.00  0.00    +0.000 A 
ENDBRANCH  19  20
ENDBRANCH  18  19
ENDBRANCH   5  18
TORSDOF 6
ENDMDL
MODEL 5
REMARK VINA RESULT:      -7.3      1.399      1.719
REMARK  Name = 
REMARK  6 active torsions:
REMARK  status: ('A' for Active; 'I' for Inactive)
REMARK    1  A    between atoms: N_2  and  C_4
REMARK    2  A    between atoms: C_7  and  S_8
REMARK    3  A    between atoms: S_8  and  N_11
REMARK    4  A    between atoms: C_15  and  S_16
REMARK    5  A    between atoms: S_16  and  C_17
REMARK    6  A    between atoms: C_17  and  C_18
REMARK                            x       y       z     vdW  Elec       q    Type
REMARK                         _______ _______ _______ _____ _____    ______ ____
ROOT
ATOM      1  N   UNL     1       2.271   3.220  19.524  0.00  0.00    +0.000 N 
ATOM      2  C   UNL     1       2.138   2.649  20.869  0.00  0.00    +0.000 C 
ATOM      3  C   UNL     1       2.248   3.913  21.723  0.00  0.00    +0.000 C 
ATOM      4  N   UNL     1       2.074   5.077  20.818  0.00  0.00    +0.000 NA
ATOM      5  C   UNL     1       2.167   4.618  19.612  0.00  0.00    +0.000 C 
ENDROOT
BRANCH   1   6
ATOM      6  S   UNL     1       2.961   2.267  18.342  0.00  0.00    +0.000 S 
ATOM      7  O   UNL     1       2.012   2.171  17.252  0.00  0.00    +0.000 OA
ATOM      8  O   UNL     1       3.561   1.079  18.899  0.00  0.00    +0.000 OA
BRANCH   6  12
ATOM      9  C   UNL     1       6.274   5.028  16.818  0.00  0.00    +0.000 A 
ATOM     10  C   UNL     1       5.373   4.440  15.916  0.00  0.00    +0.000 A 
ATOM     11  C   UNL     1       4.393   3.564  16.390  0.00  0.00    +0.000 A 
ATOM     12  C   UNL     1       4.320   3.273  17.757  0.00  0.00    +0.000 A 
ATOM     13  C   UNL     1       5.233   3.841  18.657  0.00  0.00    +0.000 A 
ATOM     14  C   UNL     1       6.215   4.722  18.186  0.00  0.00    +0.000 A 
BRANCH   9  16
ATOM     15  O   UNL     1       7.740   5.807  15.193  0.00  0.00    +0.000 OA
ATOM     16  N   UNL     1       7.266   5.995  16.324  0.00  0.00    +0.000 N 
ATOM     17  O   UNL     1       7.570   6.940  17.066  0.00  0.00    +0.000 OA
ENDBRANCH   9  16
ENDBRANCH   6  12
ENDBRANCH   1   6
BRANCH   5  18
ATOM     18  S   UNL     1       2.018   5.640  18.230  0.00  0.00    +0.000 S 
BRANCH  18  19
ATOM     19  C   UNL     1       2.848   7.144  18.838  0.00  0.00    +0.000 C 
BRANCH  19  20
ATOM     20  C   UNL     1       1.897   8.297  19.039  0.00  0.00    +0.000 A 
ATOM     21  C   UNL     1       1.455   9.083  17.970  0.00  0.00    +0.000 A 
ATOM     22  C   UNL     1       0.573  10.138  18.197  0.00  0.00    +0.000 A 
ATOM     23  C   UNL     1       0.155  10.376  19.496  0.00  0.00    +0.000 A 
ATOM     24  N   UNL     1       0.545   9.635  20.552  0.00  0.00    +0.000 NA
ATOM     25  C   UNL     1       1.406   8.619  20.303  0.00  0.00    +0.000 A 
ENDBRANCH  19  20
ENDBRANCH  18  19
ENDBRANCH   5  18
TORSDOF 6
ENDMDL
MODEL 6
REMARK VINA RESULT:      -7.3      2.263      2.818
REMARK  Name = 
REMARK  6 active torsions:
REMARK  status: ('A' for Active; 'I' for Inactive)
REMARK    1  A    between atoms: N_2  and  C_4
REMARK    2  A    between atoms: C_7  and  S_8
REMARK    3  A    between atoms: S_8  and  N_11
REMARK    4  A    between atoms: C_15  and  S_16
REMARK    5  A    between atoms: S_16  and  C_17
REMARK    6  A    between atoms: C_17  and  C_18
REMARK                            x       y       z     vdW  Elec       q    Type
REMARK                         _______ _______ _______ _____ _____    ______ ____
ROOT
ATOM      1  N   UNL     1       3.312   4.098  18.894  0.00  0.00    +0.000 N 
ATOM      2  C   UNL     1       2.700   2.775  18.730  0.00  0.00    +0.000 C 
ATOM      3  C   UNL     1       1.320   3.026  19.337  0.00  0.00    +0.000 C 
ATOM      4  N   UNL     1       1.146   4.496  19.454  0.00  0.00    +0.000 NA
ATOM      5  C   UNL     1       2.315   5.017  19.260  0.00  0.00    +0.000 C 
ENDROOT
BRANCH   1   6
ATOM      6  S   UNL     1       4.965   4.168  19.104  0.00  0.00    +0.000 S 
ATOM      7  O   UNL     1       5.412   2.840  19.473  0.00  0.00    +0.000 OA
ATOM      8  O   UNL     1       5.354   5.317  19.886  0.00  0.00    +0.000 OA
BRANCH   6  12
ATOM      9  C   UNL     1       6.649   4.749  14.891  0.00  0.00    +0.000 A 
ATOM     10  C   UNL     1       7.413   5.103  16.014  0.00  0.00    +0.000 A 
ATOM     11  C   UNL     1       6.871   4.962  17.293  0.00  0.00    +0.000 A 
ATOM     12  C   UNL     1       5.568   4.475  17.448  0.00  0.00    +0.000 A 
ATOM     13  C   UNL     1       4.793   4.143  16.328  0.00  0.00    +0.000 A 
ATOM     14  C   UNL     1       5.335   4.280  15.043  0.00  0.00    +0.000 A 
BRANCH   9  16
ATOM     15  O   UNL     1       8.164   5.658  13.384  0.00  0.00    +0.000 OA
ATOM     16  N   UNL     1       7.244   4.844  13.549  0.00  0.00    +0.000 N 
ATOM     17  O   UNL     1       6.792   4.104  12.664  0.00  0.00    +0.000 OA
ENDBRANCH   9  16
ENDBRANCH   6  12
ENDBRANCH   1   6
BRANCH   5  18
ATOM     18  S   UNL     1       2.574   6.722  19.303  0.00  0.00    +0.000 S 
BRANCH  18  19
ATOM     19  C   UNL     1       1.459   7.195  20.663  0.00  0.00    +0.000 C 
BRANCH  19  20
ATOM     20  C   UNL     1       1.185   8.677  20.709  0.00  0.00    +0.000 A 
ATOM     21  C   UNL     1       0.954   9.421  19.547  0.00  0.00    +0.000 A 
ATOM     22  C   UNL     1       0.701  10.788  19.633  0.00  0.00    +0.000 A 
ATOM     23  C   UNL     1       0.684  11.376  20.887  0.00  0.00    +0.000 A 
ATOM     24  N   UNL     1       0.888  10.694  22.032  0.00  0.00    +0.000 NA
ATOM     25  C   UNL     1       1.136   9.367  21.918  0.00  0.00    +0.000 A 
ENDBRANCH  19  20
ENDBRANCH  18  19
ENDBRANCH   5  18
TORSDOF 6
ENDMDL
MODEL 7
REMARK VINA RESULT:      -7.3      2.403      3.056
REMARK  Name = 
REMARK  6 active torsions:
REMARK  status: ('A' for Active; 'I' for Inactive)
REMARK    1  A    between atoms: N_2  and  C_4
REMARK    2  A    between atoms: C_7  and  S_8
REMARK    3  A    between atoms: S_8  and  N_11
REMARK    4  A    between atoms: C_15  and  S_16
REMARK    5  A    between atoms: S_16  and  C_17
REMARK    6  A    between atoms: C_17  and  C_18
REMARK                            x       y       z     vdW  Elec       q    Type
REMARK                         _______ _______ _______ _____ _____    ______ ____
ROOT
ATOM      1  N   UNL     1       3.220   3.939  18.706  0.00  0.00    +0.000 N 
ATOM      2  C   UNL     1       2.877   2.726  17.955  0.00  0.00    +0.000 C 
ATOM      3  C   UNL     1       1.472   2.452  18.491  0.00  0.00    +0.000 C 
ATOM      4  N   UNL     1       1.017   3.679  19.193  0.00  0.00    +0.000 NA
ATOM      5  C   UNL     1       2.063   4.426  19.334  0.00  0.00    +0.000 C 
ENDROOT
BRANCH   1   6
ATOM      6  S   UNL     1       4.828   4.199  19.065  0.00  0.00    +0.000 S 
ATOM      7  O   UNL     1       5.384   2.938  19.511  0.00  0.00    +0.000 OA
ATOM      8  O   UNL     1       5.011   5.399  19.847  0.00  0.00    +0.000 OA
BRANCH   6  12
ATOM      9  C   UNL     1       6.710   4.836  14.946  0.00  0.00    +0.000 A 
ATOM     10  C   UNL     1       7.523   4.612  16.068  0.00  0.00    +0.000 A 
ATOM     11  C   UNL     1       6.938   4.463  17.327  0.00  0.00    +0.000 A 
ATOM     12  C   UNL     1       5.548   4.545  17.465  0.00  0.00    +0.000 A 
ATOM     13  C   UNL     1       4.734   4.791  16.349  0.00  0.00    +0.000 A 
ATOM     14  C   UNL     1       5.317   4.938  15.084  0.00  0.00    +0.000 A 
BRANCH   9  16
ATOM     15  O   UNL     1       8.273   5.721  13.472  0.00  0.00    +0.000 OA
ATOM     16  N   UNL     1       7.325   4.934  13.613  0.00  0.00    +0.000 N 
ATOM     17  O   UNL     1       6.860   4.224  12.710  0.00  0.00    +0.000 OA
ENDBRANCH   9  16
ENDBRANCH   6  12
ENDBRANCH   1   6
BRANCH   5  18
ATOM     18  S   UNL     1       1.988   5.969  20.104  0.00  0.00    +0.000 S 
BRANCH  18  19
ATOM     19  C   UNL     1       2.284   7.066  18.681  0.00  0.00    +0.000 C 
BRANCH  19  20
ATOM     20  C   UNL     1       1.838   8.485  18.932  0.00  0.00    +0.000 A 
ATOM     21  C   UNL     1       1.969   9.481  17.958  0.00  0.00    +0.000 A 
ATOM     22  C   UNL     1       1.541  10.779  18.227  0.00  0.00    +0.000 A 
ATOM     23  C   UNL     1       0.988  11.046  19.469  0.00  0.00    +0.000 A 
ATOM     24  N   UNL     1       0.831  10.112  20.429  0.00  0.00    +0.000 NA
ATOM     25  C   UNL     1       1.260   8.860  20.142  0.00  0.00    +0.000 A 
ENDBRANCH  19  20
ENDBRANCH  18  19
ENDBRANCH   5  18
TORSDOF 6
ENDMDL
MODEL 8
REMARK VINA RESULT:      -7.3      0.778      1.234
REMARK  Name = 
REMARK  6 active torsions:
REMARK  status: ('A' for Active; 'I' for Inactive)
REMARK    1  A    between atoms: N_2  and  C_4
REMARK    2  A    between atoms: C_7  and  S_8
REMARK    3  A    between atoms: S_8  and  N_11
REMARK    4  A    between atoms: C_15  and  S_16
REMARK    5  A    between atoms: S_16  and  C_17
REMARK    6  A    between atoms: C_17  and  C_18
REMARK                            x       y       z     vdW  Elec       q    Type
REMARK                         _______ _______ _______ _____ _____    ______ ____
ROOT
ATOM      1  N   UNL     1       2.238   3.376  19.334  0.00  0.00    +0.000 N 
ATOM      2  C   UNL     1       1.988   2.270  20.264  0.00  0.00    +0.000 C 
ATOM      3  C   UNL     1       1.938   3.025  21.592  0.00  0.00    +0.000 C 
ATOM      4  N   UNL     1       1.805   4.471  21.277  0.00  0.00    +0.000 NA
ATOM      5  C   UNL     1       2.054   4.591  20.013  0.00  0.00    +0.000 C 
ENDROOT
BRANCH   1   6
ATOM      6  S   UNL     1       3.102   3.042  17.946  0.00  0.00    +0.000 S 
ATOM      7  O   UNL     1       2.235   3.316  16.818  0.00  0.00    +0.000 OA
ATOM      8  O   UNL     1       3.802   1.784  18.045  0.00  0.00    +0.000 OA
BRANCH   6  12
ATOM      9  C   UNL     1       6.504   6.098  17.894  0.00  0.00    +0.000 A 
ATOM     10  C   UNL     1       6.314   5.271  19.012  0.00  0.00    +0.000 A 
ATOM     11  C   UNL     1       5.245   4.372  19.034  0.00  0.00    +0.000 A 
ATOM     12  C   UNL     1       4.366   4.307  17.945  0.00  0.00    +0.000 A 
ATOM     13  C   UNL     1       4.540   5.149  16.837  0.00  0.00    +0.000 A 
ATOM     14  C   UNL     1       5.614   6.049  16.810  0.00  0.00    +0.000 A 
BRANCH   9  16
ATOM     15  O   UNL     1       8.432   7.002  18.825  0.00  0.00    +0.000 OA
ATOM     16  N   UNL     1       7.665   7.001  17.850  0.00  0.00    +0.000 N 
ATOM     17  O   UNL     1       7.809   7.707  16.841  0.00  0.00    +0.000 OA
ENDBRANCH   9  16
ENDBRANCH   6  12
ENDBRANCH   1   6
BRANCH   5  18
ATOM     18  S   UNL     1       2.006   6.120  19.214  0.00  0.00    +0.000 S 
BRANCH  18  19
ATOM     19  C   UNL     1       1.646   7.219  20.621  0.00  0.00    +0.000 C 
BRANCH  19  20
ATOM     20  C   UNL     1       1.379   8.643  20.200  0.00  0.00    +0.000 A 
ATOM     21  C   UNL     1       1.560   9.067  18.879  0.00  0.00    +0.000 A 
ATOM     22  C   UNL     1       1.298  10.390  18.529  0.00  0.00    +0.000 A 
ATOM     23  C   UNL     1       0.859  11.256  19.516  0.00  0.00    +0.000 A 
ATOM     24  N   UNL     1       0.659  10.885  20.797  0.00  0.00    +0.000 NA
ATOM     25  C   UNL     1       0.925   9.594  21.110  0.00  0.00    +0.000 A 
ENDBRANCH  19  20
ENDBRANCH  18  19
ENDBRANCH   5  18
TORSDOF 6
ENDMDL
MODEL 9
REMARK VINA RESULT:      -7.2      1.162      1.290
REMARK  Name = 
REMARK  6 active torsions:
REMARK  status: ('A' for Active; 'I' for Inactive)
REMARK    1  A    between atoms: N_2  and  C_4
REMARK    2  A    between atoms: C_7  and  S_8
REMARK    3  A    between atoms: S_8  and  N_11
REMARK    4  A    between atoms: C_15  and  S_16
REMARK    5  A    between atoms: S_16  and  C_17
REMARK    6  A    between atoms: C_17  and  C_18
REMARK                            x       y       z     vdW  Elec       q    Type
REMARK                         _______ _______ _______ _____ _____    ______ ____
ROOT
ATOM      1  N   UNL     1       1.599   3.811  19.637  0.00  0.00    +0.000 N 
ATOM      2  C   UNL     1       1.343   2.735  20.601  0.00  0.00    +0.000 C 
ATOM      3  C   UNL     1       2.031   3.301  21.843  0.00  0.00    +0.000 C 
ATOM      4  N   UNL     1       2.287   4.742  21.592  0.00  0.00    +0.000 NA
ATOM      5  C   UNL     1       2.091   4.931  20.327  0.00  0.00    +0.000 C 
ENDROOT
BRANCH   1   6
ATOM      6  S   UNL     1       1.741   3.394  18.028  0.00  0.00    +0.000 S 
ATOM      7  O   UNL     1       0.969   4.351  17.261  0.00  0.00    +0.000 OA
ATOM      8  O   UNL     1       1.560   1.976  17.828  0.00  0.00    +0.000 OA
BRANCH   6  12
ATOM      9  C   UNL     1       6.097   4.475  17.148  0.00  0.00    +0.000 A 
ATOM     10  C   UNL     1       5.125   4.577  16.140  0.00  0.00    +0.000 A 
ATOM     11  C   UNL     1       3.807   4.202  16.409  0.00  0.00    +0.000 A 
ATOM     12  C   UNL     1       3.465   3.720  17.678  0.00  0.00    +0.000 A 
ATOM     13  C   UNL     1       4.437   3.595  18.680  0.00  0.00    +0.000 A 
ATOM     14  C   UNL     1       5.760   3.973  18.415  0.00  0.00    +0.000 A 
BRANCH   9  16
ATOM     15  O   UNL     1       7.618   5.954  16.201  0.00  0.00    +0.000 OA
ATOM     16  N   UNL     1       7.472   4.925  16.879  0.00  0.00    +0.000 N 
ATOM     17  O   UNL     1       8.401   4.252  17.345  0.00  0.00    +0.000 OA
ENDBRANCH   9  16
ENDBRANCH   6  12
ENDBRANCH   1   6
BRANCH   5  18
ATOM     18  S   UNL     1       2.276   6.483  19.595  0.00  0.00    +0.000 S 
BRANCH  18  19
ATOM     19  C   UNL     1       1.546   7.546  20.880  0.00  0.00    +0.000 C 
BRANCH  19  20
ATOM     20  C   UNL     1       0.985   8.833  20.328  0.00  0.00    +0.000 A 
ATOM     21  C   UNL     1       1.316   9.292  19.048  0.00  0.00    +0.000 A 
ATOM     22  C   UNL     1       0.773  10.484  18.573  0.00  0.00    +0.000 A 
ATOM     23  C   UNL     1      -0.091  11.187  19.395  0.00  0.00    +0.000 A 
ATOM     24  N   UNL     1      -0.446  10.773  20.629  0.00  0.00    +0.000 NA
ATOM     25  C   UNL     1       0.099   9.613  21.067  0.00  0.00    +0.000 A 
ENDBRANCH  19  20
ENDBRANCH  18  19
ENDBRANCH   5  18
TORSDOF 6
ENDMDL
