MODEL 1
REMARK VINA RESULT:      -7.5      0.000      0.000
REMARK  Name = 
REMARK  10 active torsions:
REMARK  status: ('A' for Active; 'I' for Inactive)
REMARK    1  A    between atoms: C_1  and  C_2
REMARK    2  A    between atoms: C_2  and  O_3
REMARK    3  A    between atoms: O_3  and  C_4
REMARK    4  A    between atoms: C_4  and  C_6
REMARK    5  A    between atoms: C_10  and  C_12
REMARK    6  A    between atoms: C_12  and  C_13
REMARK    7  A    between atoms: C_12  and  S_14
REMARK    8  A    between atoms: S_14  and  C_15
REMARK    9  A    between atoms: C_20  and  O_21
REMARK   10  A    between atoms: C_24  and  C_25
REMARK                            x       y       z     vdW  Elec       q    Type
REMARK                         _______ _______ _______ _____ _____    ______ ____
ROOT
ATOM      1  C   UNL     1      -0.040  10.495  20.294  0.00  0.00    +0.000 A 
ATOM      2  S   UNL     1       0.833   9.337  19.386  0.00  0.00    +0.000 S 
ATOM      3  C   UNL     1       1.113   8.431  20.791  0.00  0.00    +0.000 A 
ATOM      4  N   UNL     1       1.779   7.234  20.761  0.00  0.00    +0.000 N 
ATOM      5  C   UNL     1       2.536   6.751  19.712  0.00  0.00    +0.000 C 
ATOM      6  O   UNL     1       2.838   7.368  18.691  0.00  0.00    +0.000 OA
ATOM      7  N   UNL     1       0.599   8.914  21.896  0.00  0.00    +0.000 NA
ATOM      8  C   UNL     1      -0.037  10.123  21.631  0.00  0.00    +0.000 A 
ATOM      9  C   UNL     1      -0.664  10.861  22.763  0.00  0.00    +0.000 C 
ATOM     10  H   UNL     1       1.717   6.711  21.624  0.00  0.00    +0.000 HD
ENDROOT
BRANCH   1  11
ATOM     11  C   UNL     1      -0.696  11.621  19.671  0.00  0.00    +0.000 C 
ATOM     12  O   UNL     1      -0.306  12.782  19.720  0.00  0.00    +0.000 OA
BRANCH  11  13
ATOM     13  O   UNL     1      -1.879  11.235  19.112  0.00  0.00    +0.000 OA
BRANCH  13  15
ATOM     14  C   UNL     1      -2.383   9.988  17.138  0.00  0.00    +0.000 C 
ATOM     15  C   UNL     1      -1.966  11.340  17.687  0.00  0.00    +0.000 C 
ENDBRANCH  13  15
ENDBRANCH  11  13
ENDBRANCH   1  11
BRANCH   5  16
ATOM     16  C   UNL     1       3.126   5.361  19.951  0.00  0.00    +0.000 C 
ATOM     17  C   UNL     1       2.202   4.556  20.866  0.00  0.00    +0.000 C 
BRANCH  16  18
ATOM     18  S   UNL     1       3.379   4.452  18.385  0.00  0.00    +0.000 S 
BRANCH  18  19
ATOM     19  C   UNL     1       5.140   4.616  18.185  0.00  0.00    +0.000 A 
ATOM     20  N   UNL     1       5.879   4.935  19.256  0.00  0.00    +0.000 NA
ATOM     21  C   UNL     1       7.190   5.122  19.055  0.00  0.00    +0.000 A 
ATOM     22  N   UNL     1       7.950   5.483  20.166  0.00  0.00    +0.000 N 
ATOM     23  C   UNL     1       7.775   5.024  17.816  0.00  0.00    +0.000 A 
ATOM     24  C   UNL     1       6.925   4.689  16.793  0.00  0.00    +0.000 A 
ATOM     25  N   UNL     1       5.616   4.480  16.942  0.00  0.00    +0.000 NA
ATOM     26  H   UNL     1       7.342   5.436  20.984  0.00  0.00    +0.000 HD
ATOM     27  H   UNL     1       8.774   4.905  20.284  0.00  0.00    +0.000 HD
BRANCH  24  28
ATOM     28  O   UNL     1       7.380   4.563  15.511  0.00  0.00    +0.000 OA
ATOM     29  H   UNL     1       6.798   5.063  14.923  0.00  0.00    +0.000 HD
ENDBRANCH  24  28
ENDBRANCH  18  19
ENDBRANCH  16  18
ENDBRANCH   5  16
TORSDOF 7
ENDMDL
MODEL 2
REMARK VINA RESULT:      -7.4      1.775      2.324
REMARK  Name = 
REMARK  10 active torsions:
REMARK  status: ('A' for Active; 'I' for Inactive)
REMARK    1  A    between atoms: C_1  and  C_2
REMARK    2  A    between atoms: C_2  and  O_3
REMARK    3  A    between atoms: O_3  and  C_4
REMARK    4  A    between atoms: C_4  and  C_6
REMARK    5  A    between atoms: C_10  and  C_12
REMARK    6  A    between atoms: C_12  and  C_13
REMARK    7  A    between atoms: C_12  and  S_14
REMARK    8  A    between atoms: S_14  and  C_15
REMARK    9  A    between atoms: C_20  and  O_21
REMARK   10  A    between atoms: C_24  and  C_25
REMARK                            x       y       z     vdW  Elec       q    Type
REMARK                         _______ _______ _______ _____ _____    ______ ____
ROOT
ATOM      1  C   UNL     1       0.114  10.424  20.242  0.00  0.00    +0.000 A 
ATOM      2  S   UNL     1       0.978   9.240  19.357  0.00  0.00    +0.000 S 
ATOM      3  C   UNL     1       1.199   8.331  20.770  0.00  0.00    +0.000 A 
ATOM      4  N   UNL     1       1.833   7.116  20.758  0.00  0.00    +0.000 N 
ATOM      5  C   UNL     1       2.603   6.610  19.729  0.00  0.00    +0.000 C 
ATOM      6  O   UNL     1       2.945   7.216  18.713  0.00  0.00    +0.000 OA
ATOM      7  N   UNL     1       0.672   8.830  21.861  0.00  0.00    +0.000 NA
ATOM      8  C   UNL     1       0.075  10.055  21.579  0.00  0.00    +0.000 A 
ATOM      9  C   UNL     1      -0.558  10.812  22.694  0.00  0.00    +0.000 C 
ATOM     10  H   UNL     1       1.737   6.597  21.621  0.00  0.00    +0.000 HD
ENDROOT
BRANCH   1  11
ATOM     11  C   UNL     1      -0.497  11.565  19.601  0.00  0.00    +0.000 C 
ATOM     12  O   UNL     1      -1.628  11.980  19.825  0.00  0.00    +0.000 OA
BRANCH  11  13
ATOM     13  O   UNL     1       0.318  12.056  18.622  0.00  0.00    +0.000 OA
BRANCH  13  15
ATOM     14  C   UNL     1       2.425  13.127  18.281  0.00  0.00    +0.000 C 
ATOM     15  C   UNL     1       1.069  13.227  18.957  0.00  0.00    +0.000 C 
ENDBRANCH  13  15
ENDBRANCH  11  13
ENDBRANCH   1  11
BRANCH   5  16
ATOM     16  C   UNL     1       3.149   5.206  19.984  0.00  0.00    +0.000 C 
ATOM     17  C   UNL     1       2.008   4.270  20.384  0.00  0.00    +0.000 C 
BRANCH  16  18
ATOM     18  S   UNL     1       4.006   4.532  18.516  0.00  0.00    +0.000 S 
BRANCH  18  19
ATOM     19  C   UNL     1       5.595   5.318  18.668  0.00  0.00    +0.000 A 
ATOM     20  N   UNL     1       6.033   6.078  17.654  0.00  0.00    +0.000 NA
ATOM     21  C   UNL     1       7.263   6.595  17.771  0.00  0.00    +0.000 A 
ATOM     22  N   UNL     1       7.727   7.358  16.701  0.00  0.00    +0.000 N 
ATOM     23  C   UNL     1       8.072   6.355  18.855  0.00  0.00    +0.000 A 
ATOM     24  C   UNL     1       7.521   5.569  19.833  0.00  0.00    +0.000 A 
ATOM     25  N   UNL     1       6.298   5.040  19.772  0.00  0.00    +0.000 NA
ATOM     26  H   UNL     1       6.956   7.463  16.040  0.00  0.00    +0.000 HD
ATOM     27  H   UNL     1       8.092   8.258  16.989  0.00  0.00    +0.000 HD
BRANCH  24  28
ATOM     28  O   UNL     1       8.223   5.253  20.962  0.00  0.00    +0.000 OA
ATOM     29  H   UNL     1       8.293   4.290  21.025  0.00  0.00    +0.000 HD
ENDBRANCH  24  28
ENDBRANCH  18  19
ENDBRANCH  16  18
ENDBRANCH   5  16
TORSDOF 7
ENDMDL
MODEL 3
REMARK VINA RESULT:      -7.4      1.121      1.132
REMARK  Name = 
REMARK  10 active torsions:
REMARK  status: ('A' for Active; 'I' for Inactive)
REMARK    1  A    between atoms: C_1  and  C_2
REMARK    2  A    between atoms: C_2  and  O_3
REMARK    3  A    between atoms: O_3  and  C_4
REMARK    4  A    between atoms: C_4  and  C_6
REMARK    5  A    between atoms: C_10  and  C_12
REMARK    6  A    between atoms: C_12  and  C_13
REMARK    7  A    between atoms: C_12  and  S_14
REMARK    8  A    between atoms: S_14  and  C_15
REMARK    9  A    between atoms: C_20  and  O_21
REMARK   10  A    between atoms: C_24  and  C_25
REMARK                            x       y       z     vdW  Elec       q    Type
REMARK                         _______ _______ _______ _____ _____    ______ ____
ROOT
ATOM      1  C   UNL     1       0.039  10.549  19.933  0.00  0.00    +0.000 A 
ATOM      2  S   UNL     1       0.933   9.359  19.087  0.00  0.00    +0.000 S 
ATOM      3  C   UNL     1       1.187   8.509  20.531  0.00  0.00    +0.000 A 
ATOM      4  N   UNL     1       1.856   7.313  20.560  0.00  0.00    +0.000 N 
ATOM      5  C   UNL     1       2.635   6.793  19.546  0.00  0.00    +0.000 C 
ATOM      6  O   UNL     1       2.955   7.371  18.507  0.00  0.00    +0.000 OA
ATOM      7  N   UNL     1       0.650   9.031  21.606  0.00  0.00    +0.000 NA
ATOM      8  C   UNL     1       0.017  10.228  21.283  0.00  0.00    +0.000 A 
ATOM      9  C   UNL     1      -0.633  11.007  22.373  0.00  0.00    +0.000 C 
ATOM     10  H   UNL     1       1.778   6.823  21.441  0.00  0.00    +0.000 HD
ENDROOT
BRANCH   1  11
ATOM     11  C   UNL     1      -0.606  11.649  19.255  0.00  0.00    +0.000 C 
ATOM     12  O   UNL     1      -0.720  12.784  19.700  0.00  0.00    +0.000 OA
BRANCH  11  13
ATOM     13  O   UNL     1      -1.178  11.222  18.091  0.00  0.00    +0.000 OA
BRANCH  13  15
ATOM     14  C   UNL     1      -3.072   9.842  17.625  0.00  0.00    +0.000 C 
ATOM     15  C   UNL     1      -2.609  11.223  18.056  0.00  0.00    +0.000 C 
ENDBRANCH  13  15
ENDBRANCH  11  13
ENDBRANCH   1  11
BRANCH   5  16
ATOM     16  C   UNL     1       3.223   5.414  19.849  0.00  0.00    +0.000 C 
ATOM     17  C   UNL     1       2.123   4.483  20.361  0.00  0.00    +0.000 C 
BRANCH  16  18
ATOM     18  S   UNL     1       4.014   4.673  18.376  0.00  0.00    +0.000 S 
BRANCH  18  19
ATOM     19  C   UNL     1       5.650   5.362  18.495  0.00  0.00    +0.000 A 
ATOM     20  N   UNL     1       6.428   4.991  19.522  0.00  0.00    +0.000 NA
ATOM     21  C   UNL     1       7.626   5.583  19.621  0.00  0.00    +0.000 A 
ATOM     22  N   UNL     1       8.418   5.217  20.707  0.00  0.00    +0.000 N 
ATOM     23  C   UNL     1       8.055   6.547  18.742  0.00  0.00    +0.000 A 
ATOM     24  C   UNL     1       7.181   6.845  17.728  0.00  0.00    +0.000 A 
ATOM     25  N   UNL     1       5.983   6.277  17.577  0.00  0.00    +0.000 NA
ATOM     26  H   UNL     1       7.946   4.452  21.190  0.00  0.00    +0.000 HD
ATOM     27  H   UNL     1       9.360   4.959  20.437  0.00  0.00    +0.000 HD
BRANCH  24  28
ATOM     28  O   UNL     1       7.486   7.789  16.789  0.00  0.00    +0.000 OA
ATOM     29  H   UNL     1       6.663   8.174  16.455  0.00  0.00    +0.000 HD
ENDBRANCH  24  28
ENDBRANCH  18  19
ENDBRANCH  16  18
ENDBRANCH   5  16
TORSDOF 7
ENDMDL
MODEL 4
REMARK VINA RESULT:      -7.3      1.332      1.794
REMARK  Name = 
REMARK  10 active torsions:
REMARK  status: ('A' for Active; 'I' for Inactive)
REMARK    1  A    between atoms: C_1  and  C_2
REMARK    2  A    between atoms: C_2  and  O_3
REMARK    3  A    between atoms: O_3  and  C_4
REMARK    4  A    between atoms: C_4  and  C_6
REMARK    5  A    between atoms: C_10  and  C_12
REMARK    6  A    between atoms: C_12  and  C_13
REMARK    7  A    between atoms: C_12  and  S_14
REMARK    8  A    between atoms: S_14  and  C_15
REMARK    9  A    between atoms: C_20  and  O_21
REMARK   10  A    between atoms: C_24  and  C_25
REMARK                            x       y       z     vdW  Elec       q    Type
REMARK                         _______ _______ _______ _____ _____    ______ ____
ROOT
ATOM      1  C   UNL     1      -0.377  11.017  19.952  0.00  0.00    +0.000 A 
ATOM      2  S   UNL     1       0.522   9.831  19.105  0.00  0.00    +0.000 S 
ATOM      3  C   UNL     1       0.821   9.008  20.556  0.00  0.00    +0.000 A 
ATOM      4  N   UNL     1       1.513   7.825  20.588  0.00  0.00    +0.000 N 
ATOM      5  C   UNL     1       2.280   7.304  19.566  0.00  0.00    +0.000 C 
ATOM      6  O   UNL     1       2.568   7.872  18.512  0.00  0.00    +0.000 OA
ATOM      7  N   UNL     1       0.297   9.536  21.634  0.00  0.00    +0.000 NA
ATOM      8  C   UNL     1      -0.365  10.716  21.307  0.00  0.00    +0.000 A 
ATOM      9  C   UNL     1      -1.007  11.499  22.399  0.00  0.00    +0.000 C 
ATOM     10  H   UNL     1       1.463   7.347  21.478  0.00  0.00    +0.000 HD
ENDROOT
BRANCH   1  11
ATOM     11  C   UNL     1      -1.057  12.094  19.271  0.00  0.00    +0.000 C 
ATOM     12  O   UNL     1      -1.406  13.148  19.789  0.00  0.00    +0.000 OA
BRANCH  11  13
ATOM     13  O   UNL     1      -1.363  11.732  17.991  0.00  0.00    +0.000 OA
BRANCH  13  15
ATOM     14  C   UNL     1      -2.980  10.003  17.675  0.00  0.00    +0.000 C 
ATOM     15  C   UNL     1      -2.748  11.503  17.716  0.00  0.00    +0.000 C 
ENDBRANCH  13  15
ENDBRANCH  11  13
ENDBRANCH   1  11
BRANCH   5  16
ATOM     16  C   UNL     1       2.900   5.942  19.877  0.00  0.00    +0.000 C 
ATOM     17  C   UNL     1       1.950   5.129  20.756  0.00  0.00    +0.000 C 
BRANCH  16  18
ATOM     18  S   UNL     1       3.276   5.002  18.354  0.00  0.00    +0.000 S 
BRANCH  18  19
ATOM     19  C   UNL     1       5.021   5.314  18.192  0.00  0.00    +0.000 A 
ATOM     20  N   UNL     1       5.536   5.447  16.963  0.00  0.00    +0.000 NA
ATOM     21  C   UNL     1       6.863   5.608  16.874  0.00  0.00    +0.000 A 
ATOM     22  N   UNL     1       7.399   5.715  15.593  0.00  0.00    +0.000 N 
ATOM     23  C   UNL     1       7.687   5.617  17.974  0.00  0.00    +0.000 A 
ATOM     24  C   UNL     1       7.052   5.478  19.181  0.00  0.00    +0.000 A 
ATOM     25  N   UNL     1       5.735   5.327  19.324  0.00  0.00    +0.000 NA
ATOM     26  H   UNL     1       6.619   5.750  14.935  0.00  0.00    +0.000 HD
ATOM     27  H   UNL     1       8.009   6.517  15.486  0.00  0.00    +0.000 HD
BRANCH  24  28
ATOM     28  O   UNL     1       7.757   5.467  20.351  0.00  0.00    +0.000 OA
ATOM     29  H   UNL     1       8.128   4.583  20.483  0.00  0.00    +0.000 HD
ENDBRANCH  24  28
ENDBRANCH  18  19
ENDBRANCH  16  18
ENDBRANCH   5  16
TORSDOF 7
ENDMDL
MODEL 5
REMARK VINA RESULT:      -7.2      1.748      2.358
REMARK  Name = 
REMARK  10 active torsions:
REMARK  status: ('A' for Active; 'I' for Inactive)
REMARK    1  A    between atoms: C_1  and  C_2
REMARK    2  A    between atoms: C_2  and  O_3
REMARK    3  A    between atoms: O_3  and  C_4
REMARK    4  A    between atoms: C_4  and  C_6
REMARK    5  A    between atoms: C_10  and  C_12
REMARK    6  A    between atoms: C_12  and  C_13
REMARK    7  A    between atoms: C_12  and  S_14
REMARK    8  A    between atoms: S_14  and  C_15
REMARK    9  A    between atoms: C_20  and  O_21
REMARK   10  A    between atoms: C_24  and  C_25
REMARK                            x       y       z     vdW  Elec       q    Type
REMARK                         _______ _______ _______ _____ _____    ______ ____
ROOT
ATOM      1  C   UNL     1       1.125   9.212  20.091  0.00  0.00    +0.000 A 
ATOM      2  S   UNL     1       1.381   7.670  20.788  0.00  0.00    +0.000 S 
ATOM      3  C   UNL     1       2.276   7.194  19.430  0.00  0.00    +0.000 A 
ATOM      4  N   UNL     1       2.875   5.964  19.350  0.00  0.00    +0.000 N 
ATOM      5  C   UNL     1       2.617   4.881  20.167  0.00  0.00    +0.000 C 
ATOM      6  O   UNL     1       1.725   4.805  21.011  0.00  0.00    +0.000 OA
ATOM      7  N   UNL     1       2.415   8.097  18.489  0.00  0.00    +0.000 NA
ATOM      8  C   UNL     1       1.724   9.254  18.841  0.00  0.00    +0.000 A 
ATOM      9  C   UNL     1       1.723  10.399  17.889  0.00  0.00    +0.000 C 
ATOM     10  H   UNL     1       3.525   5.876  18.581  0.00  0.00    +0.000 HD
ENDROOT
BRANCH   1  11
ATOM     11  C   UNL     1       0.432  10.265  20.797  0.00  0.00    +0.000 C 
ATOM     12  O   UNL     1       0.857  10.852  21.785  0.00  0.00    +0.000 OA
BRANCH  11  13
ATOM     13  O   UNL     1      -0.819  10.443  20.281  0.00  0.00    +0.000 OA
BRANCH  13  15
ATOM     14  C   UNL     1      -1.242  12.414  18.998  0.00  0.00    +0.000 C 
ATOM     15  C   UNL     1      -1.353  11.768  20.368  0.00  0.00    +0.000 C 
ENDBRANCH  13  15
ENDBRANCH  11  13
ENDBRANCH   1  11
BRANCH   5  16
ATOM     16  C   UNL     1       3.473   3.650  19.866  0.00  0.00    +0.000 C 
ATOM     17  C   UNL     1       2.772   2.393  20.382  0.00  0.00    +0.000 C 
BRANCH  16  18
ATOM     18  S   UNL     1       3.806   3.473  18.077  0.00  0.00    +0.000 S 
BRANCH  18  19
ATOM     19  C   UNL     1       5.378   4.297  17.948  0.00  0.00    +0.000 A 
ATOM     20  N   UNL     1       6.046   4.582  19.074  0.00  0.00    +0.000 NA
ATOM     21  C   UNL     1       7.191   5.266  18.944  0.00  0.00    +0.000 A 
ATOM     22  N   UNL     1       7.867   5.587  20.119  0.00  0.00    +0.000 N 
ATOM     23  C   UNL     1       7.670   5.692  17.729  0.00  0.00    +0.000 A 
ATOM     24  C   UNL     1       6.908   5.341  16.644  0.00  0.00    +0.000 A 
ATOM     25  N   UNL     1       5.769   4.651  16.718  0.00  0.00    +0.000 NA
ATOM     26  H   UNL     1       7.381   5.126  20.890  0.00  0.00    +0.000 HD
ATOM     27  H   UNL     1       8.846   5.330  20.093  0.00  0.00    +0.000 HD
BRANCH  24  28
ATOM     28  O   UNL     1       7.273   5.706  15.379  0.00  0.00    +0.000 OA
ATOM     29  H   UNL     1       7.268   4.921  14.815  0.00  0.00    +0.000 HD
ENDBRANCH  24  28
ENDBRANCH  18  19
ENDBRANCH  16  18
ENDBRANCH   5  16
TORSDOF 7
ENDMDL
MODEL 6
REMARK VINA RESULT:      -7.2      0.843      1.444
REMARK  Name = 
REMARK  10 active torsions:
REMARK  status: ('A' for Active; 'I' for Inactive)
REMARK    1  A    between atoms: C_1  and  C_2
REMARK    2  A    between atoms: C_2  and  O_3
REMARK    3  A    between atoms: O_3  and  C_4
REMARK    4  A    between atoms: C_4  and  C_6
REMARK    5  A    between atoms: C_10  and  C_12
REMARK    6  A    between atoms: C_12  and  C_13
REMARK    7  A    between atoms: C_12  and  S_14
REMARK    8  A    between atoms: S_14  and  C_15
REMARK    9  A    between atoms: C_20  and  O_21
REMARK   10  A    between atoms: C_24  and  C_25
REMARK                            x       y       z     vdW  Elec       q    Type
REMARK                         _______ _______ _______ _____ _____    ______ ____
ROOT
ATOM      1  C   UNL     1      -0.134  10.454  20.362  0.00  0.00    +0.000 A 
ATOM      2  S   UNL     1       0.748   9.320  19.431  0.00  0.00    +0.000 S 
ATOM      3  C   UNL     1       1.064   8.408  20.824  0.00  0.00    +0.000 A 
ATOM      4  N   UNL     1       1.752   7.224  20.775  0.00  0.00    +0.000 N 
ATOM      5  C   UNL     1       2.503   6.764  19.711  0.00  0.00    +0.000 C 
ATOM      6  O   UNL     1       2.778   7.395  18.690  0.00  0.00    +0.000 OA
ATOM      7  N   UNL     1       0.557   8.872  21.941  0.00  0.00    +0.000 NA
ATOM      8  C   UNL     1      -0.105  10.071  21.696  0.00  0.00    +0.000 A 
ATOM      9  C   UNL     1      -0.729  10.788  22.842  0.00  0.00    +0.000 C 
ATOM     10  H   UNL     1       1.712   6.693  21.634  0.00  0.00    +0.000 HD
ENDROOT
BRANCH   1  11
ATOM     11  C   UNL     1      -0.820  11.573  19.758  0.00  0.00    +0.000 C 
ATOM     12  O   UNL     1      -1.897  11.511  19.176  0.00  0.00    +0.000 OA
BRANCH  11  13
ATOM     13  O   UNL     1      -0.049  12.697  19.822  0.00  0.00    +0.000 OA
BRANCH  13  15
ATOM     14  C   UNL     1      -0.086  14.876  18.844  0.00  0.00    +0.000 C 
ATOM     15  C   UNL     1       0.146  13.397  18.589  0.00  0.00    +0.000 C 
ENDBRANCH  13  15
ENDBRANCH  11  13
ENDBRANCH   1  11
BRANCH   5  16
ATOM     16  C   UNL     1       3.122   5.383  19.929  0.00  0.00    +0.000 C 
ATOM     17  C   UNL     1       2.227   4.554  20.851  0.00  0.00    +0.000 C 
BRANCH  16  18
ATOM     18  S   UNL     1       3.367   4.491  18.353  0.00  0.00    +0.000 S 
BRANCH  18  19
ATOM     19  C   UNL     1       5.129   4.639  18.156  0.00  0.00    +0.000 A 
ATOM     20  N   UNL     1       5.870   4.941  19.231  0.00  0.00    +0.000 NA
ATOM     21  C   UNL     1       7.184   5.116  19.033  0.00  0.00    +0.000 A 
ATOM     22  N   UNL     1       7.945   5.461  20.148  0.00  0.00    +0.000 N 
ATOM     23  C   UNL     1       7.769   5.022  17.794  0.00  0.00    +0.000 A 
ATOM     24  C   UNL     1       6.917   4.704  16.768  0.00  0.00    +0.000 A 
ATOM     25  N   UNL     1       5.606   4.508  16.913  0.00  0.00    +0.000 NA
ATOM     26  H   UNL     1       7.335   5.413  20.965  0.00  0.00    +0.000 HD
ATOM     27  H   UNL     1       8.763   4.873  20.263  0.00  0.00    +0.000 HD
BRANCH  24  28
ATOM     28  O   UNL     1       7.373   4.584  15.486  0.00  0.00    +0.000 OA
ATOM     29  H   UNL     1       7.137   3.707  15.152  0.00  0.00    +0.000 HD
ENDBRANCH  24  28
ENDBRANCH  18  19
ENDBRANCH  16  18
ENDBRANCH   5  16
TORSDOF 7
ENDMDL
MODEL 7
REMARK VINA RESULT:      -7.2      1.950      2.737
REMARK  Name = 
REMARK  10 active torsions:
REMARK  status: ('A' for Active; 'I' for Inactive)
REMARK    1  A    between atoms: C_1  and  C_2
REMARK    2  A    between atoms: C_2  and  O_3
REMARK    3  A    between atoms: O_3  and  C_4
REMARK    4  A    between atoms: C_4  and  C_6
REMARK    5  A    between atoms: C_10  and  C_12
REMARK    6  A    between atoms: C_12  and  C_13
REMARK    7  A    between atoms: C_12  and  S_14
REMARK    8  A    between atoms: S_14  and  C_15
REMARK    9  A    between atoms: C_20  and  O_21
REMARK   10  A    between atoms: C_24  and  C_25
REMARK                            x       y       z     vdW  Elec       q    Type
REMARK                         _______ _______ _______ _____ _____    ______ ____
ROOT
ATOM      1  C   UNL     1       1.299   9.468  20.119  0.00  0.00    +0.000 A 
ATOM      2  S   UNL     1       1.531   7.929  20.832  0.00  0.00    +0.000 S 
ATOM      3  C   UNL     1       2.241   7.363  19.401  0.00  0.00    +0.000 A 
ATOM      4  N   UNL     1       2.748   6.094  19.296  0.00  0.00    +0.000 N 
ATOM      5  C   UNL     1       2.512   5.050  20.169  0.00  0.00    +0.000 C 
ATOM      6  O   UNL     1       1.714   5.054  21.106  0.00  0.00    +0.000 OA
ATOM      7  N   UNL     1       2.333   8.231  18.424  0.00  0.00    +0.000 NA
ATOM      8  C   UNL     1       1.760   9.440  18.811  0.00  0.00    +0.000 A 
ATOM      9  C   UNL     1       1.729  10.559  17.830  0.00  0.00    +0.000 C 
ATOM     10  H   UNL     1       3.303   5.944  18.465  0.00  0.00    +0.000 HD
ENDROOT
BRANCH   1  11
ATOM     11  C   UNL     1       0.755  10.582  20.862  0.00  0.00    +0.000 C 
ATOM     12  O   UNL     1       1.380  11.583  21.192  0.00  0.00    +0.000 OA
BRANCH  11  13
ATOM     13  O   UNL     1      -0.527  10.319  21.248  0.00  0.00    +0.000 OA
BRANCH  13  15
ATOM     14  C   UNL     1      -0.264   9.584  23.506  0.00  0.00    +0.000 C 
ATOM     15  C   UNL     1      -0.857  10.649  22.600  0.00  0.00    +0.000 C 
ENDBRANCH  13  15
ENDBRANCH  11  13
ENDBRANCH   1  11
BRANCH   5  16
ATOM     16  C   UNL     1       3.250   3.758  19.817  0.00  0.00    +0.000 C 
ATOM     17  C   UNL     1       2.456   2.553  20.322  0.00  0.00    +0.000 C 
BRANCH  16  18
ATOM     18  S   UNL     1       3.521   3.599  18.016  0.00  0.00    +0.000 S 
BRANCH  18  19
ATOM     19  C   UNL     1       5.205   4.158  17.882  0.00  0.00    +0.000 A 
ATOM     20  N   UNL     1       5.838   4.557  18.994  0.00  0.00    +0.000 NA
ATOM     21  C   UNL     1       7.079   5.040  18.846  0.00  0.00    +0.000 A 
ATOM     22  N   UNL     1       7.722   5.482  20.001  0.00  0.00    +0.000 N 
ATOM     23  C   UNL     1       7.692   5.157  17.622  0.00  0.00    +0.000 A 
ATOM     24  C   UNL     1       6.954   4.715  16.554  0.00  0.00    +0.000 A 
ATOM     25  N   UNL     1       5.721   4.215  16.648  0.00  0.00    +0.000 NA
ATOM     26  H   UNL     1       7.125   5.247  20.795  0.00  0.00    +0.000 HD
ATOM     27  H   UNL     1       8.651   5.091  20.108  0.00  0.00    +0.000 HD
BRANCH  24  28
ATOM     28  O   UNL     1       7.448   4.779  15.282  0.00  0.00    +0.000 OA
ATOM     29  H   UNL     1       7.592   3.879  14.958  0.00  0.00    +0.000 HD
ENDBRANCH  24  28
ENDBRANCH  18  19
ENDBRANCH  16  18
ENDBRANCH   5  16
TORSDOF 7
ENDMDL
MODEL 8
REMARK VINA RESULT:      -7.1      2.461      3.363
REMARK  Name = 
REMARK  10 active torsions:
REMARK  status: ('A' for Active; 'I' for Inactive)
REMARK    1  A    between atoms: C_1  and  C_2
REMARK    2  A    between atoms: C_2  and  O_3
REMARK    3  A    between atoms: O_3  and  C_4
REMARK    4  A    between atoms: C_4  and  C_6
REMARK    5  A    between atoms: C_10  and  C_12
REMARK    6  A    between atoms: C_12  and  C_13
REMARK    7  A    between atoms: C_12  and  S_14
REMARK    8  A    between atoms: S_14  and  C_15
REMARK    9  A    between atoms: C_20  and  O_21
REMARK   10  A    between atoms: C_24  and  C_25
REMARK                            x       y       z     vdW  Elec       q    Type
REMARK                         _______ _______ _______ _____ _____    ______ ____
ROOT
ATOM      1  C   UNL     1       1.254   8.877  20.164  0.00  0.00    +0.000 A 
ATOM      2  S   UNL     1       1.732   7.343  20.755  0.00  0.00    +0.000 S 
ATOM      3  C   UNL     1       2.429   6.971  19.255  0.00  0.00    +0.000 A 
ATOM      4  N   UNL     1       3.096   5.794  19.037  0.00  0.00    +0.000 N 
ATOM      5  C   UNL     1       3.053   4.674  19.845  0.00  0.00    +0.000 C 
ATOM      6  O   UNL     1       2.317   4.509  20.817  0.00  0.00    +0.000 OA
ATOM      7  N   UNL     1       2.347   7.904  18.338  0.00  0.00    +0.000 NA
ATOM      8  C   UNL     1       1.639   8.994  18.836  0.00  0.00    +0.000 A 
ATOM      9  C   UNL     1       1.401  10.158  17.938  0.00  0.00    +0.000 C 
ATOM     10  H   UNL     1       3.618   5.775  18.172  0.00  0.00    +0.000 HD
ENDROOT
BRANCH   1  11
ATOM     11  C   UNL     1       0.608   9.855  21.007  0.00  0.00    +0.000 C 
ATOM     12  O   UNL     1      -0.537   9.773  21.436  0.00  0.00    +0.000 OA
BRANCH  11  13
ATOM     13  O   UNL     1       1.409  10.948  21.172  0.00  0.00    +0.000 OA
BRANCH  13  15
ATOM     14  C   UNL     1       1.907  13.175  20.467  0.00  0.00    +0.000 C 
ATOM     15  C   UNL     1       0.809  12.216  20.892  0.00  0.00    +0.000 C 
ENDBRANCH  13  15
ENDBRANCH  11  13
ENDBRANCH   1  11
BRANCH   5  16
ATOM     16  C   UNL     1       3.937   3.522  19.368  0.00  0.00    +0.000 C 
ATOM     17  C   UNL     1       3.109   2.241  19.268  0.00  0.00    +0.000 C 
BRANCH  16  18
ATOM     18  S   UNL     1       4.707   3.880  17.749  0.00  0.00    +0.000 S 
BRANCH  18  19
ATOM     19  C   UNL     1       5.978   5.029  18.231  0.00  0.00    +0.000 A 
ATOM     20  N   UNL     1       6.251   6.060  17.419  0.00  0.00    +0.000 NA
ATOM     21  C   UNL     1       7.262   6.863  17.777  0.00  0.00    +0.000 A 
ATOM     22  N   UNL     1       7.562   7.915  16.914  0.00  0.00    +0.000 N 
ATOM     23  C   UNL     1       8.018   6.652  18.904  0.00  0.00    +0.000 A 
ATOM     24  C   UNL     1       7.647   5.571  19.663  0.00  0.00    +0.000 A 
ATOM     25  N   UNL     1       6.643   4.749  19.358  0.00  0.00    +0.000 NA
ATOM     26  H   UNL     1       6.848   7.929  16.184  0.00  0.00    +0.000 HD
ATOM     27  H   UNL     1       7.623   8.808  17.389  0.00  0.00    +0.000 HD
BRANCH  24  28
ATOM     28  O   UNL     1       8.321   5.249  20.807  0.00  0.00    +0.000 OA
ATOM     29  H   UNL     1       9.160   5.731  20.821  0.00  0.00    +0.000 HD
ENDBRANCH  24  28
ENDBRANCH  18  19
ENDBRANCH  16  18
ENDBRANCH   5  16
TORSDOF 7
ENDMDL
MODEL 9
REMARK VINA RESULT:      -7.1      3.016      8.928
REMARK  Name = 
REMARK  10 active torsions:
REMARK  status: ('A' for Active; 'I' for Inactive)
REMARK    1  A    between atoms: C_1  and  C_2
REMARK    2  A    between atoms: C_2  and  O_3
REMARK    3  A    between atoms: O_3  and  C_4
REMARK    4  A    between atoms: C_4  and  C_6
REMARK    5  A    between atoms: C_10  and  C_12
REMARK    6  A    between atoms: C_12  and  C_13
REMARK    7  A    between atoms: C_12  and  S_14
REMARK    8  A    between atoms: S_14  and  C_15
REMARK    9  A    between atoms: C_20  and  O_21
REMARK   10  A    between atoms: C_24  and  C_25
REMARK                            x       y       z     vdW  Elec       q    Type
REMARK                         _______ _______ _______ _____ _____    ______ ____
ROOT
ATOM      1  C   UNL     1       3.950   5.413  18.414  0.00  0.00    +0.000 A 
ATOM      2  S   UNL     1       2.803   5.998  19.542  0.00  0.00    +0.000 S 
ATOM      3  C   UNL     1       2.662   7.442  18.666  0.00  0.00    +0.000 A 
ATOM      4  N   UNL     1       1.784   8.429  19.030  0.00  0.00    +0.000 N 
ATOM      5  C   UNL     1       1.138   8.533  20.246  0.00  0.00    +0.000 C 
ATOM      6  O   UNL     1       1.339   7.832  21.237  0.00  0.00    +0.000 OA
ATOM      7  N   UNL     1       3.397   7.529  17.584  0.00  0.00    +0.000 NA
ATOM      8  C   UNL     1       4.173   6.382  17.446  0.00  0.00    +0.000 A 
ATOM      9  C   UNL     1       5.111   6.290  16.293  0.00  0.00    +0.000 C 
ATOM     10  H   UNL     1       1.665   9.148  18.329  0.00  0.00    +0.000 HD
ENDROOT
BRANCH   1  11
ATOM     11  C   UNL     1       4.502   4.081  18.504  0.00  0.00    +0.000 C 
ATOM     12  O   UNL     1       5.478   3.764  19.173  0.00  0.00    +0.000 OA
BRANCH  11  13
ATOM     13  O   UNL     1       3.855   3.238  17.648  0.00  0.00    +0.000 OA
BRANCH  13  15
ATOM     14  C   UNL     1       2.146   2.128  18.894  0.00  0.00    +0.000 C 
ATOM     15  C   UNL     1       3.478   1.965  18.183  0.00  0.00    +0.000 C 
ENDBRANCH  13  15
ENDBRANCH  11  13
ENDBRANCH   1  11
BRANCH   5  16
ATOM     16  C   UNL     1       0.182   9.721  20.349  0.00  0.00    +0.000 C 
ATOM     17  C   UNL     1       0.421  10.467  21.662  0.00  0.00    +0.000 C 
BRANCH  16  18
ATOM     18  S   UNL     1       0.379  10.876  18.946  0.00  0.00    +0.000 S 
BRANCH  18  19
ATOM     19  C   UNL     1      -1.275  10.885  18.287  0.00  0.00    +0.000 A 
ATOM     20  N   UNL     1      -1.517  10.211  17.155  0.00  0.00    +0.000 NA
ATOM     21  C   UNL     1      -2.754  10.298  16.648  0.00  0.00    +0.000 A 
ATOM     22  N   UNL     1      -2.993   9.620  15.455  0.00  0.00    +0.000 N 
ATOM     23  C   UNL     1      -3.743  11.057  17.226  0.00  0.00    +0.000 A 
ATOM     24  C   UNL     1      -3.386  11.701  18.382  0.00  0.00    +0.000 A 
ATOM     25  N   UNL     1      -2.173  11.637  18.934  0.00  0.00    +0.000 NA
ATOM     26  H   UNL     1      -2.157   9.075  15.237  0.00  0.00    +0.000 HD
ATOM     27  H   UNL     1      -3.817   9.032  15.494  0.00  0.00    +0.000 HD
BRANCH  24  28
ATOM     28  O   UNL     1      -4.276  12.491  19.053  0.00  0.00    +0.000 OA
ATOM     29  H   UNL     1      -4.118  13.414  18.810  0.00  0.00    +0.000 HD
ENDBRANCH  24  28
ENDBRANCH  18  19
ENDBRANCH  16  18
ENDBRANCH   5  16
TORSDOF 7
ENDMDL
