MODEL 1
REMARK VINA RESULT:      -7.9      0.000      0.000
REMARK  Name = 
REMARK  7 active torsions:
REMARK  status: ('A' for Active; 'I' for Inactive)
REMARK    1  A    between atoms: C_2  and  C_3
REMARK    2  A    between atoms: C_7  and  C_8
REMARK    3  A    between atoms: N_12  and  C_13
REMARK    4  A    between atoms: C_13  and  C_14
REMARK    5  A    between atoms: C_22  and  C_23
REMARK    6  A    between atoms: C_23  and  C_24
REMARK    7  A    between atoms: C_24  and  C_25
REMARK                            x       y       z     vdW  Elec       q    Type
REMARK                         _______ _______ _______ _____ _____    ______ ____
ROOT
ATOM      1  C   UNL     1       4.269   5.136  17.150  0.00  0.00    +0.000 C 
ENDROOT
BRANCH   1   2
ATOM      2  C   UNL     1       5.729   5.380  17.498  0.00  0.00    +0.000 A 
ATOM      3  N   UNL     1       6.299   4.871  18.684  0.00  0.00    +0.000 NA
ATOM      4  C   UNL     1       7.440   5.412  19.038  0.00  0.00    +0.000 A 
ATOM      5  N   UNL     1       7.930   6.494  18.317  0.00  0.00    +0.000 N 
ATOM      6  N   UNL     1       8.483   7.565  18.923  0.00  0.00    +0.000 NA
ATOM      7  C   UNL     1       8.047   8.541  18.115  0.00  0.00    +0.000 A 
ATOM      8  N   UNL     1       7.471   8.122  16.938  0.00  0.00    +0.000 NA
ATOM      9  C   UNL     1       7.426   6.809  17.079  0.00  0.00    +0.000 A 
ATOM     10  C   UNL     1       6.581   5.782  16.524  0.00  0.00    +0.000 A 
BRANCH  10  11
ATOM     11  C   UNL     1       7.021   4.742  15.483  0.00  0.00    +0.000 C 
BRANCH  11  12
ATOM     12  C   UNL     1       6.647   4.826  13.962  0.00  0.00    +0.000 C 
BRANCH  12  13
ATOM     13  C   UNL     1       6.301   3.584  13.142  0.00  0.00    +0.000 C 
ATOM     14  F   UNL     1       6.748   3.699  11.870  0.00  0.00    +0.000 F 
ENDBRANCH  12  13
ENDBRANCH  11  12
ENDBRANCH  10  11
ENDBRANCH   1   2
BRANCH   1  19
ATOM     15  C   UNL     1       2.576   5.658  19.068  0.00  0.00    +0.000 A 
ATOM     16  N   UNL     1       2.049   6.784  19.543  0.00  0.00    +0.000 NA
ATOM     17  C   UNL     1       2.519   7.804  18.778  0.00  0.00    +0.000 A 
ATOM     18  C   UNL     1       3.256   7.314  17.740  0.00  0.00    +0.000 A 
ATOM     19  N   UNL     1       3.311   5.944  17.917  0.00  0.00    +0.000 N 
BRANCH  15  24
ATOM     20  C   UNL     1       3.328   2.568  20.885  0.00  0.00    +0.000 A 
ATOM     21  C   UNL     1       2.149   2.243  21.555  0.00  0.00    +0.000 A 
ATOM     22  C   UNL     1       1.051   3.042  21.305  0.00  0.00    +0.000 A 
ATOM     23  C   UNL     1       1.174   4.126  20.420  0.00  0.00    +0.000 A 
ATOM     24  C   UNL     1       2.412   4.394  19.804  0.00  0.00    +0.000 A 
ATOM     25  N   UNL     1       3.482   3.623  20.034  0.00  0.00    +0.000 NA
BRANCH  20  27
ATOM     26  N   UNL     1       5.476   1.161  21.265  0.00  0.00    +0.000 NA
ATOM     27  C   UNL     1       4.517   1.794  21.085  0.00  0.00    +0.000 C 
ENDBRANCH  20  27
ENDBRANCH  15  24
ENDBRANCH   1  19
TORSDOF 7
ENDMDL
MODEL 2
REMARK VINA RESULT:      -7.9      1.438      3.880
REMARK  Name = 
REMARK  7 active torsions:
REMARK  status: ('A' for Active; 'I' for Inactive)
REMARK    1  A    between atoms: C_2  and  C_3
REMARK    2  A    between atoms: C_7  and  C_8
REMARK    3  A    between atoms: N_12  and  C_13
REMARK    4  A    between atoms: C_13  and  C_14
REMARK    5  A    between atoms: C_22  and  C_23
REMARK    6  A    between atoms: C_23  and  C_24
REMARK    7  A    between atoms: C_24  and  C_25
REMARK                            x       y       z     vdW  Elec       q    Type
REMARK                         _______ _______ _______ _____ _____    ______ ____
ROOT
ATOM      1  C   UNL     1       4.015   3.813  17.919  0.00  0.00    +0.000 C 
ENDROOT
BRANCH   1   2
ATOM      2  C   UNL     1       5.418   4.369  17.733  0.00  0.00    +0.000 A 
ATOM      3  N   UNL     1       6.452   4.079  18.648  0.00  0.00    +0.000 NA
ATOM      4  C   UNL     1       7.502   4.863  18.580  0.00  0.00    +0.000 A 
ATOM      5  N   UNL     1       7.473   5.959  17.727  0.00  0.00    +0.000 N 
ATOM      6  N   UNL     1       7.956   7.164  18.096  0.00  0.00    +0.000 NA
ATOM      7  C   UNL     1       7.073   7.966  17.486  0.00  0.00    +0.000 A 
ATOM      8  N   UNL     1       6.235   7.349  16.587  0.00  0.00    +0.000 NA
ATOM      9  C   UNL     1       6.523   6.069  16.741  0.00  0.00    +0.000 A 
ATOM     10  C   UNL     1       5.780   4.854  16.522  0.00  0.00    +0.000 A 
BRANCH  10  11
ATOM     11  C   UNL     1       6.052   3.842  15.398  0.00  0.00    +0.000 C 
BRANCH  11  12
ATOM     12  C   UNL     1       5.565   4.037  13.919  0.00  0.00    +0.000 C 
BRANCH  12  13
ATOM     13  C   UNL     1       6.444   3.676  12.723  0.00  0.00    +0.000 C 
ATOM     14  F   UNL     1       7.305   4.678  12.429  0.00  0.00    +0.000 F 
ENDBRANCH  12  13
ENDBRANCH  11  12
ENDBRANCH  10  11
ENDBRANCH   1   2
BRANCH   1  19
ATOM     15  C   UNL     1       2.740   4.768  19.987  0.00  0.00    +0.000 A 
ATOM     16  N   UNL     1       2.328   4.236  21.136  0.00  0.00    +0.000 NA
ATOM     17  C   UNL     1       2.744   2.943  21.153  0.00  0.00    +0.000 A 
ATOM     18  C   UNL     1       3.524   2.684  20.064  0.00  0.00    +0.000 A 
ATOM     19  N   UNL     1       3.521   3.838  19.303  0.00  0.00    +0.000 N 
BRANCH  15  24
ATOM     20  C   UNL     1       1.561   8.233  20.135  0.00  0.00    +0.000 A 
ATOM     21  C   UNL     1       1.820   8.761  18.871  0.00  0.00    +0.000 A 
ATOM     22  C   UNL     1       2.319   7.889  17.923  0.00  0.00    +0.000 A 
ATOM     23  C   UNL     1       2.549   6.548  18.272  0.00  0.00    +0.000 A 
ATOM     24  C   UNL     1       2.279   6.106  19.583  0.00  0.00    +0.000 A 
ATOM     25  N   UNL     1       1.790   6.941  20.508  0.00  0.00    +0.000 NA
BRANCH  20  27
ATOM     26  N   UNL     1       0.617   9.725  22.037  0.00  0.00    +0.000 NA
ATOM     27  C   UNL     1       1.044   9.065  21.180  0.00  0.00    +0.000 C 
ENDBRANCH  20  27
ENDBRANCH  15  24
ENDBRANCH   1  19
TORSDOF 7
ENDMDL
MODEL 3
REMARK VINA RESULT:      -7.6      1.816      4.392
REMARK  Name = 
REMARK  7 active torsions:
REMARK  status: ('A' for Active; 'I' for Inactive)
REMARK    1  A    between atoms: C_2  and  C_3
REMARK    2  A    between atoms: C_7  and  C_8
REMARK    3  A    between atoms: N_12  and  C_13
REMARK    4  A    between atoms: C_13  and  C_14
REMARK    5  A    between atoms: C_22  and  C_23
REMARK    6  A    between atoms: C_23  and  C_24
REMARK    7  A    between atoms: C_24  and  C_25
REMARK                            x       y       z     vdW  Elec       q    Type
REMARK                         _______ _______ _______ _____ _____    ______ ____
ROOT
ATOM      1  C   UNL     1       3.702   5.376  18.033  0.00  0.00    +0.000 C 
ENDROOT
BRANCH   1   2
ATOM      2  C   UNL     1       5.220   5.469  18.070  0.00  0.00    +0.000 A 
ATOM      3  N   UNL     1       5.960   4.998  19.176  0.00  0.00    +0.000 NA
ATOM      4  C   UNL     1       7.198   5.425  19.248  0.00  0.00    +0.000 A 
ATOM      5  N   UNL     1       7.643   6.371  18.333  0.00  0.00    +0.000 N 
ATOM      6  N   UNL     1       8.413   7.416  18.703  0.00  0.00    +0.000 NA
ATOM      7  C   UNL     1       7.927   8.363  17.890  0.00  0.00    +0.000 A 
ATOM      8  N   UNL     1       7.087   7.917  16.896  0.00  0.00    +0.000 NA
ATOM      9  C   UNL     1       6.937   6.637  17.185  0.00  0.00    +0.000 A 
ATOM     10  C   UNL     1       5.896   5.677  16.915  0.00  0.00    +0.000 A 
BRANCH  10  11
ATOM     11  C   UNL     1       6.010   4.504  15.931  0.00  0.00    +0.000 C 
BRANCH  11  12
ATOM     12  C   UNL     1       5.688   4.623  14.399  0.00  0.00    +0.000 C 
BRANCH  12  13
ATOM     13  C   UNL     1       6.253   3.642  13.374  0.00  0.00    +0.000 C 
ATOM     14  F   UNL     1       5.324   3.316  12.445  0.00  0.00    +0.000 F 
ENDBRANCH  12  13
ENDBRANCH  11  12
ENDBRANCH  10  11
ENDBRANCH   1   2
BRANCH   1  19
ATOM     15  C   UNL     1       2.205   6.315  19.954  0.00  0.00    +0.000 A 
ATOM     16  N   UNL     1       1.660   5.771  21.040  0.00  0.00    +0.000 NA
ATOM     17  C   UNL     1       2.061   4.474  21.086  0.00  0.00    +0.000 A 
ATOM     18  C   UNL     1       2.959   4.222  20.090  0.00  0.00    +0.000 A 
ATOM     19  N   UNL     1       3.053   5.387  19.351  0.00  0.00    +0.000 N 
BRANCH  15  24
ATOM     20  C   UNL     1       1.148   9.821  20.021  0.00  0.00    +0.000 A 
ATOM     21  C   UNL     1       1.461  10.321  18.758  0.00  0.00    +0.000 A 
ATOM     22  C   UNL     1       1.954   9.419  17.837  0.00  0.00    +0.000 A 
ATOM     23  C   UNL     1       2.127   8.076  18.211  0.00  0.00    +0.000 A 
ATOM     24  C   UNL     1       1.804   7.663  19.518  0.00  0.00    +0.000 A 
ATOM     25  N   UNL     1       1.319   8.528  20.419  0.00  0.00    +0.000 NA
BRANCH  20  27
ATOM     26  N   UNL     1       0.225  11.381  21.879  0.00  0.00    +0.000 NA
ATOM     27  C   UNL     1       0.631  10.686  21.040  0.00  0.00    +0.000 C 
ENDBRANCH  20  27
ENDBRANCH  15  24
ENDBRANCH   1  19
TORSDOF 7
ENDMDL
MODEL 4
REMARK VINA RESULT:      -7.5      2.742      5.132
REMARK  Name = 
REMARK  7 active torsions:
REMARK  status: ('A' for Active; 'I' for Inactive)
REMARK    1  A    between atoms: C_2  and  C_3
REMARK    2  A    between atoms: C_7  and  C_8
REMARK    3  A    between atoms: N_12  and  C_13
REMARK    4  A    between atoms: C_13  and  C_14
REMARK    5  A    between atoms: C_22  and  C_23
REMARK    6  A    between atoms: C_23  and  C_24
REMARK    7  A    between atoms: C_24  and  C_25
REMARK                            x       y       z     vdW  Elec       q    Type
REMARK                         _______ _______ _______ _____ _____    ______ ____
ROOT
ATOM      1  C   UNL     1       5.199   5.556  19.399  0.00  0.00    +0.000 C 
ENDROOT
BRANCH   1   2
ATOM      2  C   UNL     1       5.655   5.971  18.009  0.00  0.00    +0.000 A 
ATOM      3  N   UNL     1       4.826   6.733  17.159  0.00  0.00    +0.000 NA
ATOM      4  C   UNL     1       5.175   6.744  15.894  0.00  0.00    +0.000 A 
ATOM      5  N   UNL     1       6.225   5.937  15.474  0.00  0.00    +0.000 N 
ATOM      6  N   UNL     1       6.168   5.232  14.324  0.00  0.00    +0.000 NA
ATOM      7  C   UNL     1       6.822   4.124  14.697  0.00  0.00    +0.000 A 
ATOM      8  N   UNL     1       7.473   4.200  15.907  0.00  0.00    +0.000 NA
ATOM      9  C   UNL     1       7.095   5.376  16.375  0.00  0.00    +0.000 A 
ATOM     10  C   UNL     1       6.974   5.919  17.705  0.00  0.00    +0.000 A 
BRANCH  10  11
ATOM     11  C   UNL     1       7.891   6.993  18.308  0.00  0.00    +0.000 C 
BRANCH  11  12
ATOM     12  C   UNL     1       7.953   8.472  17.786  0.00  0.00    +0.000 C 
BRANCH  12  13
ATOM     13  C   UNL     1       8.712   9.565  18.537  0.00  0.00    +0.000 C 
ATOM     14  F   UNL     1       9.013  10.600  17.719  0.00  0.00    +0.000 F 
ENDBRANCH  12  13
ENDBRANCH  11  12
ENDBRANCH  10  11
ENDBRANCH   1   2
BRANCH   1  19
ATOM     15  C   UNL     1       2.605   5.263  19.376  0.00  0.00    +0.000 A 
ATOM     16  N   UNL     1       1.803   4.219  19.175  0.00  0.00    +0.000 NA
ATOM     17  C   UNL     1       2.595   3.130  18.998  0.00  0.00    +0.000 A 
ATOM     18  C   UNL     1       3.903   3.459  19.203  0.00  0.00    +0.000 A 
ATOM     19  N   UNL     1       3.927   4.822  19.435  0.00  0.00    +0.000 N 
BRANCH  15  24
ATOM     20  C   UNL     1       1.430   8.511  20.594  0.00  0.00    +0.000 A 
ATOM     21  C   UNL     1       1.423   9.339  19.473  0.00  0.00    +0.000 A 
ATOM     22  C   UNL     1       1.733   8.752  18.263  0.00  0.00    +0.000 A 
ATOM     23  C   UNL     1       2.048   7.383  18.221  0.00  0.00    +0.000 A 
ATOM     24  C   UNL     1       2.053   6.626  19.409  0.00  0.00    +0.000 A 
ATOM     25  N   UNL     1       1.748   7.184  20.588  0.00  0.00    +0.000 NA
BRANCH  20  27
ATOM     26  N   UNL     1       0.880   9.479  22.939  0.00  0.00    +0.000 NA
ATOM     27  C   UNL     1       1.122   9.036  21.891  0.00  0.00    +0.000 C 
ENDBRANCH  20  27
ENDBRANCH  15  24
ENDBRANCH   1  19
TORSDOF 7
ENDMDL
MODEL 5
REMARK VINA RESULT:      -7.5      1.598      3.565
REMARK  Name = 
REMARK  7 active torsions:
REMARK  status: ('A' for Active; 'I' for Inactive)
REMARK    1  A    between atoms: C_2  and  C_3
REMARK    2  A    between atoms: C_7  and  C_8
REMARK    3  A    between atoms: N_12  and  C_13
REMARK    4  A    between atoms: C_13  and  C_14
REMARK    5  A    between atoms: C_22  and  C_23
REMARK    6  A    between atoms: C_23  and  C_24
REMARK    7  A    between atoms: C_24  and  C_25
REMARK                            x       y       z     vdW  Elec       q    Type
REMARK                         _______ _______ _______ _____ _____    ______ ____
ROOT
ATOM      1  C   UNL     1       4.239   4.465  16.847  0.00  0.00    +0.000 C 
ENDROOT
BRANCH   1   2
ATOM      2  C   UNL     1       5.683   4.816  17.169  0.00  0.00    +0.000 A 
ATOM      3  N   UNL     1       6.353   4.243  18.271  0.00  0.00    +0.000 NA
ATOM      4  C   UNL     1       7.451   4.856  18.644  0.00  0.00    +0.000 A 
ATOM      5  N   UNL     1       7.801   6.052  18.030  0.00  0.00    +0.000 N 
ATOM      6  N   UNL     1       8.275   7.103  18.731  0.00  0.00    +0.000 NA
ATOM      7  C   UNL     1       7.711   8.110  18.051  0.00  0.00    +0.000 A 
ATOM      8  N   UNL     1       7.125   7.763  16.856  0.00  0.00    +0.000 NA
ATOM      9  C   UNL     1       7.214   6.445  16.853  0.00  0.00    +0.000 A 
ATOM     10  C   UNL     1       6.447   5.403  16.217  0.00  0.00    +0.000 A 
BRANCH  10  11
ATOM     11  C   UNL     1       6.938   4.529  15.053  0.00  0.00    +0.000 C 
BRANCH  11  12
ATOM     12  C   UNL     1       5.983   3.665  14.156  0.00  0.00    +0.000 C 
BRANCH  12  13
ATOM     13  C   UNL     1       6.017   3.741  12.631  0.00  0.00    +0.000 C 
ATOM     14  F   UNL     1       7.284   3.885  12.176  0.00  0.00    +0.000 F 
ENDBRANCH  12  13
ENDBRANCH  11  12
ENDBRANCH  10  11
ENDBRANCH   1   2
BRANCH   1  19
ATOM     15  C   UNL     1       2.745   4.125  18.961  0.00  0.00    +0.000 A 
ATOM     16  N   UNL     1       2.119   3.070  19.480  0.00  0.00    +0.000 NA
ATOM     17  C   UNL     1       2.418   1.999  18.700  0.00  0.00    +0.000 A 
ATOM     18  C   UNL     1       3.331   2.349  17.748  0.00  0.00    +0.000 A 
ATOM     19  N   UNL     1       3.542   3.707  17.895  0.00  0.00    +0.000 N 
BRANCH  15  24
ATOM     20  C   UNL     1       2.076   7.723  19.086  0.00  0.00    +0.000 A 
ATOM     21  C   UNL     1       1.521   7.947  20.345  0.00  0.00    +0.000 A 
ATOM     22  C   UNL     1       1.463   6.865  21.201  0.00  0.00    +0.000 A 
ATOM     23  C   UNL     1       1.941   5.617  20.769  0.00  0.00    +0.000 A 
ATOM     24  C   UNL     1       2.466   5.477  19.469  0.00  0.00    +0.000 A 
ATOM     25  N   UNL     1       2.533   6.521  18.632  0.00  0.00    +0.000 NA
BRANCH  20  27
ATOM     26  N   UNL     1       2.241   9.662  17.368  0.00  0.00    +0.000 NA
ATOM     27  C   UNL     1       2.176   8.788  18.134  0.00  0.00    +0.000 C 
ENDBRANCH  20  27
ENDBRANCH  15  24
ENDBRANCH   1  19
TORSDOF 7
ENDMDL
MODEL 6
REMARK VINA RESULT:      -7.3      1.718      3.951
REMARK  Name = 
REMARK  7 active torsions:
REMARK  status: ('A' for Active; 'I' for Inactive)
REMARK    1  A    between atoms: C_2  and  C_3
REMARK    2  A    between atoms: C_7  and  C_8
REMARK    3  A    between atoms: N_12  and  C_13
REMARK    4  A    between atoms: C_13  and  C_14
REMARK    5  A    between atoms: C_22  and  C_23
REMARK    6  A    between atoms: C_23  and  C_24
REMARK    7  A    between atoms: C_24  and  C_25
REMARK                            x       y       z     vdW  Elec       q    Type
REMARK                         _______ _______ _______ _____ _____    ______ ____
ROOT
ATOM      1  C   UNL     1       3.792   5.298  17.919  0.00  0.00    +0.000 C 
ENDROOT
BRANCH   1   2
ATOM      2  C   UNL     1       5.300   5.417  18.065  0.00  0.00    +0.000 A 
ATOM      3  N   UNL     1       5.958   5.030  19.252  0.00  0.00    +0.000 NA
ATOM      4  C   UNL     1       7.183   5.481  19.390  0.00  0.00    +0.000 A 
ATOM      5  N   UNL     1       7.686   6.374  18.453  0.00  0.00    +0.000 N 
ATOM      6  N   UNL     1       8.413   7.452  18.812  0.00  0.00    +0.000 NA
ATOM      7  C   UNL     1       7.980   8.338  17.905  0.00  0.00    +0.000 A 
ATOM      8  N   UNL     1       7.225   7.816  16.881  0.00  0.00    +0.000 NA
ATOM      9  C   UNL     1       7.067   6.555  17.240  0.00  0.00    +0.000 A 
ATOM     10  C   UNL     1       6.061   5.563  16.954  0.00  0.00    +0.000 A 
BRANCH  10  11
ATOM     11  C   UNL     1       6.264   4.332  16.059  0.00  0.00    +0.000 C 
BRANCH  11  12
ATOM     12  C   UNL     1       6.950   4.388  14.649  0.00  0.00    +0.000 C 
BRANCH  12  13
ATOM     13  C   UNL     1       6.221   3.963  13.375  0.00  0.00    +0.000 C 
ATOM     14  F   UNL     1       4.879   3.995  13.547  0.00  0.00    +0.000 F 
ENDBRANCH  12  13
ENDBRANCH  11  12
ENDBRANCH  10  11
ENDBRANCH   1   2
BRANCH   1  19
ATOM     15  C   UNL     1       2.259   5.402  20.029  0.00  0.00    +0.000 A 
ATOM     16  N   UNL     1       1.660   4.474  20.773  0.00  0.00    +0.000 NA
ATOM     17  C   UNL     1       2.019   3.263  20.274  0.00  0.00    +0.000 A 
ATOM     18  C   UNL     1       2.942   3.417  19.282  0.00  0.00    +0.000 A 
ATOM     19  N   UNL     1       3.098   4.779  19.106  0.00  0.00    +0.000 N 
BRANCH  15  24
ATOM     20  C   UNL     1       1.658   8.944  19.314  0.00  0.00    +0.000 A 
ATOM     21  C   UNL     1       0.871   9.400  20.370  0.00  0.00    +0.000 A 
ATOM     22  C   UNL     1       0.622   8.506  21.392  0.00  0.00    +0.000 A 
ATOM     23  C   UNL     1       1.147   7.206  21.315  0.00  0.00    +0.000 A 
ATOM     24  C   UNL     1       1.915   6.823  20.198  0.00  0.00    +0.000 A 
ATOM     25  N   UNL     1       2.168   7.683  19.203  0.00  0.00    +0.000 NA
BRANCH  20  27
ATOM     26  N   UNL     1       2.219  10.515  17.326  0.00  0.00    +0.000 NA
ATOM     27  C   UNL     1       1.967   9.803  18.210  0.00  0.00    +0.000 C 
ENDBRANCH  20  27
ENDBRANCH  15  24
ENDBRANCH   1  19
TORSDOF 7
ENDMDL
MODEL 7
REMARK VINA RESULT:      -7.3      2.802      5.221
REMARK  Name = 
REMARK  7 active torsions:
REMARK  status: ('A' for Active; 'I' for Inactive)
REMARK    1  A    between atoms: C_2  and  C_3
REMARK    2  A    between atoms: C_7  and  C_8
REMARK    3  A    between atoms: N_12  and  C_13
REMARK    4  A    between atoms: C_13  and  C_14
REMARK    5  A    between atoms: C_22  and  C_23
REMARK    6  A    between atoms: C_23  and  C_24
REMARK    7  A    between atoms: C_24  and  C_25
REMARK                            x       y       z     vdW  Elec       q    Type
REMARK                         _______ _______ _______ _____ _____    ______ ____
ROOT
ATOM      1  C   UNL     1       5.042   5.541  19.459  0.00  0.00    +0.000 C 
ENDROOT
BRANCH   1   2
ATOM      2  C   UNL     1       5.456   5.900  18.040  0.00  0.00    +0.000 A 
ATOM      3  N   UNL     1       4.627   6.682  17.207  0.00  0.00    +0.000 NA
ATOM      4  C   UNL     1       4.919   6.646  15.929  0.00  0.00    +0.000 A 
ATOM      5  N   UNL     1       5.908   5.778  15.484  0.00  0.00    +0.000 N 
ATOM      6  N   UNL     1       5.765   5.050  14.357  0.00  0.00    +0.000 NA
ATOM      7  C   UNL     1       6.381   3.920  14.729  0.00  0.00    +0.000 A 
ATOM      8  N   UNL     1       7.089   3.992  15.906  0.00  0.00    +0.000 NA
ATOM      9  C   UNL     1       6.790   5.196  16.361  0.00  0.00    +0.000 A 
ATOM     10  C   UNL     1       6.755   5.775  17.680  0.00  0.00    +0.000 A 
BRANCH  10  11
ATOM     11  C   UNL     1       7.749   6.817  18.214  0.00  0.00    +0.000 C 
BRANCH  11  12
ATOM     12  C   UNL     1       7.883   8.267  17.629  0.00  0.00    +0.000 C 
BRANCH  12  13
ATOM     13  C   UNL     1       8.588   9.386  18.393  0.00  0.00    +0.000 C 
ATOM     14  F   UNL     1       8.335  10.593  17.835  0.00  0.00    +0.000 F 
ENDBRANCH  12  13
ENDBRANCH  11  12
ENDBRANCH  10  11
ENDBRANCH   1   2
BRANCH   1  19
ATOM     15  C   UNL     1       2.450   5.427  19.748  0.00  0.00    +0.000 A 
ATOM     16  N   UNL     1       1.545   4.477  19.526  0.00  0.00    +0.000 NA
ATOM     17  C   UNL     1       2.214   3.372  19.107  0.00  0.00    +0.000 A 
ATOM     18  C   UNL     1       3.561   3.582  19.174  0.00  0.00    +0.000 A 
ATOM     19  N   UNL     1       3.728   4.895  19.572  0.00  0.00    +0.000 N 
BRANCH  15  24
ATOM     20  C   UNL     1       1.639   8.973  19.315  0.00  0.00    +0.000 A 
ATOM     21  C   UNL     1       0.829   9.296  20.401  0.00  0.00    +0.000 A 
ATOM     22  C   UNL     1       0.635   8.311  21.348  0.00  0.00    +0.000 A 
ATOM     23  C   UNL     1       1.236   7.054  21.170  0.00  0.00    +0.000 A 
ATOM     24  C   UNL     1       2.023   6.807  20.028  0.00  0.00    +0.000 A 
ATOM     25  N   UNL     1       2.223   7.757  19.105  0.00  0.00    +0.000 NA
BRANCH  20  27
ATOM     26  N   UNL     1       2.092  10.727  17.456  0.00  0.00    +0.000 NA
ATOM     27  C   UNL     1       1.894   9.933  18.283  0.00  0.00    +0.000 C 
ENDBRANCH  20  27
ENDBRANCH  15  24
ENDBRANCH   1  19
TORSDOF 7
ENDMDL
MODEL 8
REMARK VINA RESULT:      -7.3      2.539      6.454
REMARK  Name = 
REMARK  7 active torsions:
REMARK  status: ('A' for Active; 'I' for Inactive)
REMARK    1  A    between atoms: C_2  and  C_3
REMARK    2  A    between atoms: C_7  and  C_8
REMARK    3  A    between atoms: N_12  and  C_13
REMARK    4  A    between atoms: C_13  and  C_14
REMARK    5  A    between atoms: C_22  and  C_23
REMARK    6  A    between atoms: C_23  and  C_24
REMARK    7  A    between atoms: C_24  and  C_25
REMARK                            x       y       z     vdW  Elec       q    Type
REMARK                         _______ _______ _______ _____ _____    ______ ____
ROOT
ATOM      1  C   UNL     1       5.100   2.995  16.454  0.00  0.00    +0.000 C 
ENDROOT
BRANCH   1   2
ATOM      2  C   UNL     1       3.971   3.637  17.244  0.00  0.00    +0.000 A 
ATOM      3  N   UNL     1       2.628   3.541  16.820  0.00  0.00    +0.000 NA
ATOM      4  C   UNL     1       1.800   4.394  17.375  0.00  0.00    +0.000 A 
ATOM      5  N   UNL     1       2.304   5.376  18.218  0.00  0.00    +0.000 N 
ATOM      6  N   UNL     1       1.864   6.651  18.172  0.00  0.00    +0.000 NA
ATOM      7  C   UNL     1       3.008   7.302  18.420  0.00  0.00    +0.000 A 
ATOM      8  N   UNL     1       4.056   6.517  18.843  0.00  0.00    +0.000 NA
ATOM      9  C   UNL     1       3.576   5.292  18.728  0.00  0.00    +0.000 A 
ATOM     10  C   UNL     1       4.190   4.003  18.529  0.00  0.00    +0.000 A 
BRANCH  10  11
ATOM     11  C   UNL     1       4.274   2.892  19.586  0.00  0.00    +0.000 C 
BRANCH  11  12
ATOM     12  C   UNL     1       3.263   2.751  20.778  0.00  0.00    +0.000 C 
BRANCH  12  13
ATOM     13  C   UNL     1       1.779   2.468  20.553  0.00  0.00    +0.000 C 
ATOM     14  F   UNL     1       1.584   1.760  19.416  0.00  0.00    +0.000 F 
ENDBRANCH  12  13
ENDBRANCH  11  12
ENDBRANCH  10  11
ENDBRANCH   1   2
BRANCH   1  19
ATOM     15  C   UNL     1       6.669   4.854  15.507  0.00  0.00    +0.000 A 
ATOM     16  N   UNL     1       7.079   5.169  14.281  0.00  0.00    +0.000 NA
ATOM     17  C   UNL     1       6.467   4.317  13.419  0.00  0.00    +0.000 A 
ATOM     18  C   UNL     1       5.573   3.532  14.087  0.00  0.00    +0.000 A 
ATOM     19  N   UNL     1       5.699   3.856  15.425  0.00  0.00    +0.000 N 
BRANCH  15  24
ATOM     20  C   UNL     1       7.864   7.354  17.903  0.00  0.00    +0.000 A 
ATOM     21  C   UNL     1       8.101   6.647  19.080  0.00  0.00    +0.000 A 
ATOM     22  C   UNL     1       7.941   5.277  19.025  0.00  0.00    +0.000 A 
ATOM     23  C   UNL     1       7.542   4.676  17.820  0.00  0.00    +0.000 A 
ATOM     24  C   UNL     1       7.302   5.473  16.683  0.00  0.00    +0.000 A 
ATOM     25  N   UNL     1       7.460   6.802  16.723  0.00  0.00    +0.000 NA
BRANCH  20  27
ATOM     26  N   UNL     1       8.101   9.938  17.844  0.00  0.00    +0.000 NA
ATOM     27  C   UNL     1       8.005   8.779  17.868  0.00  0.00    +0.000 C 
ENDBRANCH  20  27
ENDBRANCH  15  24
ENDBRANCH   1  19
TORSDOF 7
ENDMDL
MODEL 9
REMARK VINA RESULT:      -7.3      1.581      1.899
REMARK  Name = 
REMARK  7 active torsions:
REMARK  status: ('A' for Active; 'I' for Inactive)
REMARK    1  A    between atoms: C_2  and  C_3
REMARK    2  A    between atoms: C_7  and  C_8
REMARK    3  A    between atoms: N_12  and  C_13
REMARK    4  A    between atoms: C_13  and  C_14
REMARK    5  A    between atoms: C_22  and  C_23
REMARK    6  A    between atoms: C_23  and  C_24
REMARK    7  A    between atoms: C_24  and  C_25
REMARK                            x       y       z     vdW  Elec       q    Type
REMARK                         _______ _______ _______ _____ _____    ______ ____
ROOT
ATOM      1  C   UNL     1       3.322   7.199  17.671  0.00  0.00    +0.000 C 
ENDROOT
BRANCH   1   2
ATOM      2  C   UNL     1       4.757   6.698  17.713  0.00  0.00    +0.000 A 
ATOM      3  N   UNL     1       5.166   5.710  18.633  0.00  0.00    +0.000 NA
ATOM      4  C   UNL     1       6.462   5.601  18.805  0.00  0.00    +0.000 A 
ATOM      5  N   UNL     1       7.306   6.514  18.185  0.00  0.00    +0.000 N 
ATOM      6  N   UNL     1       8.367   7.053  18.823  0.00  0.00    +0.000 NA
ATOM      7  C   UNL     1       8.340   8.292  18.314  0.00  0.00    +0.000 A 
ATOM      8  N   UNL     1       7.493   8.475  17.246  0.00  0.00    +0.000 NA
ATOM      9  C   UNL     1       6.858   7.319  17.167  0.00  0.00    +0.000 A 
ATOM     10  C   UNL     1       5.568   6.932  16.653  0.00  0.00    +0.000 A 
BRANCH  10  11
ATOM     11  C   UNL     1       5.336   6.108  15.378  0.00  0.00    +0.000 C 
BRANCH  11  12
ATOM     12  C   UNL     1       5.173   4.547  15.373  0.00  0.00    +0.000 C 
BRANCH  12  13
ATOM     13  C   UNL     1       6.374   3.607  15.456  0.00  0.00    +0.000 C 
ATOM     14  F   UNL     1       7.477   4.260  15.893  0.00  0.00    +0.000 F 
ENDBRANCH  12  13
ENDBRANCH  11  12
ENDBRANCH  10  11
ENDBRANCH   1   2
BRANCH   1  19
ATOM     15  C   UNL     1       2.326   5.608  19.486  0.00  0.00    +0.000 A 
ATOM     16  N   UNL     1       1.709   5.816  20.647  0.00  0.00    +0.000 NA
ATOM     17  C   UNL     1       1.586   7.159  20.804  0.00  0.00    +0.000 A 
ATOM     18  C   UNL     1       2.021   7.807  19.684  0.00  0.00    +0.000 A 
ATOM     19  N   UNL     1       2.507   6.829  18.837  0.00  0.00    +0.000 N 
BRANCH  15  24
ATOM     20  C   UNL     1       3.856   2.285  19.662  0.00  0.00    +0.000 A 
ATOM     21  C   UNL     1       3.278   1.562  18.621  0.00  0.00    +0.000 A 
ATOM     22  C   UNL     1       2.422   2.250  17.786  0.00  0.00    +0.000 A 
ATOM     23  C   UNL     1       2.168   3.611  18.027  0.00  0.00    +0.000 A 
ATOM     24  C   UNL     1       2.780   4.257  19.119  0.00  0.00    +0.000 A 
ATOM     25  N   UNL     1       3.617   3.601  19.932  0.00  0.00    +0.000 NA
BRANCH  20  27
ATOM     26  N   UNL     1       5.501   1.150  21.320  0.00  0.00    +0.000 NA
ATOM     27  C   UNL     1       4.757   1.651  20.579  0.00  0.00    +0.000 C 
ENDBRANCH  20  27
ENDBRANCH  15  24
ENDBRANCH   1  19
TORSDOF 7
ENDMDL
