MODEL 1
REMARK VINA RESULT:      -7.8      0.000      0.000
REMARK  Name = 
REMARK  1 active torsions:
REMARK  status: ('A' for Active; 'I' for Inactive)
REMARK    1  A    between atoms: N_3  and  C_4
REMARK                            x       y       z     vdW  Elec       q    Type
REMARK                         _______ _______ _______ _____ _____    ______ ____
ROOT
ATOM      1  O   UNL     1       2.336  10.998  17.536  0.00  0.00    +0.000 OA
ATOM      2  C   UNL     1       2.285   9.841  17.943  0.00  0.00    +0.000 C 
ATOM      3  N   UNL     1       1.390   9.345  18.852  0.00  0.00    +0.000 N 
ATOM      4  N   UNL     1       3.214   8.966  17.462  0.00  0.00    +0.000 N 
ATOM      5  C   UNL     1       3.297   7.629  17.717  0.00  0.00    +0.000 A 
ATOM      6  N   UNL     1       2.608   6.905  18.566  0.00  0.00    +0.000 NA
ATOM      7  C   UNL     1       2.950   5.555  18.395  0.00  0.00    +0.000 A 
ATOM      8  C   UNL     1       3.912   5.326  17.402  0.00  0.00    +0.000 A 
ATOM      9  C   UNL     1       4.339   4.042  17.043  0.00  0.00    +0.000 A 
ATOM     10  C   UNL     1       3.781   2.947  17.703  0.00  0.00    +0.000 A 
ATOM     11  C   UNL     1       2.841   3.116  18.722  0.00  0.00    +0.000 A 
ATOM     12  C   UNL     1       2.306   2.005  19.389  0.00  0.00    +0.000 A 
ATOM     13  C   UNL     1       1.378   2.169  20.418  0.00  0.00    +0.000 A 
ATOM     14  C   UNL     1       0.972   3.448  20.794  0.00  0.00    +0.000 A 
ATOM     15  C   UNL     1       1.482   4.570  20.136  0.00  0.00    +0.000 A 
ATOM     16  C   UNL     1       2.419   4.421  19.092  0.00  0.00    +0.000 A 
ATOM     17  S   UNL     1       4.436   6.829  16.750  0.00  0.00    +0.000 S 
ATOM     18  H   UNL     1       1.586   8.399  19.173  0.00  0.00    +0.000 HD
ATOM     19  H   UNL     1       3.848   9.354  16.780  0.00  0.00    +0.000 HD
ENDROOT
BRANCH   3  20
ATOM     20  C   UNL     1       0.361  10.046  19.505  0.00  0.00    +0.000 A 
ATOM     21  C   UNL     1      -0.528  10.907  18.854  0.00  0.00    +0.000 A 
ATOM     22  C   UNL     1      -1.485  11.619  19.583  0.00  0.00    +0.000 A 
ATOM     23  C   UNL     1      -1.555  11.478  20.967  0.00  0.00    +0.000 A 
ATOM     24  C   UNL     1      -0.689  10.599  21.611  0.00  0.00    +0.000 A 
ATOM     25 CL   UNL     1      -0.760  10.429  23.323  0.00  0.00    +0.000 Cl
ATOM     26  C   UNL     1       0.253   9.870  20.887  0.00  0.00    +0.000 A 
ENDBRANCH   3  20
TORSDOF 1
ENDMDL
MODEL 2
REMARK VINA RESULT:      -7.6      3.585      7.929
REMARK  Name = 
REMARK  1 active torsions:
REMARK  status: ('A' for Active; 'I' for Inactive)
REMARK    1  A    between atoms: N_3  and  C_4
REMARK                            x       y       z     vdW  Elec       q    Type
REMARK                         _______ _______ _______ _____ _____    ______ ____
ROOT
ATOM      1  O   UNL     1       1.895   8.970  22.559  0.00  0.00    +0.000 OA
ATOM      2  C   UNL     1       1.165   9.233  21.608  0.00  0.00    +0.000 C 
ATOM      3  N   UNL     1       1.094   8.540  20.430  0.00  0.00    +0.000 N 
ATOM      4  N   UNL     1       0.358  10.327  21.722  0.00  0.00    +0.000 N 
ATOM      5  C   UNL     1      -0.578  10.756  20.828  0.00  0.00    +0.000 A 
ATOM      6  N   UNL     1      -0.829  10.317  19.618  0.00  0.00    +0.000 NA
ATOM      7  C   UNL     1      -1.962  10.979  19.120  0.00  0.00    +0.000 A 
ATOM      8  C   UNL     1      -2.517  11.915  20.002  0.00  0.00    +0.000 A 
ATOM      9  C   UNL     1      -3.683  12.632  19.711  0.00  0.00    +0.000 A 
ATOM     10  C   UNL     1      -4.317  12.403  18.490  0.00  0.00    +0.000 A 
ATOM     11  C   UNL     1      -3.793  11.505  17.558  0.00  0.00    +0.000 A 
ATOM     12  C   UNL     1      -4.432  11.302  16.327  0.00  0.00    +0.000 A 
ATOM     13  C   UNL     1      -3.904  10.417  15.386  0.00  0.00    +0.000 A 
ATOM     14  C   UNL     1      -2.729   9.721  15.664  0.00  0.00    +0.000 A 
ATOM     15  C   UNL     1      -2.080   9.898  16.889  0.00  0.00    +0.000 A 
ATOM     16  C   UNL     1      -2.602  10.788  17.852  0.00  0.00    +0.000 A 
ATOM     17  S   UNL     1      -1.552  12.009  21.424  0.00  0.00    +0.000 S 
ATOM     18  H   UNL     1       0.535   8.985  19.705  0.00  0.00    +0.000 HD
ATOM     19  H   UNL     1       0.417  10.806  22.607  0.00  0.00    +0.000 HD
ENDROOT
BRANCH   3  20
ATOM     20  C   UNL     1       1.836   7.403  20.064  0.00  0.00    +0.000 A 
ATOM     21  C   UNL     1       2.734   7.371  18.993  0.00  0.00    +0.000 A 
ATOM     22  C   UNL     1       3.386   6.183  18.651  0.00  0.00    +0.000 A 
ATOM     23  C   UNL     1       3.142   5.019  19.376  0.00  0.00    +0.000 A 
ATOM     24  C   UNL     1       2.269   5.058  20.461  0.00  0.00    +0.000 A 
ATOM     25 CL   UNL     1       1.951   3.620  21.353  0.00  0.00    +0.000 Cl
ATOM     26  C   UNL     1       1.633   6.245  20.820  0.00  0.00    +0.000 A 
ENDBRANCH   3  20
TORSDOF 1
ENDMDL
MODEL 3
REMARK VINA RESULT:      -7.5      1.302      1.710
REMARK  Name = 
REMARK  1 active torsions:
REMARK  status: ('A' for Active; 'I' for Inactive)
REMARK    1  A    between atoms: N_3  and  C_4
REMARK                            x       y       z     vdW  Elec       q    Type
REMARK                         _______ _______ _______ _____ _____    ______ ____
ROOT
ATOM      1  O   UNL     1       1.391  11.300  18.468  0.00  0.00    +0.000 OA
ATOM      2  C   UNL     1       1.594  10.145  18.829  0.00  0.00    +0.000 C 
ATOM      3  N   UNL     1       1.082   9.549  19.950  0.00  0.00    +0.000 N 
ATOM      4  N   UNL     1       2.420   9.383  18.056  0.00  0.00    +0.000 N 
ATOM      5  C   UNL     1       2.722   8.064  18.225  0.00  0.00    +0.000 A 
ATOM      6  N   UNL     1       2.412   7.266  19.218  0.00  0.00    +0.000 NA
ATOM      7  C   UNL     1       2.830   5.964  18.902  0.00  0.00    +0.000 A 
ATOM      8  C   UNL     1       3.458   5.847  17.655  0.00  0.00    +0.000 A 
ATOM      9  C   UNL     1       3.891   4.621  17.137  0.00  0.00    +0.000 A 
ATOM     10  C   UNL     1       3.686   3.469  17.896  0.00  0.00    +0.000 A 
ATOM     11  C   UNL     1       3.094   3.529  19.158  0.00  0.00    +0.000 A 
ATOM     12  C   UNL     1       2.914   2.362  19.917  0.00  0.00    +0.000 A 
ATOM     13  C   UNL     1       2.336   2.418  21.185  0.00  0.00    +0.000 A 
ATOM     14  C   UNL     1       1.928   3.642  21.714  0.00  0.00    +0.000 A 
ATOM     15  C   UNL     1       2.086   4.816  20.972  0.00  0.00    +0.000 A 
ATOM     16  C   UNL     1       2.667   4.776  19.687  0.00  0.00    +0.000 A 
ATOM     17  S   UNL     1       3.589   7.401  16.928  0.00  0.00    +0.000 S 
ATOM     18  H   UNL     1       1.470   8.632  20.161  0.00  0.00    +0.000 HD
ATOM     19  H   UNL     1       2.767   9.842  17.227  0.00  0.00    +0.000 HD
ENDROOT
BRANCH   3  20
ATOM     20  C   UNL     1       0.235  10.127  20.911  0.00  0.00    +0.000 A 
ATOM     21  C   UNL     1       0.178   9.716  22.246  0.00  0.00    +0.000 A 
ATOM     22  C   UNL     1      -0.738  10.297  23.128  0.00  0.00    +0.000 A 
ATOM     23  C   UNL     1      -1.607  11.289  22.678  0.00  0.00    +0.000 A 
ATOM     24  C   UNL     1      -1.530  11.719  21.355  0.00  0.00    +0.000 A 
ATOM     25 CL   UNL     1      -2.609  12.935  20.788  0.00  0.00    +0.000 Cl
ATOM     26  C   UNL     1      -0.604  11.158  20.478  0.00  0.00    +0.000 A 
ENDBRANCH   3  20
TORSDOF 1
ENDMDL
MODEL 4
REMARK VINA RESULT:      -7.5      1.129      1.473
REMARK  Name = 
REMARK  1 active torsions:
REMARK  status: ('A' for Active; 'I' for Inactive)
REMARK    1  A    between atoms: N_3  and  C_4
REMARK                            x       y       z     vdW  Elec       q    Type
REMARK                         _______ _______ _______ _____ _____    ______ ____
ROOT
ATOM      1  O   UNL     1       2.453  11.027  17.547  0.00  0.00    +0.000 OA
ATOM      2  C   UNL     1       2.390   9.876  17.968  0.00  0.00    +0.000 C 
ATOM      3  N   UNL     1       1.519   9.412  18.916  0.00  0.00    +0.000 N 
ATOM      4  N   UNL     1       3.277   8.974  17.460  0.00  0.00    +0.000 N 
ATOM      5  C   UNL     1       3.337   7.637  17.727  0.00  0.00    +0.000 A 
ATOM      6  N   UNL     1       2.665   6.939  18.610  0.00  0.00    +0.000 NA
ATOM      7  C   UNL     1       2.966   5.580  18.441  0.00  0.00    +0.000 A 
ATOM      8  C   UNL     1       3.882   5.317  17.414  0.00  0.00    +0.000 A 
ATOM      9  C   UNL     1       4.263   4.019  17.052  0.00  0.00    +0.000 A 
ATOM     10  C   UNL     1       3.705   2.945  17.745  0.00  0.00    +0.000 A 
ATOM     11  C   UNL     1       2.810   3.148  18.797  0.00  0.00    +0.000 A 
ATOM     12  C   UNL     1       2.274   2.056  19.496  0.00  0.00    +0.000 A 
ATOM     13  C   UNL     1       1.391   2.254  20.559  0.00  0.00    +0.000 A 
ATOM     14  C   UNL     1       1.031   3.546  20.937  0.00  0.00    +0.000 A 
ATOM     15  C   UNL     1       1.543   4.649  20.248  0.00  0.00    +0.000 A 
ATOM     16  C   UNL     1       2.435   4.466  19.170  0.00  0.00    +0.000 A 
ATOM     17  S   UNL     1       4.418   6.800  16.725  0.00  0.00    +0.000 S 
ATOM     18  H   UNL     1       1.704   8.464  19.239  0.00  0.00    +0.000 HD
ATOM     19  H   UNL     1       3.894   9.339  16.750  0.00  0.00    +0.000 HD
ENDROOT
BRANCH   3  20
ATOM     20  C   UNL     1       0.534  10.144  19.601  0.00  0.00    +0.000 A 
ATOM     21  C   UNL     1       0.582  10.422  20.970  0.00  0.00    +0.000 A 
ATOM     22  C   UNL     1      -0.469  11.102  21.592  0.00  0.00    +0.000 A 
ATOM     23  C   UNL     1      -1.576  11.505  20.849  0.00  0.00    +0.000 A 
ATOM     24  C   UNL     1      -1.611  11.255  19.480  0.00  0.00    +0.000 A 
ATOM     25 CL   UNL     1      -2.982  11.737  18.557  0.00  0.00    +0.000 Cl
ATOM     26  C   UNL     1      -0.556  10.596  18.851  0.00  0.00    +0.000 A 
ENDBRANCH   3  20
TORSDOF 1
ENDMDL
MODEL 5
REMARK VINA RESULT:      -7.5      3.703      8.057
REMARK  Name = 
REMARK  1 active torsions:
REMARK  status: ('A' for Active; 'I' for Inactive)
REMARK    1  A    between atoms: N_3  and  C_4
REMARK                            x       y       z     vdW  Elec       q    Type
REMARK                         _______ _______ _______ _____ _____    ______ ____
ROOT
ATOM      1  O   UNL     1       1.942   8.903  22.509  0.00  0.00    +0.000 OA
ATOM      2  C   UNL     1       1.202   9.191  21.574  0.00  0.00    +0.000 C 
ATOM      3  N   UNL     1       1.115   8.526  20.381  0.00  0.00    +0.000 N 
ATOM      4  N   UNL     1       0.400  10.284  21.723  0.00  0.00    +0.000 N 
ATOM      5  C   UNL     1      -0.546  10.737  20.850  0.00  0.00    +0.000 A 
ATOM      6  N   UNL     1      -0.813  10.327  19.634  0.00  0.00    +0.000 NA
ATOM      7  C   UNL     1      -1.949  11.003  19.165  0.00  0.00    +0.000 A 
ATOM      8  C   UNL     1      -2.490  11.920  20.076  0.00  0.00    +0.000 A 
ATOM      9  C   UNL     1      -3.658  12.648  19.815  0.00  0.00    +0.000 A 
ATOM     10  C   UNL     1      -4.307  12.448  18.596  0.00  0.00    +0.000 A 
ATOM     11  C   UNL     1      -3.797  11.571  17.638  0.00  0.00    +0.000 A 
ATOM     12  C   UNL     1      -4.452  11.398  16.410  0.00  0.00    +0.000 A 
ATOM     13  C   UNL     1      -3.939  10.533  15.443  0.00  0.00    +0.000 A 
ATOM     14  C   UNL     1      -2.762   9.828  15.691  0.00  0.00    +0.000 A 
ATOM     15  C   UNL     1      -2.098   9.974  16.911  0.00  0.00    +0.000 A 
ATOM     16  C   UNL     1      -2.605  10.843  17.901  0.00  0.00    +0.000 A 
ATOM     17  S   UNL     1      -1.508  11.978  21.487  0.00  0.00    +0.000 S 
ATOM     18  H   UNL     1       0.548   8.988  19.674  0.00  0.00    +0.000 HD
ATOM     19  H   UNL     1       0.471  10.743  22.618  0.00  0.00    +0.000 HD
ENDROOT
BRANCH   3  20
ATOM     20  C   UNL     1       1.848   7.395  19.980  0.00  0.00    +0.000 A 
ATOM     21  C   UNL     1       1.855   6.184  20.679  0.00  0.00    +0.000 A 
ATOM     22  C   UNL     1       2.660   5.124  20.253  0.00  0.00    +0.000 A 
ATOM     23  C   UNL     1       3.468   5.271  19.128  0.00  0.00    +0.000 A 
ATOM     24  C   UNL     1       3.439   6.467  18.414  0.00  0.00    +0.000 A 
ATOM     25 CL   UNL     1       4.444   6.661  17.030  0.00  0.00    +0.000 Cl
ATOM     26  C   UNL     1       2.621   7.519  18.823  0.00  0.00    +0.000 A 
ENDBRANCH   3  20
TORSDOF 1
ENDMDL
MODEL 6
REMARK VINA RESULT:      -7.4      2.539      7.097
REMARK  Name = 
REMARK  1 active torsions:
REMARK  status: ('A' for Active; 'I' for Inactive)
REMARK    1  A    between atoms: N_3  and  C_4
REMARK                            x       y       z     vdW  Elec       q    Type
REMARK                         _______ _______ _______ _____ _____    ______ ____
ROOT
ATOM      1  O   UNL     1       4.224   6.328  16.996  0.00  0.00    +0.000 OA
ATOM      2  C   UNL     1       3.463   6.888  17.779  0.00  0.00    +0.000 C 
ATOM      3  N   UNL     1       2.977   6.363  18.945  0.00  0.00    +0.000 N 
ATOM      4  N   UNL     1       3.044   8.145  17.455  0.00  0.00    +0.000 N 
ATOM      5  C   UNL     1       2.265   8.974  18.208  0.00  0.00    +0.000 A 
ATOM      6  N   UNL     1       1.635   8.723  19.330  0.00  0.00    +0.000 NA
ATOM      7  C   UNL     1       1.061   9.911  19.805  0.00  0.00    +0.000 A 
ATOM      8  C   UNL     1       1.287  11.027  18.989  0.00  0.00    +0.000 A 
ATOM      9  C   UNL     1       0.846  12.313  19.323  0.00  0.00    +0.000 A 
ATOM     10  C   UNL     1       0.153  12.487  20.521  0.00  0.00    +0.000 A 
ATOM     11  C   UNL     1      -0.128  11.407  21.359  0.00  0.00    +0.000 A 
ATOM     12  C   UNL     1      -0.845  11.598  22.550  0.00  0.00    +0.000 A 
ATOM     13  C   UNL     1      -1.141  10.520  23.385  0.00  0.00    +0.000 A 
ATOM     14  C   UNL     1      -0.726   9.235  23.040  0.00  0.00    +0.000 A 
ATOM     15  C   UNL     1      -0.001   9.022  21.865  0.00  0.00    +0.000 A 
ATOM     16  C   UNL     1       0.310  10.102  21.011  0.00  0.00    +0.000 A 
ATOM     17  S   UNL     1       2.156  10.545  17.583  0.00  0.00    +0.000 S 
ATOM     18  H   UNL     1       2.251   6.917  19.394  0.00  0.00    +0.000 HD
ATOM     19  H   UNL     1       3.432   8.514  16.600  0.00  0.00    +0.000 HD
ENDROOT
BRANCH   3  20
ATOM     20  C   UNL     1       3.239   5.089  19.481  0.00  0.00    +0.000 A 
ATOM     21  C   UNL     1       4.379   4.339  19.180  0.00  0.00    +0.000 A 
ATOM     22  C   UNL     1       4.538   3.051  19.702  0.00  0.00    +0.000 A 
ATOM     23  C   UNL     1       3.555   2.506  20.524  0.00  0.00    +0.000 A 
ATOM     24  C   UNL     1       2.432   3.265  20.847  0.00  0.00    +0.000 A 
ATOM     25 CL   UNL     1       1.206   2.593  21.851  0.00  0.00    +0.000 Cl
ATOM     26  C   UNL     1       2.280   4.557  20.347  0.00  0.00    +0.000 A 
ENDBRANCH   3  20
TORSDOF 1
ENDMDL
MODEL 7
REMARK VINA RESULT:      -7.3      2.916      7.311
REMARK  Name = 
REMARK  1 active torsions:
REMARK  status: ('A' for Active; 'I' for Inactive)
REMARK    1  A    between atoms: N_3  and  C_4
REMARK                            x       y       z     vdW  Elec       q    Type
REMARK                         _______ _______ _______ _____ _____    ______ ____
ROOT
ATOM      1  O   UNL     1       3.561   5.964  17.405  0.00  0.00    +0.000 OA
ATOM      2  C   UNL     1       2.873   6.689  18.117  0.00  0.00    +0.000 C 
ATOM      3  N   UNL     1       2.232   6.316  19.267  0.00  0.00    +0.000 N 
ATOM      4  N   UNL     1       2.716   7.986  17.724  0.00  0.00    +0.000 N 
ATOM      5  C   UNL     1       2.063   8.977  18.397  0.00  0.00    +0.000 A 
ATOM      6  N   UNL     1       1.335   8.898  19.484  0.00  0.00    +0.000 NA
ATOM      7  C   UNL     1       0.966  10.192  19.880  0.00  0.00    +0.000 A 
ATOM      8  C   UNL     1       1.444  11.208  19.042  0.00  0.00    +0.000 A 
ATOM      9  C   UNL     1       1.232  12.568  19.304  0.00  0.00    +0.000 A 
ATOM     10  C   UNL     1       0.516  12.921  20.447  0.00  0.00    +0.000 A 
ATOM     11  C   UNL     1      -0.010  11.951  21.302  0.00  0.00    +0.000 A 
ATOM     12  C   UNL     1      -0.745  12.324  22.436  0.00  0.00    +0.000 A 
ATOM     13  C   UNL     1      -1.286  11.358  23.286  0.00  0.00    +0.000 A 
ATOM     14  C   UNL     1      -1.099  10.004  23.013  0.00  0.00    +0.000 A 
ATOM     15  C   UNL     1      -0.360   9.608  21.895  0.00  0.00    +0.000 A 
ATOM     16  C   UNL     1       0.196  10.572  21.027  0.00  0.00    +0.000 A 
ATOM     17  S   UNL     1       2.286  10.512  17.714  0.00  0.00    +0.000 S 
ATOM     18  H   UNL     1       1.597   7.014  19.649  0.00  0.00    +0.000 HD
ATOM     19  H   UNL     1       3.215   8.237  16.885  0.00  0.00    +0.000 HD
ENDROOT
BRANCH   3  20
ATOM     20  C   UNL     1       2.220   5.042  19.861  0.00  0.00    +0.000 A 
ATOM     21  C   UNL     1       1.149   4.541  20.608  0.00  0.00    +0.000 A 
ATOM     22  C   UNL     1       1.237   3.289  21.222  0.00  0.00    +0.000 A 
ATOM     23  C   UNL     1       2.399   2.531  21.097  0.00  0.00    +0.000 A 
ATOM     24  C   UNL     1       3.455   3.016  20.329  0.00  0.00    +0.000 A 
ATOM     25 CL   UNL     1       4.900   2.092  20.180  0.00  0.00    +0.000 Cl
ATOM     26  C   UNL     1       3.363   4.255  19.696  0.00  0.00    +0.000 A 
ENDBRANCH   3  20
TORSDOF 1
ENDMDL
MODEL 8
REMARK VINA RESULT:      -7.2      2.682      3.991
REMARK  Name = 
REMARK  1 active torsions:
REMARK  status: ('A' for Active; 'I' for Inactive)
REMARK    1  A    between atoms: N_3  and  C_4
REMARK                            x       y       z     vdW  Elec       q    Type
REMARK                         _______ _______ _______ _____ _____    ______ ____
ROOT
ATOM      1  O   UNL     1      -0.189   8.663  21.997  0.00  0.00    +0.000 OA
ATOM      2  C   UNL     1       0.564   8.213  21.138  0.00  0.00    +0.000 C 
ATOM      3  N   UNL     1       1.049   8.894  20.055  0.00  0.00    +0.000 N 
ATOM      4  N   UNL     1       0.944   6.909  21.259  0.00  0.00    +0.000 N 
ATOM      5  C   UNL     1       1.826   6.231  20.469  0.00  0.00    +0.000 A 
ATOM      6  N   UNL     1       2.403   6.615  19.356  0.00  0.00    +0.000 NA
ATOM      7  C   UNL     1       3.327   5.635  18.961  0.00  0.00    +0.000 A 
ATOM      8  C   UNL     1       3.395   4.530  19.819  0.00  0.00    +0.000 A 
ATOM      9  C   UNL     1       4.299   3.477  19.628  0.00  0.00    +0.000 A 
ATOM     10  C   UNL     1       5.166   3.536  18.537  0.00  0.00    +0.000 A 
ATOM     11  C   UNL     1       5.122   4.598  17.632  0.00  0.00    +0.000 A 
ATOM     12  C   UNL     1       5.988   4.630  16.529  0.00  0.00    +0.000 A 
ATOM     13  C   UNL     1       5.939   5.682  15.614  0.00  0.00    +0.000 A 
ATOM     14  C   UNL     1       5.022   6.717  15.789  0.00  0.00    +0.000 A 
ATOM     15  C   UNL     1       4.157   6.713  16.886  0.00  0.00    +0.000 A 
ATOM     16  C   UNL     1       4.196   5.658  17.822  0.00  0.00    +0.000 A 
ATOM     17  S   UNL     1       2.230   4.700  21.073  0.00  0.00    +0.000 S 
ATOM     18  H   UNL     1       1.548   8.321  19.378  0.00  0.00    +0.000 HD
ATOM     19  H   UNL     1       0.587   6.437  22.076  0.00  0.00    +0.000 HD
ENDROOT
BRANCH   3  20
ATOM     20  C   UNL     1       0.787  10.229  19.700  0.00  0.00    +0.000 A 
ATOM     21  C   UNL     1       1.503  11.322  20.197  0.00  0.00    +0.000 A 
ATOM     22  C   UNL     1       1.141  12.626  19.847  0.00  0.00    +0.000 A 
ATOM     23  C   UNL     1       0.056  12.845  19.001  0.00  0.00    +0.000 A 
ATOM     24  C   UNL     1      -0.640  11.755  18.482  0.00  0.00    +0.000 A 
ATOM     25 CL   UNL     1      -1.990  12.017  17.447  0.00  0.00    +0.000 Cl
ATOM     26  C   UNL     1      -0.269  10.452  18.812  0.00  0.00    +0.000 A 
ENDBRANCH   3  20
TORSDOF 1
ENDMDL
MODEL 9
REMARK VINA RESULT:      -7.1      2.700      4.028
REMARK  Name = 
REMARK  1 active torsions:
REMARK  status: ('A' for Active; 'I' for Inactive)
REMARK    1  A    between atoms: N_3  and  C_4
REMARK                            x       y       z     vdW  Elec       q    Type
REMARK                         _______ _______ _______ _____ _____    ______ ____
ROOT
ATOM      1  O   UNL     1      -0.198   8.945  21.813  0.00  0.00    +0.000 OA
ATOM      2  C   UNL     1       0.556   8.458  20.977  0.00  0.00    +0.000 C 
ATOM      3  N   UNL     1       1.059   9.096  19.876  0.00  0.00    +0.000 N 
ATOM      4  N   UNL     1       0.920   7.154  21.144  0.00  0.00    +0.000 N 
ATOM      5  C   UNL     1       1.800   6.440  20.385  0.00  0.00    +0.000 A 
ATOM      6  N   UNL     1       2.390   6.779  19.265  0.00  0.00    +0.000 NA
ATOM      7  C   UNL     1       3.306   5.776  18.911  0.00  0.00    +0.000 A 
ATOM      8  C   UNL     1       3.354   4.699  19.806  0.00  0.00    +0.000 A 
ATOM      9  C   UNL     1       4.246   3.630  19.657  0.00  0.00    +0.000 A 
ATOM     10  C   UNL     1       5.123   3.642  18.572  0.00  0.00    +0.000 A 
ATOM     11  C   UNL     1       5.099   4.673  17.632  0.00  0.00    +0.000 A 
ATOM     12  C   UNL     1       5.974   4.659  16.536  0.00  0.00    +0.000 A 
ATOM     13  C   UNL     1       5.945   5.679  15.586  0.00  0.00    +0.000 A 
ATOM     14  C   UNL     1       5.039   6.731  15.718  0.00  0.00    +0.000 A 
ATOM     15  C   UNL     1       4.165   6.774  16.808  0.00  0.00    +0.000 A 
ATOM     16  C   UNL     1       4.184   5.750  17.779  0.00  0.00    +0.000 A 
ATOM     17  S   UNL     1       2.180   4.925  21.044  0.00  0.00    +0.000 S 
ATOM     18  H   UNL     1       1.555   8.495  19.222  0.00  0.00    +0.000 HD
ATOM     19  H   UNL     1       0.551   6.714  21.974  0.00  0.00    +0.000 HD
ENDROOT
BRANCH   3  20
ATOM     20  C   UNL     1       0.815  10.421  19.474  0.00  0.00    +0.000 A 
ATOM     21  C   UNL     1      -0.463  10.978  19.364  0.00  0.00    +0.000 A 
ATOM     22  C   UNL     1      -0.628  12.285  18.895  0.00  0.00    +0.000 A 
ATOM     23  C   UNL     1       0.483  13.041  18.530  0.00  0.00    +0.000 A 
ATOM     24  C   UNL     1       1.758  12.496  18.667  0.00  0.00    +0.000 A 
ATOM     25 CL   UNL     1       3.136  13.419  18.204  0.00  0.00    +0.000 Cl
ATOM     26  C   UNL     1       1.929  11.202  19.154  0.00  0.00    +0.000 A 
ENDBRANCH   3  20
TORSDOF 1
ENDMDL
