MODEL 1
REMARK VINA RESULT:      -7.8      0.000      0.000
REMARK  Name = 
REMARK  8 active torsions:
REMARK  status: ('A' for Active; 'I' for Inactive)
REMARK    1  A    between atoms: O_1  and  C_2
REMARK    2  A    between atoms: C_2  and  C_3
REMARK    3  A    between atoms: C_2  and  C_12
REMARK    4  A    between atoms: C_3  and  O_4
REMARK    5  A    between atoms: O_4  and  C_5
REMARK    6  A    between atoms: C_12  and  N_13
REMARK    7  A    between atoms: C_16  and  C_17
REMARK    8  A    between atoms: C_17  and  C_18
REMARK                            x       y       z     vdW  Elec       q    Type
REMARK                         _______ _______ _______ _____ _____    ______ ____
ROOT
ATOM      1  C   UNL     1       7.467   6.567  16.831  0.00  0.00    +0.000 C 
ENDROOT
BRANCH   1   2
ATOM      2  N   UNL     1       6.146   5.974  16.548  0.00  0.00    +0.000 NA
ATOM      3  C   UNL     1       6.246   4.558  16.177  0.00  0.00    +0.000 C 
ATOM      4  C   UNL     1       4.879   3.994  15.814  0.00  0.00    +0.000 C 
ATOM      5  C   UNL     1       3.885   4.132  16.972  0.00  0.00    +0.000 C 
ATOM      6  C   UNL     1       3.829   5.617  17.371  0.00  0.00    +0.000 C 
ATOM      7  C   UNL     1       5.217   6.202  17.662  0.00  0.00    +0.000 C 
BRANCH   5   8
ATOM      8  C   UNL     1       4.239   3.255  18.195  0.00  0.00    +0.000 C 
BRANCH   8   9
ATOM      9  C   UNL     1       3.159   3.135  19.245  0.00  0.00    +0.000 A 
ATOM     10  C   UNL     1       1.806   3.212  18.878  0.00  0.00    +0.000 A 
ATOM     11  C   UNL     1       0.800   3.062  19.832  0.00  0.00    +0.000 A 
ATOM     12  C   UNL     1       1.134   2.830  21.164  0.00  0.00    +0.000 A 
ATOM     13  C   UNL     1       2.473   2.759  21.541  0.00  0.00    +0.000 A 
ATOM     14  C   UNL     1       3.482   2.909  20.588  0.00  0.00    +0.000 A 
ENDBRANCH   8   9
ENDBRANCH   5   8
ENDBRANCH   1   2
BRANCH   1  15
ATOM     15  C   UNL     1       7.533   7.353  18.160  0.00  0.00    +0.000 C 
BRANCH  15  16
ATOM     16  O   UNL     1       8.423   6.702  19.076  0.00  0.00    +0.000 OA
ATOM     17  H   UNL     1       8.677   7.376  19.732  0.00  0.00    +0.000 HD
ENDBRANCH  15  16
BRANCH  15  18
ATOM     18  C   UNL     1       8.035   8.772  17.906  0.00  0.00    +0.000 C 
BRANCH  18  19
ATOM     19  O   UNL     1       8.994   9.098  18.921  0.00  0.00    +0.000 OA
BRANCH  19  20
ATOM     20  C   UNL     1       9.267  10.433  19.070  0.00  0.00    +0.000 A 
ATOM     21  C   UNL     1       9.360  11.355  18.026  0.00  0.00    +0.000 A 
ATOM     22  C   UNL     1       9.650  12.692  18.296  0.00  0.00    +0.000 A 
ATOM     23  C   UNL     1       9.845  13.109  19.610  0.00  0.00    +0.000 A 
ATOM     24 CL   UNL     1      10.209  14.757  19.932  0.00  0.00    +0.000 Cl
ATOM     25  C   UNL     1       9.747  12.197  20.658  0.00  0.00    +0.000 A 
ATOM     26  C   UNL     1       9.456  10.856  20.387  0.00  0.00    +0.000 A 
ENDBRANCH  19  20
ENDBRANCH  18  19
ENDBRANCH  15  18
ENDBRANCH   1  15
TORSDOF 8
ENDMDL
MODEL 2
REMARK VINA RESULT:      -7.6      1.156      1.775
REMARK  Name = 
REMARK  8 active torsions:
REMARK  status: ('A' for Active; 'I' for Inactive)
REMARK    1  A    between atoms: O_1  and  C_2
REMARK    2  A    between atoms: C_2  and  C_3
REMARK    3  A    between atoms: C_2  and  C_12
REMARK    4  A    between atoms: C_3  and  O_4
REMARK    5  A    between atoms: O_4  and  C_5
REMARK    6  A    between atoms: C_12  and  N_13
REMARK    7  A    between atoms: C_16  and  C_17
REMARK    8  A    between atoms: C_17  and  C_18
REMARK                            x       y       z     vdW  Elec       q    Type
REMARK                         _______ _______ _______ _____ _____    ______ ____
ROOT
ATOM      1  C   UNL     1       7.546   7.044  16.870  0.00  0.00    +0.000 C 
ENDROOT
BRANCH   1   2
ATOM      2  N   UNL     1       6.933   5.705  16.974  0.00  0.00    +0.000 NA
ATOM      3  C   UNL     1       6.196   5.534  18.230  0.00  0.00    +0.000 C 
ATOM      4  C   UNL     1       5.642   4.119  18.346  0.00  0.00    +0.000 C 
ATOM      5  C   UNL     1       4.712   3.780  17.177  0.00  0.00    +0.000 C 
ATOM      6  C   UNL     1       5.494   4.007  15.871  0.00  0.00    +0.000 C 
ATOM      7  C   UNL     1       6.114   5.409  15.792  0.00  0.00    +0.000 C 
BRANCH   5   8
ATOM      8  C   UNL     1       3.401   4.599  17.175  0.00  0.00    +0.000 C 
BRANCH   8   9
ATOM      9  C   UNL     1       2.456   4.317  18.320  0.00  0.00    +0.000 A 
ATOM     10  C   UNL     1       1.692   3.139  18.331  0.00  0.00    +0.000 A 
ATOM     11  C   UNL     1       0.846   2.850  19.402  0.00  0.00    +0.000 A 
ATOM     12  C   UNL     1       0.756   3.732  20.474  0.00  0.00    +0.000 A 
ATOM     13  C   UNL     1       1.504   4.907  20.472  0.00  0.00    +0.000 A 
ATOM     14  C   UNL     1       2.351   5.200  19.401  0.00  0.00    +0.000 A 
ENDBRANCH   8   9
ENDBRANCH   5   8
ENDBRANCH   1   2
BRANCH   1  15
ATOM     15  C   UNL     1       7.699   7.772  18.224  0.00  0.00    +0.000 C 
BRANCH  15  16
ATOM     16  O   UNL     1       8.601   7.052  19.074  0.00  0.00    +0.000 OA
ATOM     17  H   UNL     1       9.446   7.535  19.043  0.00  0.00    +0.000 HD
ENDBRANCH  15  16
BRANCH  15  18
ATOM     18  C   UNL     1       8.246   9.181  18.003  0.00  0.00    +0.000 C 
BRANCH  18  19
ATOM     19  O   UNL     1       9.083   9.517  19.118  0.00  0.00    +0.000 OA
BRANCH  19  20
ATOM     20  C   UNL     1       9.627  10.775  19.090  0.00  0.00    +0.000 A 
ATOM     21  C   UNL     1      10.506  11.292  20.042  0.00  0.00    +0.000 A 
ATOM     22  C   UNL     1      10.993  12.593  19.915  0.00  0.00    +0.000 A 
ATOM     23  C   UNL     1      10.602  13.377  18.832  0.00  0.00    +0.000 A 
ATOM     24 CL   UNL     1      11.202  14.981  18.687  0.00  0.00    +0.000 Cl
ATOM     25  C   UNL     1       9.731  12.867  17.874  0.00  0.00    +0.000 A 
ATOM     26  C   UNL     1       9.243  11.563  18.002  0.00  0.00    +0.000 A 
ENDBRANCH  19  20
ENDBRANCH  18  19
ENDBRANCH  15  18
ENDBRANCH   1  15
TORSDOF 8
ENDMDL
MODEL 3
REMARK VINA RESULT:      -7.4      1.257      1.446
REMARK  Name = 
REMARK  8 active torsions:
REMARK  status: ('A' for Active; 'I' for Inactive)
REMARK    1  A    between atoms: O_1  and  C_2
REMARK    2  A    between atoms: C_2  and  C_3
REMARK    3  A    between atoms: C_2  and  C_12
REMARK    4  A    between atoms: C_3  and  O_4
REMARK    5  A    between atoms: O_4  and  C_5
REMARK    6  A    between atoms: C_12  and  N_13
REMARK    7  A    between atoms: C_16  and  C_17
REMARK    8  A    between atoms: C_17  and  C_18
REMARK                            x       y       z     vdW  Elec       q    Type
REMARK                         _______ _______ _______ _____ _____    ______ ____
ROOT
ATOM      1  C   UNL     1       7.818   7.026  16.896  0.00  0.00    +0.000 C 
ENDROOT
BRANCH   1   2
ATOM      2  N   UNL     1       6.509   6.469  16.504  0.00  0.00    +0.000 NA
ATOM      3  C   UNL     1       6.590   5.036  16.201  0.00  0.00    +0.000 C 
ATOM      4  C   UNL     1       5.244   4.505  15.724  0.00  0.00    +0.000 C 
ATOM      5  C   UNL     1       4.146   4.727  16.769  0.00  0.00    +0.000 C 
ATOM      6  C   UNL     1       4.110   6.230  17.101  0.00  0.00    +0.000 C 
ATOM      7  C   UNL     1       5.484   6.777  17.508  0.00  0.00    +0.000 C 
BRANCH   5   8
ATOM      8  C   UNL     1       4.341   3.892  18.054  0.00  0.00    +0.000 C 
BRANCH   8   9
ATOM      9  C   UNL     1       3.109   3.716  18.910  0.00  0.00    +0.000 A 
ATOM     10  C   UNL     1       2.055   2.900  18.470  0.00  0.00    +0.000 A 
ATOM     11  C   UNL     1       0.930   2.698  19.270  0.00  0.00    +0.000 A 
ATOM     12  C   UNL     1       0.847   3.307  20.519  0.00  0.00    +0.000 A 
ATOM     13  C   UNL     1       1.883   4.125  20.964  0.00  0.00    +0.000 A 
ATOM     14  C   UNL     1       3.010   4.329  20.164  0.00  0.00    +0.000 A 
ENDBRANCH   8   9
ENDBRANCH   5   8
ENDBRANCH   1   2
BRANCH   1  15
ATOM     15  C   UNL     1       7.753   8.008  18.088  0.00  0.00    +0.000 C 
BRANCH  15  16
ATOM     16  O   UNL     1       8.666   7.600  19.115  0.00  0.00    +0.000 OA
ATOM     17  H   UNL     1       8.351   6.734  19.429  0.00  0.00    +0.000 HD
ENDBRANCH  15  16
BRANCH  15  18
ATOM     18  C   UNL     1       8.121   9.416  17.628  0.00  0.00    +0.000 C 
BRANCH  18  19
ATOM     19  O   UNL     1       8.922  10.027  18.649  0.00  0.00    +0.000 OA
BRANCH  19  20
ATOM     20  C   UNL     1       9.575  11.174  18.280  0.00  0.00    +0.000 A 
ATOM     21  C   UNL     1      10.931  11.260  17.963  0.00  0.00    +0.000 A 
ATOM     22  C   UNL     1      11.492  12.486  17.606  0.00  0.00    +0.000 A 
ATOM     23  C   UNL     1      10.696  13.627  17.564  0.00  0.00    +0.000 A 
ATOM     24 CL   UNL     1      11.397  15.135  17.130  0.00  0.00    +0.000 Cl
ATOM     25  C   UNL     1       9.340  13.550  17.873  0.00  0.00    +0.000 A 
ATOM     26  C   UNL     1       8.779  12.321  18.230  0.00  0.00    +0.000 A 
ENDBRANCH  19  20
ENDBRANCH  18  19
ENDBRANCH  15  18
ENDBRANCH   1  15
TORSDOF 8
ENDMDL
MODEL 4
REMARK VINA RESULT:      -7.3      1.120      1.488
REMARK  Name = 
REMARK  8 active torsions:
REMARK  status: ('A' for Active; 'I' for Inactive)
REMARK    1  A    between atoms: O_1  and  C_2
REMARK    2  A    between atoms: C_2  and  C_3
REMARK    3  A    between atoms: C_2  and  C_12
REMARK    4  A    between atoms: C_3  and  O_4
REMARK    5  A    between atoms: O_4  and  C_5
REMARK    6  A    between atoms: C_12  and  N_13
REMARK    7  A    between atoms: C_16  and  C_17
REMARK    8  A    between atoms: C_17  and  C_18
REMARK                            x       y       z     vdW  Elec       q    Type
REMARK                         _______ _______ _______ _____ _____    ______ ____
ROOT
ATOM      1  C   UNL     1       7.529   6.514  18.117  0.00  0.00    +0.000 C 
ENDROOT
BRANCH   1   2
ATOM      2  N   UNL     1       6.460   5.896  17.308  0.00  0.00    +0.000 NA
ATOM      3  C   UNL     1       6.806   4.533  16.889  0.00  0.00    +0.000 C 
ATOM      4  C   UNL     1       5.723   3.950  15.991  0.00  0.00    +0.000 C 
ATOM      5  C   UNL     1       4.362   3.920  16.694  0.00  0.00    +0.000 C 
ATOM      6  C   UNL     1       4.041   5.352  17.161  0.00  0.00    +0.000 C 
ATOM      7  C   UNL     1       5.169   5.963  18.003  0.00  0.00    +0.000 C 
BRANCH   5   8
ATOM      8  C   UNL     1       4.305   2.935  17.884  0.00  0.00    +0.000 C 
BRANCH   8   9
ATOM      9  C   UNL     1       3.067   3.026  18.746  0.00  0.00    +0.000 A 
ATOM     10  C   UNL     1       1.828   2.589  18.249  0.00  0.00    +0.000 A 
ATOM     11  C   UNL     1       0.687   2.630  19.050  0.00  0.00    +0.000 A 
ATOM     12  C   UNL     1       0.770   3.104  20.356  0.00  0.00    +0.000 A 
ATOM     13  C   UNL     1       1.992   3.547  20.857  0.00  0.00    +0.000 A 
ATOM     14  C   UNL     1       3.137   3.508  20.058  0.00  0.00    +0.000 A 
ENDBRANCH   8   9
ENDBRANCH   5   8
ENDBRANCH   1   2
BRANCH   1  15
ATOM     15  C   UNL     1       8.030   7.869  17.569  0.00  0.00    +0.000 C 
BRANCH  15  16
ATOM     16  O   UNL     1       6.928   8.639  17.071  0.00  0.00    +0.000 OA
ATOM     17  H   UNL     1       6.294   7.997  16.703  0.00  0.00    +0.000 HD
ENDBRANCH  15  16
BRANCH  15  18
ATOM     18  C   UNL     1       8.725   8.658  18.676  0.00  0.00    +0.000 C 
BRANCH  18  19
ATOM     19  O   UNL     1       8.285  10.021  18.601  0.00  0.00    +0.000 OA
BRANCH  19  20
ATOM     20  C   UNL     1       9.229  10.965  18.908  0.00  0.00    +0.000 A 
ATOM     21  C   UNL     1       9.887  11.073  20.134  0.00  0.00    +0.000 A 
ATOM     22  C   UNL     1      10.829  12.081  20.338  0.00  0.00    +0.000 A 
ATOM     23  C   UNL     1      11.115  12.981  19.315  0.00  0.00    +0.000 A 
ATOM     24 CL   UNL     1      12.272  14.225  19.577  0.00  0.00    +0.000 Cl
ATOM     25  C   UNL     1      10.467  12.877  18.086  0.00  0.00    +0.000 A 
ATOM     26  C   UNL     1       9.524  11.866  17.883  0.00  0.00    +0.000 A 
ENDBRANCH  19  20
ENDBRANCH  18  19
ENDBRANCH  15  18
ENDBRANCH   1  15
TORSDOF 8
ENDMDL
MODEL 5
REMARK VINA RESULT:      -7.2      4.745      7.322
REMARK  Name = 
REMARK  8 active torsions:
REMARK  status: ('A' for Active; 'I' for Inactive)
REMARK    1  A    between atoms: O_1  and  C_2
REMARK    2  A    between atoms: C_2  and  C_3
REMARK    3  A    between atoms: C_2  and  C_12
REMARK    4  A    between atoms: C_3  and  O_4
REMARK    5  A    between atoms: O_4  and  C_5
REMARK    6  A    between atoms: C_12  and  N_13
REMARK    7  A    between atoms: C_16  and  C_17
REMARK    8  A    between atoms: C_17  and  C_18
REMARK                            x       y       z     vdW  Elec       q    Type
REMARK                         _______ _______ _______ _____ _____    ______ ____
ROOT
ATOM      1  C   UNL     1       3.734   2.794  19.007  0.00  0.00    +0.000 C 
ENDROOT
BRANCH   1   2
ATOM      2  N   UNL     1       4.246   4.038  18.401  0.00  0.00    +0.000 NA
ATOM      3  C   UNL     1       5.610   4.345  18.845  0.00  0.00    +0.000 C 
ATOM      4  C   UNL     1       6.083   5.673  18.267  0.00  0.00    +0.000 C 
ATOM      5  C   UNL     1       6.052   5.665  16.735  0.00  0.00    +0.000 C 
ATOM      6  C   UNL     1       4.624   5.300  16.294  0.00  0.00    +0.000 C 
ATOM      7  C   UNL     1       4.123   4.000  16.938  0.00  0.00    +0.000 C 
BRANCH   5   8
ATOM      8  C   UNL     1       7.080   4.699  16.104  0.00  0.00    +0.000 C 
BRANCH   8   9
ATOM      9  C   UNL     1       7.004   4.557  14.601  0.00  0.00    +0.000 A 
ATOM     10  C   UNL     1       7.799   5.368  13.775  0.00  0.00    +0.000 A 
ATOM     11  C   UNL     1       7.767   5.219  12.389  0.00  0.00    +0.000 A 
ATOM     12  C   UNL     1       6.943   4.256  11.812  0.00  0.00    +0.000 A 
ATOM     13  C   UNL     1       6.145   3.451  12.621  0.00  0.00    +0.000 A 
ATOM     14  C   UNL     1       6.174   3.599  14.010  0.00  0.00    +0.000 A 
ENDBRANCH   8   9
ENDBRANCH   5   8
ENDBRANCH   1   2
BRANCH   1  15
ATOM     15  C   UNL     1       2.508   3.000  19.925  0.00  0.00    +0.000 C 
BRANCH  15  16
ATOM     16  O   UNL     1       2.922   3.055  21.297  0.00  0.00    +0.000 OA
ATOM     17  H   UNL     1       3.495   3.839  21.375  0.00  0.00    +0.000 HD
ENDBRANCH  15  16
BRANCH  15  18
ATOM     18  C   UNL     1       1.799   4.304  19.569  0.00  0.00    +0.000 C 
BRANCH  18  19
ATOM     19  O   UNL     1       2.470   5.379  20.240  0.00  0.00    +0.000 OA
BRANCH  19  20
ATOM     20  C   UNL     1       2.167   6.638  19.790  0.00  0.00    +0.000 A 
ATOM     21  C   UNL     1       2.428   7.116  18.505  0.00  0.00    +0.000 A 
ATOM     22  C   UNL     1       2.081   8.421  18.159  0.00  0.00    +0.000 A 
ATOM     23  C   UNL     1       1.471   9.249  19.097  0.00  0.00    +0.000 A 
ATOM     24 CL   UNL     1       1.053  10.859  18.664  0.00  0.00    +0.000 Cl
ATOM     25  C   UNL     1       1.201   8.778  20.380  0.00  0.00    +0.000 A 
ATOM     26  C   UNL     1       1.550   7.470  20.727  0.00  0.00    +0.000 A 
ENDBRANCH  19  20
ENDBRANCH  18  19
ENDBRANCH  15  18
ENDBRANCH   1  15
TORSDOF 8
ENDMDL
MODEL 6
REMARK VINA RESULT:      -7.2      1.212      1.797
REMARK  Name = 
REMARK  8 active torsions:
REMARK  status: ('A' for Active; 'I' for Inactive)
REMARK    1  A    between atoms: O_1  and  C_2
REMARK    2  A    between atoms: C_2  and  C_3
REMARK    3  A    between atoms: C_2  and  C_12
REMARK    4  A    between atoms: C_3  and  O_4
REMARK    5  A    between atoms: O_4  and  C_5
REMARK    6  A    between atoms: C_12  and  N_13
REMARK    7  A    between atoms: C_16  and  C_17
REMARK    8  A    between atoms: C_17  and  C_18
REMARK                            x       y       z     vdW  Elec       q    Type
REMARK                         _______ _______ _______ _____ _____    ______ ____
ROOT
ATOM      1  C   UNL     1       6.321   7.472  17.532  0.00  0.00    +0.000 C 
ENDROOT
BRANCH   1   2
ATOM      2  N   UNL     1       6.028   6.048  17.280  0.00  0.00    +0.000 NA
ATOM      3  C   UNL     1       5.438   5.392  18.452  0.00  0.00    +0.000 C 
ATOM      4  C   UNL     1       5.220   3.908  18.191  0.00  0.00    +0.000 C 
ATOM      5  C   UNL     1       4.307   3.674  16.983  0.00  0.00    +0.000 C 
ATOM      6  C   UNL     1       4.924   4.406  15.778  0.00  0.00    +0.000 C 
ATOM      7  C   UNL     1       5.212   5.884  16.071  0.00  0.00    +0.000 C 
BRANCH   5   8
ATOM      8  C   UNL     1       2.851   4.139  17.213  0.00  0.00    +0.000 C 
BRANCH   8   9
ATOM      9  C   UNL     1       2.255   3.776  18.554  0.00  0.00    +0.000 A 
ATOM     10  C   UNL     1       1.885   4.785  19.458  0.00  0.00    +0.000 A 
ATOM     11  C   UNL     1       1.297   4.463  20.681  0.00  0.00    +0.000 A 
ATOM     12  C   UNL     1       1.069   3.131  21.014  0.00  0.00    +0.000 A 
ATOM     13  C   UNL     1       1.438   2.121  20.128  0.00  0.00    +0.000 A 
ATOM     14  C   UNL     1       2.028   2.441  18.903  0.00  0.00    +0.000 A 
ENDBRANCH   8   9
ENDBRANCH   5   8
ENDBRANCH   1   2
BRANCH   1  15
ATOM     15  C   UNL     1       7.826   7.788  17.683  0.00  0.00    +0.000 C 
BRANCH  15  16
ATOM     16  O   UNL     1       8.525   7.451  16.477  0.00  0.00    +0.000 OA
ATOM     17  H   UNL     1       9.131   8.193  16.300  0.00  0.00    +0.000 HD
ENDBRANCH  15  16
BRANCH  15  18
ATOM     18  C   UNL     1       8.024   9.274  17.971  0.00  0.00    +0.000 C 
BRANCH  18  19
ATOM     19  O   UNL     1       8.886   9.400  19.110  0.00  0.00    +0.000 OA
BRANCH  19  20
ATOM     20  C   UNL     1       9.534  10.602  19.231  0.00  0.00    +0.000 A 
ATOM     21  C   UNL     1       9.874  11.214  20.438  0.00  0.00    +0.000 A 
ATOM     22  C   UNL     1      10.530  12.444  20.440  0.00  0.00    +0.000 A 
ATOM     23  C   UNL     1      10.848  13.064  19.234  0.00  0.00    +0.000 A 
ATOM     24 CL   UNL     1      11.649  14.584  19.246  0.00  0.00    +0.000 Cl
ATOM     25  C   UNL     1      10.517  12.457  18.025  0.00  0.00    +0.000 A 
ATOM     26  C   UNL     1       9.860  11.224  18.023  0.00  0.00    +0.000 A 
ENDBRANCH  19  20
ENDBRANCH  18  19
ENDBRANCH  15  18
ENDBRANCH   1  15
TORSDOF 8
ENDMDL
MODEL 7
REMARK VINA RESULT:      -7.2      1.068      1.549
REMARK  Name = 
REMARK  8 active torsions:
REMARK  status: ('A' for Active; 'I' for Inactive)
REMARK    1  A    between atoms: O_1  and  C_2
REMARK    2  A    between atoms: C_2  and  C_3
REMARK    3  A    between atoms: C_2  and  C_12
REMARK    4  A    between atoms: C_3  and  O_4
REMARK    5  A    between atoms: O_4  and  C_5
REMARK    6  A    between atoms: C_12  and  N_13
REMARK    7  A    between atoms: C_16  and  C_17
REMARK    8  A    between atoms: C_17  and  C_18
REMARK                            x       y       z     vdW  Elec       q    Type
REMARK                         _______ _______ _______ _____ _____    ______ ____
ROOT
ATOM      1  C   UNL     1       7.636   6.984  16.765  0.00  0.00    +0.000 C 
ENDROOT
BRANCH   1   2
ATOM      2  N   UNL     1       6.949   5.678  16.794  0.00  0.00    +0.000 NA
ATOM      3  C   UNL     1       6.316   5.420  18.092  0.00  0.00    +0.000 C 
ATOM      4  C   UNL     1       5.684   4.034  18.120  0.00  0.00    +0.000 C 
ATOM      5  C   UNL     1       4.634   3.869  17.017  0.00  0.00    +0.000 C 
ATOM      6  C   UNL     1       5.311   4.186  15.672  0.00  0.00    +0.000 C 
ATOM      7  C   UNL     1       6.011   5.552  15.672  0.00  0.00    +0.000 C 
BRANCH   5   8
ATOM      8  C   UNL     1       3.384   4.756  17.218  0.00  0.00    +0.000 C 
BRANCH   8   9
ATOM      9  C   UNL     1       2.503   4.383  18.388  0.00  0.00    +0.000 A 
ATOM     10  C   UNL     1       2.408   5.236  19.500  0.00  0.00    +0.000 A 
ATOM     11  C   UNL     1       1.566   4.923  20.567  0.00  0.00    +0.000 A 
ATOM     12  C   UNL     1       0.809   3.756  20.535  0.00  0.00    +0.000 A 
ATOM     13  C   UNL     1       0.900   2.898  19.441  0.00  0.00    +0.000 A 
ATOM     14  C   UNL     1       1.742   3.209  18.371  0.00  0.00    +0.000 A 
ENDBRANCH   8   9
ENDBRANCH   5   8
ENDBRANCH   1   2
BRANCH   1  15
ATOM     15  C   UNL     1       7.641   7.724  18.121  0.00  0.00    +0.000 C 
BRANCH  15  16
ATOM     16  O   UNL     1       8.560   7.095  19.024  0.00  0.00    +0.000 OA
ATOM     17  H   UNL     1       9.451   7.308  18.694  0.00  0.00    +0.000 HD
ENDBRANCH  15  16
BRANCH  15  18
ATOM     18  C   UNL     1       8.058   9.179  17.924  0.00  0.00    +0.000 C 
BRANCH  18  19
ATOM     19  O   UNL     1       9.166   9.451  18.793  0.00  0.00    +0.000 OA
BRANCH  19  20
ATOM     20  C   UNL     1       9.301  10.756  19.188  0.00  0.00    +0.000 A 
ATOM     21  C   UNL     1       9.269  11.861  18.337  0.00  0.00    +0.000 A 
ATOM     22  C   UNL     1       9.424  13.148  18.851  0.00  0.00    +0.000 A 
ATOM     23  C   UNL     1       9.609  13.331  20.219  0.00  0.00    +0.000 A 
ATOM     24 CL   UNL     1       9.807  14.920  20.843  0.00  0.00    +0.000 Cl
ATOM     25  C   UNL     1       9.636  12.234  21.076  0.00  0.00    +0.000 A 
ATOM     26  C   UNL     1       9.481  10.945  20.561  0.00  0.00    +0.000 A 
ENDBRANCH  19  20
ENDBRANCH  18  19
ENDBRANCH  15  18
ENDBRANCH   1  15
TORSDOF 8
ENDMDL
MODEL 8
REMARK VINA RESULT:      -7.2      4.776      7.503
REMARK  Name = 
REMARK  8 active torsions:
REMARK  status: ('A' for Active; 'I' for Inactive)
REMARK    1  A    between atoms: O_1  and  C_2
REMARK    2  A    between atoms: C_2  and  C_3
REMARK    3  A    between atoms: C_2  and  C_12
REMARK    4  A    between atoms: C_3  and  O_4
REMARK    5  A    between atoms: O_4  and  C_5
REMARK    6  A    between atoms: C_12  and  N_13
REMARK    7  A    between atoms: C_16  and  C_17
REMARK    8  A    between atoms: C_17  and  C_18
REMARK                            x       y       z     vdW  Elec       q    Type
REMARK                         _______ _______ _______ _____ _____    ______ ____
ROOT
ATOM      1  C   UNL     1       3.353   4.742  19.234  0.00  0.00    +0.000 C 
ENDROOT
BRANCH   1   2
ATOM      2  N   UNL     1       4.363   5.560  18.535  0.00  0.00    +0.000 NA
ATOM      3  C   UNL     1       5.729   5.202  18.929  0.00  0.00    +0.000 C 
ATOM      4  C   UNL     1       6.746   6.114  18.253  0.00  0.00    +0.000 C 
ATOM      5  C   UNL     1       6.638   6.047  16.726  0.00  0.00    +0.000 C 
ATOM      6  C   UNL     1       5.186   6.385  16.341  0.00  0.00    +0.000 C 
ATOM      7  C   UNL     1       4.163   5.514  17.081  0.00  0.00    +0.000 C 
BRANCH   5   8
ATOM      8  C   UNL     1       7.050   4.678  16.139  0.00  0.00    +0.000 C 
BRANCH   8   9
ATOM      9  C   UNL     1       6.982   4.567  14.634  0.00  0.00    +0.000 A 
ATOM     10  C   UNL     1       7.803   5.373  13.829  0.00  0.00    +0.000 A 
ATOM     11  C   UNL     1       7.777   5.250  12.440  0.00  0.00    +0.000 A 
ATOM     12  C   UNL     1       6.934   4.320  11.839  0.00  0.00    +0.000 A 
ATOM     13  C   UNL     1       6.110   3.519  12.627  0.00  0.00    +0.000 A 
ATOM     14  C   UNL     1       6.133   3.640  14.018  0.00  0.00    +0.000 A 
ENDBRANCH   8   9
ENDBRANCH   5   8
ENDBRANCH   1   2
BRANCH   1  15
ATOM     15  C   UNL     1       2.257   5.567  19.945  0.00  0.00    +0.000 C 
BRANCH  15  16
ATOM     16  O   UNL     1       2.311   5.346  21.360  0.00  0.00    +0.000 OA
ATOM     17  H   UNL     1       1.413   5.076  21.626  0.00  0.00    +0.000 HD
ENDBRANCH  15  16
BRANCH  15  18
ATOM     18  C   UNL     1       2.457   7.055  19.668  0.00  0.00    +0.000 C 
BRANCH  18  19
ATOM     19  O   UNL     1       1.788   7.797  20.697  0.00  0.00    +0.000 OA
BRANCH  19  20
ATOM     20  C   UNL     1       1.107   8.909  20.275  0.00  0.00    +0.000 A 
ATOM     21  C   UNL     1       1.198   9.472  19.001  0.00  0.00    +0.000 A 
ATOM     22  C   UNL     1       0.460  10.613  18.684  0.00  0.00    +0.000 A 
ATOM     23  C   UNL     1      -0.371  11.190  19.641  0.00  0.00    +0.000 A 
ATOM     24 CL   UNL     1      -1.271  12.599  19.244  0.00  0.00    +0.000 Cl
ATOM     25  C   UNL     1      -0.472  10.631  20.912  0.00  0.00    +0.000 A 
ATOM     26  C   UNL     1       0.267   9.488  21.230  0.00  0.00    +0.000 A 
ENDBRANCH  19  20
ENDBRANCH  18  19
ENDBRANCH  15  18
ENDBRANCH   1  15
TORSDOF 8
ENDMDL
MODEL 9
REMARK VINA RESULT:      -7.0      5.129      7.732
REMARK  Name = 
REMARK  8 active torsions:
REMARK  status: ('A' for Active; 'I' for Inactive)
REMARK    1  A    between atoms: O_1  and  C_2
REMARK    2  A    between atoms: C_2  and  C_3
REMARK    3  A    between atoms: C_2  and  C_12
REMARK    4  A    between atoms: C_3  and  O_4
REMARK    5  A    between atoms: O_4  and  C_5
REMARK    6  A    between atoms: C_12  and  N_13
REMARK    7  A    between atoms: C_16  and  C_17
REMARK    8  A    between atoms: C_17  and  C_18
REMARK                            x       y       z     vdW  Elec       q    Type
REMARK                         _______ _______ _______ _____ _____    ______ ____
ROOT
ATOM      1  C   UNL     1       3.867   5.450  19.799  0.00  0.00    +0.000 C 
ENDROOT
BRANCH   1   2
ATOM      2  N   UNL     1       5.026   5.777  18.946  0.00  0.00    +0.000 NA
ATOM      3  C   UNL     1       6.004   4.684  18.906  0.00  0.00    +0.000 C 
ATOM      4  C   UNL     1       7.224   5.079  18.084  0.00  0.00    +0.000 C 
ATOM      5  C   UNL     1       6.842   5.451  16.648  0.00  0.00    +0.000 C 
ATOM      6  C   UNL     1       5.785   6.568  16.717  0.00  0.00    +0.000 C 
ATOM      7  C   UNL     1       4.592   6.196  17.607  0.00  0.00    +0.000 C 
BRANCH   5   8
ATOM      8  C   UNL     1       6.317   4.256  15.821  0.00  0.00    +0.000 C 
BRANCH   8   9
ATOM      9  C   UNL     1       6.644   4.291  14.346  0.00  0.00    +0.000 A 
ATOM     10  C   UNL     1       5.998   3.414  13.459  0.00  0.00    +0.000 A 
ATOM     11  C   UNL     1       6.262   3.465  12.091  0.00  0.00    +0.000 A 
ATOM     12  C   UNL     1       7.172   4.393  11.592  0.00  0.00    +0.000 A 
ATOM     13  C   UNL     1       7.824   5.263  12.463  0.00  0.00    +0.000 A 
ATOM     14  C   UNL     1       7.562   5.214  13.834  0.00  0.00    +0.000 A 
ENDBRANCH   8   9
ENDBRANCH   5   8
ENDBRANCH   1   2
BRANCH   1  15
ATOM     15  C   UNL     1       2.527   6.027  19.288  0.00  0.00    +0.000 C 
BRANCH  15  16
ATOM     16  O   UNL     1       1.645   4.963  18.904  0.00  0.00    +0.000 OA
ATOM     17  H   UNL     1       1.843   4.220  19.502  0.00  0.00    +0.000 HD
ENDBRANCH  15  16
BRANCH  15  18
ATOM     18  C   UNL     1       1.859   6.852  20.384  0.00  0.00    +0.000 C 
BRANCH  18  19
ATOM     19  O   UNL     1       1.622   8.171  19.873  0.00  0.00    +0.000 OA
BRANCH  19  20
ATOM     20  C   UNL     1       0.915   9.007  20.697  0.00  0.00    +0.000 A 
ATOM     21  C   UNL     1       0.318   8.632  21.902  0.00  0.00    +0.000 A 
ATOM     22  C   UNL     1      -0.384   9.569  22.659  0.00  0.00    +0.000 A 
ATOM     23  C   UNL     1      -0.489  10.884  22.212  0.00  0.00    +0.000 A 
ATOM     24 CL   UNL     1      -1.363  12.030  23.147  0.00  0.00    +0.000 Cl
ATOM     25  C   UNL     1       0.108  11.268  21.014  0.00  0.00    +0.000 A 
ATOM     26  C   UNL     1       0.812  10.328  20.256  0.00  0.00    +0.000 A 
ENDBRANCH  19  20
ENDBRANCH  18  19
ENDBRANCH  15  18
ENDBRANCH   1  15
TORSDOF 8
ENDMDL
