MODEL 1
REMARK VINA RESULT:      -7.0      0.000      0.000
REMARK  Name = 
REMARK  3 active torsions:
REMARK  status: ('A' for Active; 'I' for Inactive)
REMARK    1  A    between atoms: C_2  and  C_11
REMARK    2  A    between atoms: N_3  and  N_4
REMARK    3  A    between atoms: C_5  and  C_6
REMARK                            x       y       z     vdW  Elec       q    Type
REMARK                         _______ _______ _______ _____ _____    ______ ____
ROOT
ATOM      1  O   UNL     1       8.124   6.364  18.891  0.00  0.00    +0.000 OA
ATOM      2  C   UNL     1       7.209   6.639  18.119  0.00  0.00    +0.000 C 
ATOM      3  N   UNL     1       7.179   7.778  17.321  0.00  0.00    +0.000 N 
ATOM      4  H   UNL     1       6.379   7.921  16.712  0.00  0.00    +0.000 HD
ENDROOT
BRANCH   2   5
ATOM      5  C   UNL     1       6.042   5.796  17.955  0.00  0.00    +0.000 A 
ATOM      6  C   UNL     1       5.937   4.447  17.664  0.00  0.00    +0.000 A 
ATOM      7  C   UNL     1       4.554   4.134  17.632  0.00  0.00    +0.000 A 
ATOM      8  C   UNL     1       3.791   2.975  17.407  0.00  0.00    +0.000 A 
ATOM      9  C   UNL     1       2.394   3.068  17.464  0.00  0.00    +0.000 A 
ATOM     10  C   UNL     1       1.763   4.285  17.735  0.00  0.00    +0.000 A 
ATOM     11  C   UNL     1       2.505   5.450  17.961  0.00  0.00    +0.000 A 
ATOM     12  C   UNL     1       3.892   5.325  17.902  0.00  0.00    +0.000 A 
ATOM     13  O   UNL     1       4.787   6.335  18.098  0.00  0.00    +0.000 OA
ENDBRANCH   2   5
BRANCH   3  14
ATOM     14  N   UNL     1       8.199   8.687  17.363  0.00  0.00    +0.000 NA
ATOM     15  C   UNL     1       7.970   9.758  18.051  0.00  0.00    +0.000 C 
BRANCH  15  16
ATOM     16  C   UNL     1       8.986  10.770  18.150  0.00  0.00    +0.000 A 
ATOM     17  C   UNL     1      10.250  10.695  18.705  0.00  0.00    +0.000 A 
ATOM     18  C   UNL     1      10.865  11.963  18.563  0.00  0.00    +0.000 A 
ATOM     19  C   UNL     1       9.964  12.783  17.923  0.00  0.00    +0.000 A 
ATOM     20  N   UNL     1       8.834  12.053  17.672  0.00  0.00    +0.000 N 
ATOM     21  H   UNL     1       7.994  12.386  17.209  0.00  0.00    +0.000 HD
ENDBRANCH  15  16
ENDBRANCH   3  14
TORSDOF 3
ENDMDL
MODEL 2
REMARK VINA RESULT:      -6.9      1.163      1.721
REMARK  Name = 
REMARK  3 active torsions:
REMARK  status: ('A' for Active; 'I' for Inactive)
REMARK    1  A    between atoms: C_2  and  C_11
REMARK    2  A    between atoms: N_3  and  N_4
REMARK    3  A    between atoms: C_5  and  C_6
REMARK                            x       y       z     vdW  Elec       q    Type
REMARK                         _______ _______ _______ _____ _____    ______ ____
ROOT
ATOM      1  O   UNL     1       7.893   6.673  16.273  0.00  0.00    +0.000 OA
ATOM      2  C   UNL     1       7.033   7.094  17.043  0.00  0.00    +0.000 C 
ATOM      3  N   UNL     1       7.170   8.247  17.808  0.00  0.00    +0.000 N 
ATOM      4  H   UNL     1       6.403   8.516  18.418  0.00  0.00    +0.000 HD
ENDROOT
BRANCH   2   5
ATOM      5  C   UNL     1       5.765   6.422  17.244  0.00  0.00    +0.000 A 
ATOM      6  C   UNL     1       4.532   6.919  17.628  0.00  0.00    +0.000 A 
ATOM      7  C   UNL     1       3.631   5.823  17.656  0.00  0.00    +0.000 A 
ATOM      8  C   UNL     1       2.267   5.651  17.949  0.00  0.00    +0.000 A 
ATOM      9  C   UNL     1       1.717   4.365  17.860  0.00  0.00    +0.000 A 
ATOM     10  C   UNL     1       2.503   3.269  17.491  0.00  0.00    +0.000 A 
ATOM     11  C   UNL     1       3.862   3.421  17.197  0.00  0.00    +0.000 A 
ATOM     12  C   UNL     1       4.380   4.711  17.291  0.00  0.00    +0.000 A 
ATOM     13  O   UNL     1       5.672   5.067  17.040  0.00  0.00    +0.000 OA
ENDBRANCH   2   5
BRANCH   3  14
ATOM     14  N   UNL     1       8.312   8.994  17.747  0.00  0.00    +0.000 NA
ATOM     15  C   UNL     1       8.500   9.817  18.727  0.00  0.00    +0.000 C 
BRANCH  15  16
ATOM     16  C   UNL     1       9.676  10.644  18.746  0.00  0.00    +0.000 A 
ATOM     17  C   UNL     1      10.418  11.091  19.823  0.00  0.00    +0.000 A 
ATOM     18  C   UNL     1      11.480  11.884  19.321  0.00  0.00    +0.000 A 
ATOM     19  C   UNL     1      11.362  11.903  17.951  0.00  0.00    +0.000 A 
ATOM     20  N   UNL     1      10.273  11.146  17.611  0.00  0.00    +0.000 N 
ATOM     21  H   UNL     1       9.934  10.970  16.671  0.00  0.00    +0.000 HD
ENDBRANCH  15  16
ENDBRANCH   3  14
TORSDOF 3
ENDMDL
MODEL 3
REMARK VINA RESULT:      -6.9      4.868      7.077
REMARK  Name = 
REMARK  3 active torsions:
REMARK  status: ('A' for Active; 'I' for Inactive)
REMARK    1  A    between atoms: C_2  and  C_11
REMARK    2  A    between atoms: N_3  and  N_4
REMARK    3  A    between atoms: C_5  and  C_6
REMARK                            x       y       z     vdW  Elec       q    Type
REMARK                         _______ _______ _______ _____ _____    ______ ____
ROOT
ATOM      1  O   UNL     1       1.642   5.235  20.568  0.00  0.00    +0.000 OA
ATOM      2  C   UNL     1       2.342   6.008  19.918  0.00  0.00    +0.000 C 
ATOM      3  N   UNL     1       2.262   7.394  20.007  0.00  0.00    +0.000 N 
ATOM      4  H   UNL     1       2.883   7.952  19.429  0.00  0.00    +0.000 HD
ENDROOT
BRANCH   2   5
ATOM      5  C   UNL     1       3.339   5.553  18.969  0.00  0.00    +0.000 A 
ATOM      6  C   UNL     1       3.200   5.052  17.687  0.00  0.00    +0.000 A 
ATOM      7  C   UNL     1       4.505   4.774  17.205  0.00  0.00    +0.000 A 
ATOM      8  C   UNL     1       5.049   4.271  16.011  0.00  0.00    +0.000 A 
ATOM      9  C   UNL     1       6.441   4.138  15.909  0.00  0.00    +0.000 A 
ATOM     10  C   UNL     1       7.278   4.493  16.970  0.00  0.00    +0.000 A 
ATOM     11  C   UNL     1       6.755   4.996  18.167  0.00  0.00    +0.000 A 
ATOM     12  C   UNL     1       5.369   5.120  18.237  0.00  0.00    +0.000 A 
ATOM     13  O   UNL     1       4.669   5.592  19.307  0.00  0.00    +0.000 OA
ENDBRANCH   2   5
BRANCH   3  14
ATOM     14  N   UNL     1       1.363   7.988  20.848  0.00  0.00    +0.000 NA
ATOM     15  C   UNL     1       1.171   9.253  20.663  0.00  0.00    +0.000 C 
BRANCH  15  16
ATOM     16  C   UNL     1       0.243   9.962  21.501  0.00  0.00    +0.000 A 
ATOM     17  C   UNL     1      -0.356  11.193  21.304  0.00  0.00    +0.000 A 
ATOM     18  C   UNL     1      -1.186  11.457  22.422  0.00  0.00    +0.000 A 
ATOM     19  C   UNL     1      -1.076  10.383  23.275  0.00  0.00    +0.000 A 
ATOM     20  N   UNL     1      -0.215   9.482  22.707  0.00  0.00    +0.000 N 
ATOM     21  H   UNL     1       0.064   8.589  23.101  0.00  0.00    +0.000 HD
ENDBRANCH  15  16
ENDBRANCH   3  14
TORSDOF 3
ENDMDL
MODEL 4
REMARK VINA RESULT:      -6.8      4.857      7.315
REMARK  Name = 
REMARK  3 active torsions:
REMARK  status: ('A' for Active; 'I' for Inactive)
REMARK    1  A    between atoms: C_2  and  C_11
REMARK    2  A    between atoms: N_3  and  N_4
REMARK    3  A    between atoms: C_5  and  C_6
REMARK                            x       y       z     vdW  Elec       q    Type
REMARK                         _______ _______ _______ _____ _____    ______ ____
ROOT
ATOM      1  O   UNL     1       2.238   8.876  17.357  0.00  0.00    +0.000 OA
ATOM      2  C   UNL     1       2.089   8.247  18.402  0.00  0.00    +0.000 C 
ATOM      3  N   UNL     1       2.562   6.955  18.608  0.00  0.00    +0.000 N 
ATOM      4  H   UNL     1       2.390   6.515  19.507  0.00  0.00    +0.000 HD
ENDROOT
BRANCH   2   5
ATOM      5  C   UNL     1       1.389   8.789  19.550  0.00  0.00    +0.000 A 
ATOM      6  C   UNL     1       1.266   8.306  20.841  0.00  0.00    +0.000 A 
ATOM      7  C   UNL     1       0.480   9.242  21.562  0.00  0.00    +0.000 A 
ATOM      8  C   UNL     1       0.005   9.351  22.880  0.00  0.00    +0.000 A 
ATOM      9  C   UNL     1      -0.770  10.466  23.227  0.00  0.00    +0.000 A 
ATOM     10  C   UNL     1      -1.072  11.454  22.285  0.00  0.00    +0.000 A 
ATOM     11  C   UNL     1      -0.609  11.363  20.968  0.00  0.00    +0.000 A 
ATOM     12  C   UNL     1       0.162  10.245  20.654  0.00  0.00    +0.000 A 
ATOM     13  O   UNL     1       0.709   9.976  19.435  0.00  0.00    +0.000 OA
ENDBRANCH   2   5
BRANCH   3  14
ATOM     14  N   UNL     1       3.234   6.293  17.620  0.00  0.00    +0.000 NA
ATOM     15  C   UNL     1       4.506   6.149  17.804  0.00  0.00    +0.000 C 
BRANCH  15  16
ATOM     16  C   UNL     1       5.295   5.465  16.816  0.00  0.00    +0.000 A 
ATOM     17  C   UNL     1       5.117   4.209  16.264  0.00  0.00    +0.000 A 
ATOM     18  C   UNL     1       6.167   3.987  15.339  0.00  0.00    +0.000 A 
ATOM     19  C   UNL     1       6.960   5.111  15.345  0.00  0.00    +0.000 A 
ATOM     20  N   UNL     1       6.423   6.001  16.236  0.00  0.00    +0.000 N 
ATOM     21  H   UNL     1       6.786   6.923  16.456  0.00  0.00    +0.000 HD
ENDBRANCH  15  16
ENDBRANCH   3  14
TORSDOF 3
ENDMDL
MODEL 5
REMARK VINA RESULT:      -6.7      2.220      8.241
REMARK  Name = 
REMARK  3 active torsions:
REMARK  status: ('A' for Active; 'I' for Inactive)
REMARK    1  A    between atoms: C_2  and  C_11
REMARK    2  A    between atoms: N_3  and  N_4
REMARK    3  A    between atoms: C_5  and  C_6
REMARK                            x       y       z     vdW  Elec       q    Type
REMARK                         _______ _______ _______ _____ _____    ______ ____
ROOT
ATOM      1  O   UNL     1       7.484   6.715  16.574  0.00  0.00    +0.000 OA
ATOM      2  C   UNL     1       7.619   7.132  17.722  0.00  0.00    +0.000 C 
ATOM      3  N   UNL     1       7.284   6.404  18.859  0.00  0.00    +0.000 N 
ATOM      4  H   UNL     1       7.431   6.833  19.768  0.00  0.00    +0.000 HD
ENDROOT
BRANCH   2   5
ATOM      5  C   UNL     1       8.144   8.449  18.021  0.00  0.00    +0.000 A 
ATOM      6  C   UNL     1       8.040   9.640  17.324  0.00  0.00    +0.000 A 
ATOM      7  C   UNL     1       8.734  10.624  18.076  0.00  0.00    +0.000 A 
ATOM      8  C   UNL     1       8.994  11.998  17.934  0.00  0.00    +0.000 A 
ATOM      9  C   UNL     1       9.744  12.646  18.925  0.00  0.00    +0.000 A 
ATOM     10  C   UNL     1      10.230  11.947  20.033  0.00  0.00    +0.000 A 
ATOM     11  C   UNL     1       9.983  10.579  20.191  0.00  0.00    +0.000 A 
ATOM     12  C   UNL     1       9.231   9.963  19.192  0.00  0.00    +0.000 A 
ATOM     13  O   UNL     1       8.878   8.647  19.164  0.00  0.00    +0.000 OA
ENDBRANCH   2   5
BRANCH   3  14
ATOM     14  N   UNL     1       6.762   5.146  18.754  0.00  0.00    +0.000 NA
ATOM     15  C   UNL     1       5.476   5.059  18.859  0.00  0.00    +0.000 C 
BRANCH  15  16
ATOM     16  C   UNL     1       4.839   3.774  18.762  0.00  0.00    +0.000 A 
ATOM     17  C   UNL     1       3.970   3.295  17.799  0.00  0.00    +0.000 A 
ATOM     18  C   UNL     1       3.614   1.970  18.154  0.00  0.00    +0.000 A 
ATOM     19  C   UNL     1       4.274   1.670  19.323  0.00  0.00    +0.000 A 
ATOM     20  N   UNL     1       5.017   2.763  19.680  0.00  0.00    +0.000 N 
ATOM     21  H   UNL     1       5.613   2.843  20.497  0.00  0.00    +0.000 HD
ENDBRANCH  15  16
ENDBRANCH   3  14
TORSDOF 3
ENDMDL
MODEL 6
REMARK VINA RESULT:      -6.7      1.266      1.615
REMARK  Name = 
REMARK  3 active torsions:
REMARK  status: ('A' for Active; 'I' for Inactive)
REMARK    1  A    between atoms: C_2  and  C_11
REMARK    2  A    between atoms: N_3  and  N_4
REMARK    3  A    between atoms: C_5  and  C_6
REMARK                            x       y       z     vdW  Elec       q    Type
REMARK                         _______ _______ _______ _____ _____    ______ ____
ROOT
ATOM      1  O   UNL     1       8.247   6.023  19.154  0.00  0.00    +0.000 OA
ATOM      2  C   UNL     1       7.319   6.267  18.387  0.00  0.00    +0.000 C 
ATOM      3  N   UNL     1       7.249   7.401  17.585  0.00  0.00    +0.000 N 
ATOM      4  H   UNL     1       6.440   7.517  16.982  0.00  0.00    +0.000 HD
ENDROOT
BRANCH   2   5
ATOM      5  C   UNL     1       6.175   5.389  18.237  0.00  0.00    +0.000 A 
ATOM      6  C   UNL     1       5.211   5.327  17.246  0.00  0.00    +0.000 A 
ATOM      7  C   UNL     1       4.329   4.270  17.590  0.00  0.00    +0.000 A 
ATOM      8  C   UNL     1       3.180   3.695  17.020  0.00  0.00    +0.000 A 
ATOM      9  C   UNL     1       2.566   2.622  17.681  0.00  0.00    +0.000 A 
ATOM     10  C   UNL     1       3.077   2.129  18.885  0.00  0.00    +0.000 A 
ATOM     11  C   UNL     1       4.220   2.689  19.467  0.00  0.00    +0.000 A 
ATOM     12  C   UNL     1       4.810   3.751  18.785  0.00  0.00    +0.000 A 
ATOM     13  O   UNL     1       5.928   4.425  19.182  0.00  0.00    +0.000 OA
ENDBRANCH   2   5
BRANCH   3  14
ATOM     14  N   UNL     1       8.242   8.339  17.616  0.00  0.00    +0.000 NA
ATOM     15  C   UNL     1       8.159   9.215  18.563  0.00  0.00    +0.000 C 
BRANCH  15  16
ATOM     16  C   UNL     1       9.160  10.242  18.673  0.00  0.00    +0.000 A 
ATOM     17  C   UNL     1       9.779  10.975  17.678  0.00  0.00    +0.000 A 
ATOM     18  C   UNL     1      10.699  11.858  18.296  0.00  0.00    +0.000 A 
ATOM     19  C   UNL     1      10.619  11.646  19.653  0.00  0.00    +0.000 A 
ATOM     20  N   UNL     1       9.683  10.671  19.872  0.00  0.00    +0.000 N 
ATOM     21  H   UNL     1       9.402  10.301  20.774  0.00  0.00    +0.000 HD
ENDBRANCH  15  16
ENDBRANCH   3  14
TORSDOF 3
ENDMDL
MODEL 7
REMARK VINA RESULT:      -6.7      4.762      7.281
REMARK  Name = 
REMARK  3 active torsions:
REMARK  status: ('A' for Active; 'I' for Inactive)
REMARK    1  A    between atoms: C_2  and  C_11
REMARK    2  A    between atoms: N_3  and  N_4
REMARK    3  A    between atoms: C_5  and  C_6
REMARK                            x       y       z     vdW  Elec       q    Type
REMARK                         _______ _______ _______ _____ _____    ______ ____
ROOT
ATOM      1  O   UNL     1       2.310   5.743  20.326  0.00  0.00    +0.000 OA
ATOM      2  C   UNL     1       2.269   6.836  19.766  0.00  0.00    +0.000 C 
ATOM      3  N   UNL     1       2.916   7.123  18.569  0.00  0.00    +0.000 N 
ATOM      4  H   UNL     1       2.825   8.058  18.182  0.00  0.00    +0.000 HD
ENDROOT
BRANCH   2   5
ATOM      5  C   UNL     1       1.535   7.964  20.303  0.00  0.00    +0.000 A 
ATOM      6  C   UNL     1       1.179   9.168  19.721  0.00  0.00    +0.000 A 
ATOM      7  C   UNL     1       0.455   9.904  20.694  0.00  0.00    +0.000 A 
ATOM      8  C   UNL     1      -0.174  11.159  20.742  0.00  0.00    +0.000 A 
ATOM      9  C   UNL     1      -0.813  11.548  21.928  0.00  0.00    +0.000 A 
ATOM     10  C   UNL     1      -0.825  10.711  23.047  0.00  0.00    +0.000 A 
ATOM     11  C   UNL     1      -0.204   9.458  23.019  0.00  0.00    +0.000 A 
ATOM     12  C   UNL     1       0.419   9.098  21.826  0.00  0.00    +0.000 A 
ATOM     13  O   UNL     1       1.071   7.923  21.595  0.00  0.00    +0.000 OA
ENDBRANCH   2   5
BRANCH   3  14
ATOM     14  N   UNL     1       3.665   6.172  17.935  0.00  0.00    +0.000 NA
ATOM     15  C   UNL     1       4.439   6.601  16.992  0.00  0.00    +0.000 C 
BRANCH  15  16
ATOM     16  C   UNL     1       5.263   5.670  16.269  0.00  0.00    +0.000 A 
ATOM     17  C   UNL     1       5.004   4.360  15.914  0.00  0.00    +0.000 A 
ATOM     18  C   UNL     1       6.134   3.867  15.216  0.00  0.00    +0.000 A 
ATOM     19  C   UNL     1       7.056   4.886  15.159  0.00  0.00    +0.000 A 
ATOM     20  N   UNL     1       6.519   5.975  15.793  0.00  0.00    +0.000 N 
ATOM     21  H   UNL     1       6.962   6.880  15.912  0.00  0.00    +0.000 HD
ENDBRANCH  15  16
ENDBRANCH   3  14
TORSDOF 3
ENDMDL
MODEL 8
REMARK VINA RESULT:      -6.7      4.975      6.988
REMARK  Name = 
REMARK  3 active torsions:
REMARK  status: ('A' for Active; 'I' for Inactive)
REMARK    1  A    between atoms: C_2  and  C_11
REMARK    2  A    between atoms: N_3  and  N_4
REMARK    3  A    between atoms: C_5  and  C_6
REMARK                            x       y       z     vdW  Elec       q    Type
REMARK                         _______ _______ _______ _____ _____    ______ ____
ROOT
ATOM      1  O   UNL     1       1.730   5.456  20.676  0.00  0.00    +0.000 OA
ATOM      2  C   UNL     1       2.283   6.200  19.870  0.00  0.00    +0.000 C 
ATOM      3  N   UNL     1       2.168   7.586  19.884  0.00  0.00    +0.000 N 
ATOM      4  H   UNL     1       2.663   8.119  19.176  0.00  0.00    +0.000 HD
ENDROOT
BRANCH   2   5
ATOM      5  C   UNL     1       3.125   5.707  18.798  0.00  0.00    +0.000 A 
ATOM      6  C   UNL     1       3.493   4.417  18.462  0.00  0.00    +0.000 A 
ATOM      7  C   UNL     1       4.322   4.506  17.313  0.00  0.00    +0.000 A 
ATOM      8  C   UNL     1       5.000   3.590  16.491  0.00  0.00    +0.000 A 
ATOM      9  C   UNL     1       5.743   4.081  15.408  0.00  0.00    +0.000 A 
ATOM     10  C   UNL     1       5.816   5.452  15.146  0.00  0.00    +0.000 A 
ATOM     11  C   UNL     1       5.148   6.379  15.955  0.00  0.00    +0.000 A 
ATOM     12  C   UNL     1       4.415   5.861  17.021  0.00  0.00    +0.000 A 
ATOM     13  O   UNL     1       3.692   6.593  17.916  0.00  0.00    +0.000 OA
ENDBRANCH   2   5
BRANCH   3  14
ATOM     14  N   UNL     1       1.400   8.213  20.824  0.00  0.00    +0.000 NA
ATOM     15  C   UNL     1       0.970   9.390  20.505  0.00  0.00    +0.000 C 
BRANCH  15  16
ATOM     16  C   UNL     1       0.154  10.126  21.434  0.00  0.00    +0.000 A 
ATOM     17  C   UNL     1      -0.236  11.452  21.402  0.00  0.00    +0.000 A 
ATOM     18  C   UNL     1      -1.029  11.700  22.549  0.00  0.00    +0.000 A 
ATOM     19  C   UNL     1      -1.107  10.521  23.254  0.00  0.00    +0.000 A 
ATOM     20  N   UNL     1      -0.394   9.573  22.570  0.00  0.00    +0.000 N 
ATOM     21  H   UNL     1      -0.270   8.603  22.841  0.00  0.00    +0.000 HD
ENDBRANCH  15  16
ENDBRANCH   3  14
TORSDOF 3
ENDMDL
MODEL 9
REMARK VINA RESULT:      -6.7      1.047      1.071
REMARK  Name = 
REMARK  3 active torsions:
REMARK  status: ('A' for Active; 'I' for Inactive)
REMARK    1  A    between atoms: C_2  and  C_11
REMARK    2  A    between atoms: N_3  and  N_4
REMARK    3  A    between atoms: C_5  and  C_6
REMARK                            x       y       z     vdW  Elec       q    Type
REMARK                         _______ _______ _______ _____ _____    ______ ____
ROOT
ATOM      1  O   UNL     1       7.887   6.469  16.161  0.00  0.00    +0.000 OA
ATOM      2  C   UNL     1       6.986   6.824  16.916  0.00  0.00    +0.000 C 
ATOM      3  N   UNL     1       7.023   7.985  17.682  0.00  0.00    +0.000 N 
ATOM      4  H   UNL     1       6.228   8.196  18.278  0.00  0.00    +0.000 HD
ENDROOT
BRANCH   2   5
ATOM      5  C   UNL     1       5.769   6.058  17.099  0.00  0.00    +0.000 A 
ATOM      6  C   UNL     1       5.470   4.749  16.767  0.00  0.00    +0.000 A 
ATOM      7  C   UNL     1       4.135   4.508  17.183  0.00  0.00    +0.000 A 
ATOM      8  C   UNL     1       3.253   3.414  17.149  0.00  0.00    +0.000 A 
ATOM      9  C   UNL     1       1.966   3.570  17.680  0.00  0.00    +0.000 A 
ATOM     10  C   UNL     1       1.557   4.787  18.232  0.00  0.00    +0.000 A 
ATOM     11  C   UNL     1       2.420   5.888  18.275  0.00  0.00    +0.000 A 
ATOM     12  C   UNL     1       3.694   5.701  17.742  0.00  0.00    +0.000 A 
ATOM     13  O   UNL     1       4.679   6.643  17.694  0.00  0.00    +0.000 OA
ENDBRANCH   2   5
BRANCH   3  14
ATOM     14  N   UNL     1       8.107   8.816  17.637  0.00  0.00    +0.000 NA
ATOM     15  C   UNL     1       8.322   9.517  18.702  0.00  0.00    +0.000 C 
BRANCH  15  16
ATOM     16  C   UNL     1       9.441  10.420  18.745  0.00  0.00    +0.000 A 
ATOM     17  C   UNL     1      10.196  10.832  19.827  0.00  0.00    +0.000 A 
ATOM     18  C   UNL     1      11.181  11.734  19.353  0.00  0.00    +0.000 A 
ATOM     19  C   UNL     1      11.006  11.850  17.993  0.00  0.00    +0.000 A 
ATOM     20  N   UNL     1       9.956  11.048  17.633  0.00  0.00    +0.000 N 
ATOM     21  H   UNL     1       9.590  10.923  16.695  0.00  0.00    +0.000 HD
ENDBRANCH  15  16
ENDBRANCH   3  14
TORSDOF 3
ENDMDL
