MODEL 1
REMARK VINA RESULT:      -6.9      0.000      0.000
REMARK  Name = 
REMARK  6 active torsions:
REMARK  status: ('A' for Active; 'I' for Inactive)
REMARK    1  A    between atoms: C_1  and  N_2
REMARK    2  A    between atoms: C_6  and  C_7
REMARK    3  A    between atoms: C_13  and  C_14
REMARK    4  A    between atoms: C_14  and  N_15
REMARK    5  A    between atoms: C_17  and  C_18
REMARK    6  A    between atoms: C_18  and  O_19
REMARK                            x       y       z     vdW  Elec       q    Type
REMARK                         _______ _______ _______ _____ _____    ______ ____
ROOT
ATOM      1  C   UNL     1       5.376   4.107  17.189  0.00  0.00    +0.000 C 
ATOM      2  O   UNL     1       5.509   3.451  16.158  0.00  0.00    +0.000 OA
ATOM      3  N   UNL     1       4.386   3.785  18.130  0.00  0.00    +0.000 N 
ATOM      4  C   UNL     1       3.700   2.500  18.047  0.00  0.00    +0.000 C 
ATOM      5  C   UNL     1       2.197   2.706  17.890  0.00  0.00    +0.000 C 
ATOM      6  C   UNL     1       1.638   3.565  19.026  0.00  0.00    +0.000 C 
ATOM      7  C   UNL     1       2.396   4.895  19.140  0.00  0.00    +0.000 C 
ATOM      8  C   UNL     1       3.912   4.665  19.195  0.00  0.00    +0.000 C 
ENDROOT
BRANCH   1  14
ATOM      9  C   UNL     1       5.029   6.984  16.088  0.00  0.00    +0.000 C 
ATOM     10  N   UNL     1       6.060   6.537  17.002  0.00  0.00    +0.000 N 
ATOM     11  C   UNL     1       6.996   7.374  17.560  0.00  0.00    +0.000 A 
ATOM     12  C   UNL     1       7.851   6.621  18.323  0.00  0.00    +0.000 A 
ATOM     13  C   UNL     1       7.427   5.282  18.203  0.00  0.00    +0.000 A 
ATOM     14  C   UNL     1       6.240   5.248  17.478  0.00  0.00    +0.000 A 
ENDBRANCH   1  14
BRANCH   7  15
ATOM     15  C   UNL     1       2.005   5.702  20.385  0.00  0.00    +0.000 C 
BRANCH  15  16
ATOM     16  N   UNL     1       1.863   7.120  20.168  0.00  0.00    +0.000 N 
ATOM     17  C   UNL     1       1.319   8.039  21.012  0.00  0.00    +0.000 A 
ATOM     18  C   UNL     1       1.153   9.154  20.220  0.00  0.00    +0.000 A 
ATOM     19  N   UNL     1       1.653   8.894  18.969  0.00  0.00    +0.000 NA
ATOM     20  N   UNL     1       2.080   7.639  18.947  0.00  0.00    +0.000 NA
BRANCH  18  21
ATOM     21  C   UNL     1       0.475  10.436  20.513  0.00  0.00    +0.000 C 
BRANCH  21  22
ATOM     22  O   UNL     1       0.871  10.952  21.783  0.00  0.00    +0.000 OA
ATOM     23  H   UNL     1       1.757  10.582  21.952  0.00  0.00    +0.000 HD
ENDBRANCH  21  22
ENDBRANCH  18  21
ENDBRANCH  15  16
ENDBRANCH   7  15
TORSDOF 5
ENDMDL
MODEL 2
REMARK VINA RESULT:      -6.9      2.598      6.528
REMARK  Name = 
REMARK  6 active torsions:
REMARK  status: ('A' for Active; 'I' for Inactive)
REMARK    1  A    between atoms: C_1  and  N_2
REMARK    2  A    between atoms: C_6  and  C_7
REMARK    3  A    between atoms: C_13  and  C_14
REMARK    4  A    between atoms: C_14  and  N_15
REMARK    5  A    between atoms: C_17  and  C_18
REMARK    6  A    between atoms: C_18  and  O_19
REMARK                            x       y       z     vdW  Elec       q    Type
REMARK                         _______ _______ _______ _____ _____    ______ ____
ROOT
ATOM      1  C   UNL     1       2.214   4.381  19.696  0.00  0.00    +0.000 C 
ATOM      2  O   UNL     1       0.998   4.305  19.859  0.00  0.00    +0.000 OA
ATOM      3  N   UNL     1       2.837   5.614  19.447  0.00  0.00    +0.000 N 
ATOM      4  C   UNL     1       2.101   6.854  19.672  0.00  0.00    +0.000 C 
ATOM      5  C   UNL     1       2.019   7.669  18.385  0.00  0.00    +0.000 C 
ATOM      6  C   UNL     1       3.413   7.942  17.817  0.00  0.00    +0.000 C 
ATOM      7  C   UNL     1       4.200   6.638  17.628  0.00  0.00    +0.000 C 
ATOM      8  C   UNL     1       4.183   5.790  18.907  0.00  0.00    +0.000 C 
ENDROOT
BRANCH   1  14
ATOM      9  C   UNL     1       2.598   2.304  17.427  0.00  0.00    +0.000 C 
ATOM     10  N   UNL     1       3.248   2.286  18.722  0.00  0.00    +0.000 N 
ATOM     11  C   UNL     1       4.192   1.355  19.086  0.00  0.00    +0.000 A 
ATOM     12  C   UNL     1       4.552   1.591  20.387  0.00  0.00    +0.000 A 
ATOM     13  C   UNL     1       3.785   2.688  20.828  0.00  0.00    +0.000 A 
ATOM     14  C   UNL     1       3.062   3.194  19.752  0.00  0.00    +0.000 A 
ENDBRANCH   1  14
BRANCH   7  15
ATOM     15  C   UNL     1       5.669   6.874  17.250  0.00  0.00    +0.000 C 
BRANCH  15  16
ATOM     16  N   UNL     1       6.114   6.167  16.076  0.00  0.00    +0.000 N 
ATOM     17  C   UNL     1       5.354   5.462  15.193  0.00  0.00    +0.000 A 
ATOM     18  C   UNL     1       6.279   4.753  14.458  0.00  0.00    +0.000 A 
ATOM     19  N   UNL     1       7.541   5.098  14.872  0.00  0.00    +0.000 NA
ATOM     20  N   UNL     1       7.426   5.961  15.871  0.00  0.00    +0.000 NA
BRANCH  18  21
ATOM     21  C   UNL     1       6.077   3.696  13.443  0.00  0.00    +0.000 C 
BRANCH  21  22
ATOM     22  O   UNL     1       6.813   3.974  12.253  0.00  0.00    +0.000 OA
ATOM     23  H   UNL     1       6.174   4.377  11.637  0.00  0.00    +0.000 HD
ENDBRANCH  21  22
ENDBRANCH  18  21
ENDBRANCH  15  16
ENDBRANCH   7  15
TORSDOF 5
ENDMDL
MODEL 3
REMARK VINA RESULT:      -6.9      1.861      4.196
REMARK  Name = 
REMARK  6 active torsions:
REMARK  status: ('A' for Active; 'I' for Inactive)
REMARK    1  A    between atoms: C_1  and  N_2
REMARK    2  A    between atoms: C_6  and  C_7
REMARK    3  A    between atoms: C_13  and  C_14
REMARK    4  A    between atoms: C_14  and  N_15
REMARK    5  A    between atoms: C_17  and  C_18
REMARK    6  A    between atoms: C_18  and  O_19
REMARK                            x       y       z     vdW  Elec       q    Type
REMARK                         _______ _______ _______ _____ _____    ______ ____
ROOT
ATOM      1  C   UNL     1       4.225   3.959  19.132  0.00  0.00    +0.000 C 
ATOM      2  O   UNL     1       5.328   3.446  19.308  0.00  0.00    +0.000 OA
ATOM      3  N   UNL     1       4.035   4.956  18.163  0.00  0.00    +0.000 N 
ATOM      4  C   UNL     1       5.062   5.188  17.153  0.00  0.00    +0.000 C 
ATOM      5  C   UNL     1       5.564   6.626  17.220  0.00  0.00    +0.000 C 
ATOM      6  C   UNL     1       4.408   7.619  17.079  0.00  0.00    +0.000 C 
ATOM      7  C   UNL     1       3.309   7.340  18.112  0.00  0.00    +0.000 C 
ATOM      8  C   UNL     1       2.892   5.863  18.093  0.00  0.00    +0.000 C 
ENDROOT
BRANCH   1  14
ATOM      9  C   UNL     1       1.920   2.115  18.185  0.00  0.00    +0.000 C 
ATOM     10  N   UNL     1       2.055   2.708  19.500  0.00  0.00    +0.000 N 
ATOM     11  C   UNL     1       1.187   2.464  20.536  0.00  0.00    +0.000 A 
ATOM     12  C   UNL     1       1.569   3.226  21.609  0.00  0.00    +0.000 A 
ATOM     13  C   UNL     1       2.693   3.970  21.199  0.00  0.00    +0.000 A 
ATOM     14  C   UNL     1       3.067   3.555  19.923  0.00  0.00    +0.000 A 
ENDBRANCH   1  14
BRANCH   7  15
ATOM     15  C   UNL     1       2.045   8.179  17.883  0.00  0.00    +0.000 C 
BRANCH  15  16
ATOM     16  N   UNL     1       1.529   8.832  19.059  0.00  0.00    +0.000 N 
ATOM     17  C   UNL     1       1.425   8.319  20.316  0.00  0.00    +0.000 A 
ATOM     18  C   UNL     1       0.608   9.215  20.970  0.00  0.00    +0.000 A 
ATOM     19  N   UNL     1       0.307  10.249  20.121  0.00  0.00    +0.000 NA
ATOM     20  N   UNL     1       0.871   9.999  18.948  0.00  0.00    +0.000 NA
BRANCH  18  21
ATOM     21  C   UNL     1       0.002   9.141  22.318  0.00  0.00    +0.000 C 
BRANCH  21  22
ATOM     22  O   UNL     1       0.840   9.754  23.296  0.00  0.00    +0.000 OA
ATOM     23  H   UNL     1       1.712   9.852  22.871  0.00  0.00    +0.000 HD
ENDBRANCH  21  22
ENDBRANCH  18  21
ENDBRANCH  15  16
ENDBRANCH   7  15
TORSDOF 5
ENDMDL
MODEL 4
REMARK VINA RESULT:      -6.8      1.879      4.376
REMARK  Name = 
REMARK  6 active torsions:
REMARK  status: ('A' for Active; 'I' for Inactive)
REMARK    1  A    between atoms: C_1  and  N_2
REMARK    2  A    between atoms: C_6  and  C_7
REMARK    3  A    between atoms: C_13  and  C_14
REMARK    4  A    between atoms: C_14  and  N_15
REMARK    5  A    between atoms: C_17  and  C_18
REMARK    6  A    between atoms: C_18  and  O_19
REMARK                            x       y       z     vdW  Elec       q    Type
REMARK                         _______ _______ _______ _____ _____    ______ ____
ROOT
ATOM      1  C   UNL     1       4.288   3.214  19.121  0.00  0.00    +0.000 C 
ATOM      2  O   UNL     1       5.111   2.581  19.777  0.00  0.00    +0.000 OA
ATOM      3  N   UNL     1       4.688   4.231  18.241  0.00  0.00    +0.000 N 
ATOM      4  C   UNL     1       6.094   4.353  17.869  0.00  0.00    +0.000 C 
ATOM      5  C   UNL     1       6.633   5.726  18.254  0.00  0.00    +0.000 C 
ATOM      6  C   UNL     1       5.792   6.842  17.631  0.00  0.00    +0.000 C 
ATOM      7  C   UNL     1       4.308   6.681  17.985  0.00  0.00    +0.000 C 
ATOM      8  C   UNL     1       3.816   5.260  17.680  0.00  0.00    +0.000 C 
ENDROOT
BRANCH   1  14
ATOM      9  C   UNL     1       2.348   4.422  21.215  0.00  0.00    +0.000 C 
ATOM     10  N   UNL     1       1.993   3.504  20.152  0.00  0.00    +0.000 N 
ATOM     11  C   UNL     1       0.706   3.098  19.895  0.00  0.00    +0.000 A 
ATOM     12  C   UNL     1       0.735   2.190  18.869  0.00  0.00    +0.000 A 
ATOM     13  C   UNL     1       2.088   2.028  18.509  0.00  0.00    +0.000 A 
ATOM     14  C   UNL     1       2.858   2.938  19.229  0.00  0.00    +0.000 A 
ENDBRANCH   1  14
BRANCH   7  15
ATOM     15  C   UNL     1       3.401   7.657  17.223  0.00  0.00    +0.000 C 
BRANCH  15  16
ATOM     16  N   UNL     1       2.381   8.287  18.023  0.00  0.00    +0.000 N 
ATOM     17  C   UNL     1       1.711   9.442  17.756  0.00  0.00    +0.000 A 
ATOM     18  C   UNL     1       1.094   9.747  18.950  0.00  0.00    +0.000 A 
ATOM     19  N   UNL     1       1.356   8.752  19.857  0.00  0.00    +0.000 NA
ATOM     20  N   UNL     1       2.154   7.865  19.279  0.00  0.00    +0.000 NA
BRANCH  18  21
ATOM     21  C   UNL     1       0.340  10.956  19.347  0.00  0.00    +0.000 C 
BRANCH  21  22
ATOM     22  O   UNL     1      -0.194  11.630  18.209  0.00  0.00    +0.000 OA
ATOM     23  H   UNL     1      -0.570  12.462  18.549  0.00  0.00    +0.000 HD
ENDBRANCH  21  22
ENDBRANCH  18  21
ENDBRANCH  15  16
ENDBRANCH   7  15
TORSDOF 5
ENDMDL
MODEL 5
REMARK VINA RESULT:      -6.8      1.309      1.392
REMARK  Name = 
REMARK  6 active torsions:
REMARK  status: ('A' for Active; 'I' for Inactive)
REMARK    1  A    between atoms: C_1  and  N_2
REMARK    2  A    between atoms: C_6  and  C_7
REMARK    3  A    between atoms: C_13  and  C_14
REMARK    4  A    between atoms: C_14  and  N_15
REMARK    5  A    between atoms: C_17  and  C_18
REMARK    6  A    between atoms: C_18  and  O_19
REMARK                            x       y       z     vdW  Elec       q    Type
REMARK                         _______ _______ _______ _____ _____    ______ ____
ROOT
ATOM      1  C   UNL     1       5.133   4.167  17.362  0.00  0.00    +0.000 C 
ATOM      2  O   UNL     1       5.171   3.466  16.353  0.00  0.00    +0.000 OA
ATOM      3  N   UNL     1       4.154   3.969  18.348  0.00  0.00    +0.000 N 
ATOM      4  C   UNL     1       3.356   2.748  18.338  0.00  0.00    +0.000 C 
ATOM      5  C   UNL     1       1.872   3.080  18.224  0.00  0.00    +0.000 C 
ATOM      6  C   UNL     1       1.432   4.026  19.342  0.00  0.00    +0.000 C 
ATOM      7  C   UNL     1       2.306   5.287  19.378  0.00  0.00    +0.000 C 
ATOM      8  C   UNL     1       3.798   4.926  19.392  0.00  0.00    +0.000 C 
ENDROOT
BRANCH   1  14
ATOM      9  C   UNL     1       5.093   6.964  16.024  0.00  0.00    +0.000 C 
ATOM     10  N   UNL     1       6.061   6.494  16.995  0.00  0.00    +0.000 N 
ATOM     11  C   UNL     1       7.068   7.278  17.504  0.00  0.00    +0.000 A 
ATOM     12  C   UNL     1       7.832   6.510  18.343  0.00  0.00    +0.000 A 
ATOM     13  C   UNL     1       7.277   5.214  18.324  0.00  0.00    +0.000 A 
ATOM     14  C   UNL     1       6.103   5.237  17.577  0.00  0.00    +0.000 A 
ENDBRANCH   1  14
BRANCH   7  15
ATOM     15  C   UNL     1       2.033   6.170  20.603  0.00  0.00    +0.000 C 
BRANCH  15  16
ATOM     16  N   UNL     1       1.540   7.490  20.301  0.00  0.00    +0.000 N 
ATOM     17  C   UNL     1       1.657   8.172  19.129  0.00  0.00    +0.000 A 
ATOM     18  C   UNL     1       1.300   9.461  19.462  0.00  0.00    +0.000 A 
ATOM     19  N   UNL     1       0.925   9.495  20.781  0.00  0.00    +0.000 NA
ATOM     20  N   UNL     1       1.084   8.281  21.287  0.00  0.00    +0.000 NA
BRANCH  18  21
ATOM     21  C   UNL     1       1.364  10.702  18.659  0.00  0.00    +0.000 C 
BRANCH  21  22
ATOM     22  O   UNL     1       2.045  10.485  17.425  0.00  0.00    +0.000 OA
ATOM     23  H   UNL     1       2.128  11.364  17.012  0.00  0.00    +0.000 HD
ENDBRANCH  21  22
ENDBRANCH  18  21
ENDBRANCH  15  16
ENDBRANCH   7  15
TORSDOF 5
ENDMDL
MODEL 6
REMARK VINA RESULT:      -6.8      1.039      1.069
REMARK  Name = 
REMARK  6 active torsions:
REMARK  status: ('A' for Active; 'I' for Inactive)
REMARK    1  A    between atoms: C_1  and  N_2
REMARK    2  A    between atoms: C_6  and  C_7
REMARK    3  A    between atoms: C_13  and  C_14
REMARK    4  A    between atoms: C_14  and  N_15
REMARK    5  A    between atoms: C_17  and  C_18
REMARK    6  A    between atoms: C_18  and  O_19
REMARK                            x       y       z     vdW  Elec       q    Type
REMARK                         _______ _______ _______ _____ _____    ______ ____
ROOT
ATOM      1  C   UNL     1       5.094   4.154  17.665  0.00  0.00    +0.000 C 
ATOM      2  O   UNL     1       5.151   3.314  16.770  0.00  0.00    +0.000 OA
ATOM      3  N   UNL     1       4.100   4.096  18.654  0.00  0.00    +0.000 N 
ATOM      4  C   UNL     1       3.306   2.883  18.810  0.00  0.00    +0.000 C 
ATOM      5  C   UNL     1       1.823   3.186  18.625  0.00  0.00    +0.000 C 
ATOM      6  C   UNL     1       1.361   4.282  19.586  0.00  0.00    +0.000 C 
ATOM      7  C   UNL     1       2.231   5.540  19.452  0.00  0.00    +0.000 C 
ATOM      8  C   UNL     1       3.723   5.193  19.542  0.00  0.00    +0.000 C 
ENDROOT
BRANCH   1  14
ATOM      9  C   UNL     1       5.033   6.752  15.974  0.00  0.00    +0.000 C 
ATOM     10  N   UNL     1       6.005   6.420  16.995  0.00  0.00    +0.000 N 
ATOM     11  C   UNL     1       7.008   7.270  17.396  0.00  0.00    +0.000 A 
ATOM     12  C   UNL     1       7.777   6.623  18.328  0.00  0.00    +0.000 A 
ATOM     13  C   UNL     1       7.232   5.332  18.478  0.00  0.00    +0.000 A 
ATOM     14  C   UNL     1       6.057   5.250  17.737  0.00  0.00    +0.000 A 
ENDBRANCH   1  14
BRANCH   7  15
ATOM     15  C   UNL     1       1.935   6.591  20.530  0.00  0.00    +0.000 C 
BRANCH  15  16
ATOM     16  N   UNL     1       1.732   7.928  20.034  0.00  0.00    +0.000 N 
ATOM     17  C   UNL     1       1.011   8.928  20.610  0.00  0.00    +0.000 A 
ATOM     18  C   UNL     1       0.888   9.865  19.607  0.00  0.00    +0.000 A 
ATOM     19  N   UNL     1       1.582   9.434  18.505  0.00  0.00    +0.000 NA
ATOM     20  N   UNL     1       2.089   8.241  18.776  0.00  0.00    +0.000 NA
BRANCH  18  21
ATOM     21  C   UNL     1       0.091  11.110  19.563  0.00  0.00    +0.000 C 
BRANCH  21  22
ATOM     22  O   UNL     1      -0.053  11.584  18.225  0.00  0.00    +0.000 OA
ATOM     23  H   UNL     1      -0.783  11.066  17.839  0.00  0.00    +0.000 HD
ENDBRANCH  21  22
ENDBRANCH  18  21
ENDBRANCH  15  16
ENDBRANCH   7  15
TORSDOF 5
ENDMDL
MODEL 7
REMARK VINA RESULT:      -6.8      1.736      4.307
REMARK  Name = 
REMARK  6 active torsions:
REMARK  status: ('A' for Active; 'I' for Inactive)
REMARK    1  A    between atoms: C_1  and  N_2
REMARK    2  A    between atoms: C_6  and  C_7
REMARK    3  A    between atoms: C_13  and  C_14
REMARK    4  A    between atoms: C_14  and  N_15
REMARK    5  A    between atoms: C_17  and  C_18
REMARK    6  A    between atoms: C_18  and  O_19
REMARK                            x       y       z     vdW  Elec       q    Type
REMARK                         _______ _______ _______ _____ _____    ______ ____
ROOT
ATOM      1  C   UNL     1       4.258   3.275  19.066  0.00  0.00    +0.000 C 
ATOM      2  O   UNL     1       5.108   2.655  19.701  0.00  0.00    +0.000 OA
ATOM      3  N   UNL     1       4.620   4.293  18.171  0.00  0.00    +0.000 N 
ATOM      4  C   UNL     1       6.013   4.431  17.759  0.00  0.00    +0.000 C 
ATOM      5  C   UNL     1       6.545   5.813  18.124  0.00  0.00    +0.000 C 
ATOM      6  C   UNL     1       5.672   6.915  17.520  0.00  0.00    +0.000 C 
ATOM      7  C   UNL     1       4.200   6.737  17.918  0.00  0.00    +0.000 C 
ATOM      8  C   UNL     1       3.719   5.308  17.633  0.00  0.00    +0.000 C 
ENDROOT
BRANCH   1  14
ATOM      9  C   UNL     1       2.369   4.446  21.227  0.00  0.00    +0.000 C 
ATOM     10  N   UNL     1       1.993   3.530  20.169  0.00  0.00    +0.000 N 
ATOM     11  C   UNL     1       0.704   3.111  19.950  0.00  0.00    +0.000 A 
ATOM     12  C   UNL     1       0.712   2.209  18.917  0.00  0.00    +0.000 A 
ATOM     13  C   UNL     1       2.055   2.065  18.515  0.00  0.00    +0.000 A 
ATOM     14  C   UNL     1       2.836   2.980  19.216  0.00  0.00    +0.000 A 
ENDBRANCH   1  14
BRANCH   7  15
ATOM     15  C   UNL     1       3.260   7.698  17.179  0.00  0.00    +0.000 C 
BRANCH  15  16
ATOM     16  N   UNL     1       2.484   8.563  18.031  0.00  0.00    +0.000 N 
ATOM     17  C   UNL     1       1.964   8.274  19.256  0.00  0.00    +0.000 A 
ATOM     18  C   UNL     1       1.081   9.306  19.489  0.00  0.00    +0.000 A 
ATOM     19  N   UNL     1       1.146  10.195  18.447  0.00  0.00    +0.000 NA
ATOM     20  N   UNL     1       2.005   9.725  17.555  0.00  0.00    +0.000 NA
BRANCH  18  21
ATOM     21  C   UNL     1       0.099   9.487  20.581  0.00  0.00    +0.000 C 
BRANCH  21  22
ATOM     22  O   UNL     1       0.484   8.762  21.747  0.00  0.00    +0.000 OA
ATOM     23  H   UNL     1       1.453   8.849  21.804  0.00  0.00    +0.000 HD
ENDBRANCH  21  22
ENDBRANCH  18  21
ENDBRANCH  15  16
ENDBRANCH   7  15
TORSDOF 5
ENDMDL
MODEL 8
REMARK VINA RESULT:      -6.7      1.436      1.914
REMARK  Name = 
REMARK  6 active torsions:
REMARK  status: ('A' for Active; 'I' for Inactive)
REMARK    1  A    between atoms: C_1  and  N_2
REMARK    2  A    between atoms: C_6  and  C_7
REMARK    3  A    between atoms: C_13  and  C_14
REMARK    4  A    between atoms: C_14  and  N_15
REMARK    5  A    between atoms: C_17  and  C_18
REMARK    6  A    between atoms: C_18  and  O_19
REMARK                            x       y       z     vdW  Elec       q    Type
REMARK                         _______ _______ _______ _____ _____    ______ ____
ROOT
ATOM      1  C   UNL     1       5.972   4.985  17.311  0.00  0.00    +0.000 C 
ATOM      2  O   UNL     1       6.271   4.250  16.373  0.00  0.00    +0.000 OA
ATOM      3  N   UNL     1       4.857   4.714  18.119  0.00  0.00    +0.000 N 
ATOM      4  C   UNL     1       4.213   3.406  18.047  0.00  0.00    +0.000 C 
ATOM      5  C   UNL     1       2.748   3.553  17.650  0.00  0.00    +0.000 C 
ATOM      6  C   UNL     1       2.009   4.487  18.610  0.00  0.00    +0.000 C 
ATOM      7  C   UNL     1       2.717   5.843  18.719  0.00  0.00    +0.000 C 
ATOM      8  C   UNL     1       4.211   5.665  19.020  0.00  0.00    +0.000 C 
ENDROOT
BRANCH   1  14
ATOM      9  C   UNL     1       8.002   5.265  19.637  0.00  0.00    +0.000 C 
ATOM     10  N   UNL     1       7.687   6.278  18.651  0.00  0.00    +0.000 N 
ATOM     11  C   UNL     1       8.318   7.497  18.586  0.00  0.00    +0.000 A 
ATOM     12  C   UNL     1       7.739   8.231  17.583  0.00  0.00    +0.000 A 
ATOM     13  C   UNL     1       6.712   7.434  17.039  0.00  0.00    +0.000 A 
ATOM     14  C   UNL     1       6.761   6.172  17.625  0.00  0.00    +0.000 A 
ENDBRANCH   1  14
BRANCH   7  15
ATOM     15  C   UNL     1       2.128   6.740  19.816  0.00  0.00    +0.000 C 
BRANCH  15  16
ATOM     16  N   UNL     1       1.846   8.093  19.406  0.00  0.00    +0.000 N 
ATOM     17  C   UNL     1       1.169   9.047  20.102  0.00  0.00    +0.000 A 
ATOM     18  C   UNL     1       0.921  10.024  19.163  0.00  0.00    +0.000 A 
ATOM     19  N   UNL     1       1.501   9.661  17.974  0.00  0.00    +0.000 NA
ATOM     20  N   UNL     1       2.059   8.470  18.134  0.00  0.00    +0.000 NA
BRANCH  18  21
ATOM     21  C   UNL     1       0.097  11.249  19.261  0.00  0.00    +0.000 C 
BRANCH  21  22
ATOM     22  O   UNL     1       0.008  11.914  18.002  0.00  0.00    +0.000 OA
ATOM     23  H   UNL     1       0.878  12.330  17.862  0.00  0.00    +0.000 HD
ENDBRANCH  21  22
ENDBRANCH  18  21
ENDBRANCH  15  16
ENDBRANCH   7  15
TORSDOF 5
ENDMDL
MODEL 9
REMARK VINA RESULT:      -6.6      1.760      4.173
REMARK  Name = 
REMARK  6 active torsions:
REMARK  status: ('A' for Active; 'I' for Inactive)
REMARK    1  A    between atoms: C_1  and  N_2
REMARK    2  A    between atoms: C_6  and  C_7
REMARK    3  A    between atoms: C_13  and  C_14
REMARK    4  A    between atoms: C_14  and  N_15
REMARK    5  A    between atoms: C_17  and  C_18
REMARK    6  A    between atoms: C_18  and  O_19
REMARK                            x       y       z     vdW  Elec       q    Type
REMARK                         _______ _______ _______ _____ _____    ______ ____
ROOT
ATOM      1  C   UNL     1       4.354   3.817  19.210  0.00  0.00    +0.000 C 
ATOM      2  O   UNL     1       5.424   3.308  19.534  0.00  0.00    +0.000 OA
ATOM      3  N   UNL     1       4.288   4.784  18.195  0.00  0.00    +0.000 N 
ATOM      4  C   UNL     1       5.432   4.983  17.311  0.00  0.00    +0.000 C 
ATOM      5  C   UNL     1       5.930   6.422  17.395  0.00  0.00    +0.000 C 
ATOM      6  C   UNL     1       4.806   7.412  17.084  0.00  0.00    +0.000 C 
ATOM      7  C   UNL     1       3.587   7.167  17.983  0.00  0.00    +0.000 C 
ATOM      8  C   UNL     1       3.168   5.691  17.958  0.00  0.00    +0.000 C 
ENDROOT
BRANCH   1  14
ATOM      9  C   UNL     1       2.137   2.010  18.015  0.00  0.00    +0.000 C 
ATOM     10  N   UNL     1       2.132   2.609  19.334  0.00  0.00    +0.000 N 
ATOM     11  C   UNL     1       1.147   2.388  20.266  0.00  0.00    +0.000 A 
ATOM     12  C   UNL     1       1.419   3.150  21.372  0.00  0.00    +0.000 A 
ATOM     13  C   UNL     1       2.597   3.871  21.089  0.00  0.00    +0.000 A 
ATOM     14  C   UNL     1       3.105   3.441  19.866  0.00  0.00    +0.000 A 
ENDBRANCH   1  14
BRANCH   7  15
ATOM     15  C   UNL     1       2.365   8.001  17.576  0.00  0.00    +0.000 C 
BRANCH  15  16
ATOM     16  N   UNL     1       1.673   8.636  18.669  0.00  0.00    +0.000 N 
ATOM     17  C   UNL     1       1.113   9.877  18.689  0.00  0.00    +0.000 A 
ATOM     18  C   UNL     1       0.865  10.104  20.025  0.00  0.00    +0.000 A 
ATOM     19  N   UNL     1       1.218   8.989  20.742  0.00  0.00    +0.000 NA
ATOM     20  N   UNL     1       1.720   8.097  19.900  0.00  0.00    +0.000 NA
BRANCH  18  21
ATOM     21  C   UNL     1       0.401  11.330  20.711  0.00  0.00    +0.000 C 
BRANCH  21  22
ATOM     22  O   UNL     1       0.402  11.162  22.127  0.00  0.00    +0.000 OA
ATOM     23  H   UNL     1      -0.029  11.959  22.487  0.00  0.00    +0.000 HD
ENDBRANCH  21  22
ENDBRANCH  18  21
ENDBRANCH  15  16
ENDBRANCH   7  15
TORSDOF 5
ENDMDL
