MODEL 1
REMARK VINA RESULT:      -8.0      0.000      0.000
REMARK  Name = 
REMARK  3 active torsions:
REMARK  status: ('A' for Active; 'I' for Inactive)
REMARK    1  A    between atoms: C_1  and  C_2
REMARK    2  A    between atoms: C_3  and  N_4
REMARK    3  A    between atoms: C_19  and  N_20
REMARK                            x       y       z     vdW  Elec       q    Type
REMARK                         _______ _______ _______ _____ _____    ______ ____
ROOT
ATOM      1  N   UNL     1       3.009   6.584  19.183  0.00  0.00    +0.000 N 
ATOM      2  C   UNL     1       2.259   7.674  18.784  0.00  0.00    +0.000 C 
ATOM      3  O   UNL     1       2.112   7.984  17.602  0.00  0.00    +0.000 OA
ATOM      4  N   UNL     1       1.678   8.424  19.786  0.00  0.00    +0.000 N 
ATOM      5  C   UNL     1       1.009   9.665  19.389  0.00  0.00    +0.000 C 
ATOM      6  C   UNL     1       0.288  10.111  20.619  0.00  0.00    +0.000 A 
ATOM      7  C   UNL     1      -0.549  11.209  20.752  0.00  0.00    +0.000 A 
ATOM      8  C   UNL     1      -1.167  11.426  21.986  0.00  0.00    +0.000 A 
ATOM      9  C   UNL     1      -0.934  10.544  23.052  0.00  0.00    +0.000 A 
ATOM     10  C   UNL     1      -0.080   9.440  22.906  0.00  0.00    +0.000 A 
ATOM     11  C   UNL     1       0.532   9.226  21.681  0.00  0.00    +0.000 A 
ATOM     12  C   UNL     1       1.458   8.131  21.214  0.00  0.00    +0.000 C 
ATOM     13  H   UNL     1       2.692   6.170  20.040  0.00  0.00    +0.000 HD
ENDROOT
BRANCH   1  16
ATOM     14  C   UNL     1       5.721   7.058  17.873  0.00  0.00    +0.000 C 
ATOM     15  C   UNL     1       4.814   5.902  17.564  0.00  0.00    +0.000 A 
ATOM     16  C   UNL     1       3.594   5.678  18.230  0.00  0.00    +0.000 A 
ATOM     17  C   UNL     1       2.890   4.484  18.010  0.00  0.00    +0.000 A 
ATOM     18  C   UNL     1       3.338   3.529  17.085  0.00  0.00    +0.000 A 
ATOM     19  C   UNL     1       4.505   3.752  16.367  0.00  0.00    +0.000 A 
ATOM     20  C   UNL     1       5.223   4.929  16.599  0.00  0.00    +0.000 A 
BRANCH  20  21
ATOM     21  N   UNL     1       6.447   5.100  15.819  0.00  0.00    +0.000 N 
ATOM     22  O   UNL     1       6.341   5.667  14.722  0.00  0.00    +0.000 OA
ATOM     23  O   UNL     1       7.492   4.638  16.299  0.00  0.00    +0.000 OA
ENDBRANCH  20  21
ENDBRANCH   1  16
TORSDOF 2
ENDMDL
MODEL 2
REMARK VINA RESULT:      -7.8      1.047      1.625
REMARK  Name = 
REMARK  3 active torsions:
REMARK  status: ('A' for Active; 'I' for Inactive)
REMARK    1  A    between atoms: C_1  and  C_2
REMARK    2  A    between atoms: C_3  and  N_4
REMARK    3  A    between atoms: C_19  and  N_20
REMARK                            x       y       z     vdW  Elec       q    Type
REMARK                         _______ _______ _______ _____ _____    ______ ____
ROOT
ATOM      1  N   UNL     1       2.848   6.704  18.120  0.00  0.00    +0.000 N 
ATOM      2  C   UNL     1       2.436   6.710  19.439  0.00  0.00    +0.000 C 
ATOM      3  O   UNL     1       2.715   5.808  20.228  0.00  0.00    +0.000 OA
ATOM      4  N   UNL     1       1.673   7.787  19.842  0.00  0.00    +0.000 N 
ATOM      5  C   UNL     1       1.103   7.734  21.191  0.00  0.00    +0.000 C 
ATOM      6  C   UNL     1       0.556   9.106  21.419  0.00  0.00    +0.000 A 
ATOM      7  C   UNL     1      -0.037   9.593  22.574  0.00  0.00    +0.000 A 
ATOM      8  C   UNL     1      -0.442  10.929  22.598  0.00  0.00    +0.000 A 
ATOM      9  C   UNL     1      -0.246  11.743  21.472  0.00  0.00    +0.000 A 
ATOM     10  C   UNL     1       0.350  11.235  20.307  0.00  0.00    +0.000 A 
ATOM     11  C   UNL     1       0.752   9.910  20.285  0.00  0.00    +0.000 A 
ATOM     12  C   UNL     1       1.438   9.100  19.213  0.00  0.00    +0.000 C 
ATOM     13  H   UNL     1       2.979   7.621  17.735  0.00  0.00    +0.000 HD
ENDROOT
BRANCH   1  16
ATOM     14  C   UNL     1       5.796   7.169  17.496  0.00  0.00    +0.000 C 
ATOM     15  C   UNL     1       5.063   5.881  17.249  0.00  0.00    +0.000 A 
ATOM     16  C   UNL     1       3.717   5.679  17.604  0.00  0.00    +0.000 A 
ATOM     17  C   UNL     1       3.156   4.396  17.502  0.00  0.00    +0.000 A 
ATOM     18  C   UNL     1       3.887   3.316  16.988  0.00  0.00    +0.000 A 
ATOM     19  C   UNL     1       5.199   3.500  16.571  0.00  0.00    +0.000 A 
ATOM     20  C   UNL     1       5.770   4.770  16.692  0.00  0.00    +0.000 A 
BRANCH  20  21
ATOM     21  N   UNL     1       7.156   4.896  16.244  0.00  0.00    +0.000 N 
ATOM     22  O   UNL     1       7.344   5.430  15.141  0.00  0.00    +0.000 OA
ATOM     23  O   UNL     1       8.033   4.433  16.986  0.00  0.00    +0.000 OA
ENDBRANCH  20  21
ENDBRANCH   1  16
TORSDOF 2
ENDMDL
MODEL 3
REMARK VINA RESULT:      -7.8      2.181      2.662
REMARK  Name = 
REMARK  3 active torsions:
REMARK  status: ('A' for Active; 'I' for Inactive)
REMARK    1  A    between atoms: C_1  and  C_2
REMARK    2  A    between atoms: C_3  and  N_4
REMARK    3  A    between atoms: C_19  and  N_20
REMARK                            x       y       z     vdW  Elec       q    Type
REMARK                         _______ _______ _______ _____ _____    ______ ____
ROOT
ATOM      1  N   UNL     1       2.567   6.878  19.857  0.00  0.00    +0.000 N 
ATOM      2  C   UNL     1       1.897   7.962  19.322  0.00  0.00    +0.000 C 
ATOM      3  O   UNL     1       1.844   8.182  18.112  0.00  0.00    +0.000 OA
ATOM      4  N   UNL     1       1.286   8.814  20.220  0.00  0.00    +0.000 N 
ATOM      5  C   UNL     1       0.703  10.045  19.682  0.00  0.00    +0.000 C 
ATOM      6  C   UNL     1      -0.077  10.618  20.820  0.00  0.00    +0.000 A 
ATOM      7  C   UNL     1      -0.869  11.756  20.809  0.00  0.00    +0.000 A 
ATOM      8  C   UNL     1      -1.557  12.097  21.975  0.00  0.00    +0.000 A 
ATOM      9  C   UNL     1      -1.437  11.295  23.121  0.00  0.00    +0.000 A 
ATOM     10  C   UNL     1      -0.627  10.149  23.121  0.00  0.00    +0.000 A 
ATOM     11  C   UNL     1       0.054   9.812  21.962  0.00  0.00    +0.000 A 
ATOM     12  C   UNL     1       0.957   8.645  21.648  0.00  0.00    +0.000 C 
ATOM     13  H   UNL     1       2.174   6.547  20.719  0.00  0.00    +0.000 HD
ENDROOT
BRANCH   1  16
ATOM     14  C   UNL     1       1.465   4.049  19.575  0.00  0.00    +0.000 C 
ATOM     15  C   UNL     1       2.721   4.546  18.919  0.00  0.00    +0.000 A 
ATOM     16  C   UNL     1       3.171   5.875  19.020  0.00  0.00    +0.000 A 
ATOM     17  C   UNL     1       4.255   6.304  18.237  0.00  0.00    +0.000 A 
ATOM     18  C   UNL     1       4.950   5.419  17.400  0.00  0.00    +0.000 A 
ATOM     19  C   UNL     1       4.567   4.086  17.328  0.00  0.00    +0.000 A 
ATOM     20  C   UNL     1       3.475   3.658  18.088  0.00  0.00    +0.000 A 
BRANCH  20  21
ATOM     21  N   UNL     1       3.117   2.247  17.961  0.00  0.00    +0.000 N 
ATOM     22  O   UNL     1       2.217   1.964  17.156  0.00  0.00    +0.000 OA
ATOM     23  O   UNL     1       3.717   1.445  18.690  0.00  0.00    +0.000 OA
ENDBRANCH  20  21
ENDBRANCH   1  16
TORSDOF 2
ENDMDL
MODEL 4
REMARK VINA RESULT:      -7.7      2.303      2.840
REMARK  Name = 
REMARK  3 active torsions:
REMARK  status: ('A' for Active; 'I' for Inactive)
REMARK    1  A    between atoms: C_1  and  C_2
REMARK    2  A    between atoms: C_3  and  N_4
REMARK    3  A    between atoms: C_19  and  N_20
REMARK                            x       y       z     vdW  Elec       q    Type
REMARK                         _______ _______ _______ _____ _____    ______ ____
ROOT
ATOM      1  N   UNL     1       2.586   6.934  20.173  0.00  0.00    +0.000 N 
ATOM      2  C   UNL     1       1.887   7.944  19.540  0.00  0.00    +0.000 C 
ATOM      3  O   UNL     1       1.848   8.060  18.315  0.00  0.00    +0.000 OA
ATOM      4  N   UNL     1       1.230   8.844  20.354  0.00  0.00    +0.000 N 
ATOM      5  C   UNL     1       0.613  10.004  19.706  0.00  0.00    +0.000 C 
ATOM      6  C   UNL     1      -0.207  10.640  20.781  0.00  0.00    +0.000 A 
ATOM      7  C   UNL     1      -1.039  11.743  20.663  0.00  0.00    +0.000 A 
ATOM      8  C   UNL     1      -1.759  12.154  21.786  0.00  0.00    +0.000 A 
ATOM      9  C   UNL     1      -1.631  11.455  22.996  0.00  0.00    +0.000 A 
ATOM     10  C   UNL     1      -0.781  10.344  23.104  0.00  0.00    +0.000 A 
ATOM     11  C   UNL     1      -0.068   9.937  21.988  0.00  0.00    +0.000 A 
ATOM     12  C   UNL     1       0.882   8.783  21.786  0.00  0.00    +0.000 C 
ATOM     13  H   UNL     1       2.190   6.661  21.054  0.00  0.00    +0.000 HD
ENDROOT
BRANCH   1  16
ATOM     14  C   UNL     1       2.394   3.983  20.919  0.00  0.00    +0.000 C 
ATOM     15  C   UNL     1       3.220   4.527  19.789  0.00  0.00    +0.000 A 
ATOM     16  C   UNL     1       3.241   5.888  19.432  0.00  0.00    +0.000 A 
ATOM     17  C   UNL     1       3.897   6.289  18.258  0.00  0.00    +0.000 A 
ATOM     18  C   UNL     1       4.598   5.373  17.460  0.00  0.00    +0.000 A 
ATOM     19  C   UNL     1       4.648   4.033  17.823  0.00  0.00    +0.000 A 
ATOM     20  C   UNL     1       3.976   3.624  18.978  0.00  0.00    +0.000 A 
BRANCH  20  21
ATOM     21  N   UNL     1       4.060   2.200  19.299  0.00  0.00    +0.000 N 
ATOM     22  O   UNL     1       4.867   1.868  20.179  0.00  0.00    +0.000 OA
ATOM     23  O   UNL     1       3.340   1.431  18.647  0.00  0.00    +0.000 OA
ENDBRANCH  20  21
ENDBRANCH   1  16
TORSDOF 2
ENDMDL
MODEL 5
REMARK VINA RESULT:      -7.4      4.699      7.112
REMARK  Name = 
REMARK  3 active torsions:
REMARK  status: ('A' for Active; 'I' for Inactive)
REMARK    1  A    between atoms: C_1  and  C_2
REMARK    2  A    between atoms: C_3  and  N_4
REMARK    3  A    between atoms: C_19  and  N_20
REMARK                            x       y       z     vdW  Elec       q    Type
REMARK                         _______ _______ _______ _____ _____    ______ ____
ROOT
ATOM      1  N   UNL     1       6.794   7.583  17.049  0.00  0.00    +0.000 N 
ATOM      2  C   UNL     1       7.771   7.778  18.006  0.00  0.00    +0.000 C 
ATOM      3  O   UNL     1       8.248   6.857  18.669  0.00  0.00    +0.000 OA
ATOM      4  N   UNL     1       8.193   9.078  18.202  0.00  0.00    +0.000 N 
ATOM      5  C   UNL     1       9.115   9.320  19.314  0.00  0.00    +0.000 C 
ATOM      6  C   UNL     1       9.570  10.730  19.122  0.00  0.00    +0.000 A 
ATOM      7  C   UNL     1      10.501  11.424  19.880  0.00  0.00    +0.000 A 
ATOM      8  C   UNL     1      10.822  12.730  19.502  0.00  0.00    +0.000 A 
ATOM      9  C   UNL     1      10.208  13.308  18.381  0.00  0.00    +0.000 A 
ATOM     10  C   UNL     1       9.262  12.597  17.626  0.00  0.00    +0.000 A 
ATOM     11  C   UNL     1       8.945  11.301  18.001  0.00  0.00    +0.000 A 
ATOM     12  C   UNL     1       8.011  10.291  17.384  0.00  0.00    +0.000 C 
ATOM     13  H   UNL     1       6.827   8.249  16.299  0.00  0.00    +0.000 HD
ENDROOT
BRANCH   1  16
ATOM     14  C   UNL     1       4.323   6.289  18.280  0.00  0.00    +0.000 C 
ATOM     15  C   UNL     1       5.234   5.621  17.291  0.00  0.00    +0.000 A 
ATOM     16  C   UNL     1       6.334   6.266  16.695  0.00  0.00    +0.000 A 
ATOM     17  C   UNL     1       7.029   5.634  15.652  0.00  0.00    +0.000 A 
ATOM     18  C   UNL     1       6.699   4.339  15.230  0.00  0.00    +0.000 A 
ATOM     19  C   UNL     1       5.659   3.653  15.843  0.00  0.00    +0.000 A 
ATOM     20  C   UNL     1       4.947   4.286  16.866  0.00  0.00    +0.000 A 
BRANCH  20  21
ATOM     21  N   UNL     1       3.859   3.515  17.464  0.00  0.00    +0.000 N 
ATOM     22  O   UNL     1       4.127   2.858  18.481  0.00  0.00    +0.000 OA
ATOM     23  O   UNL     1       2.761   3.551  16.892  0.00  0.00    +0.000 OA
ENDBRANCH  20  21
ENDBRANCH   1  16
TORSDOF 2
ENDMDL
MODEL 6
REMARK VINA RESULT:      -7.2      1.363      2.220
REMARK  Name = 
REMARK  3 active torsions:
REMARK  status: ('A' for Active; 'I' for Inactive)
REMARK    1  A    between atoms: C_1  and  C_2
REMARK    2  A    between atoms: C_3  and  N_4
REMARK    3  A    between atoms: C_19  and  N_20
REMARK                            x       y       z     vdW  Elec       q    Type
REMARK                         _______ _______ _______ _____ _____    ______ ____
ROOT
ATOM      1  N   UNL     1       3.024   7.161  17.722  0.00  0.00    +0.000 N 
ATOM      2  C   UNL     1       2.453   7.482  18.939  0.00  0.00    +0.000 C 
ATOM      3  O   UNL     1       2.501   6.733  19.915  0.00  0.00    +0.000 OA
ATOM      4  N   UNL     1       1.803   8.697  19.014  0.00  0.00    +0.000 N 
ATOM      5  C   UNL     1       1.065   8.983  20.247  0.00  0.00    +0.000 C 
ATOM      6  C   UNL     1       0.690  10.425  20.131  0.00  0.00    +0.000 A 
ATOM      7  C   UNL     1       0.029  11.200  21.072  0.00  0.00    +0.000 A 
ATOM      8  C   UNL     1      -0.186  12.550  20.786  0.00  0.00    +0.000 A 
ATOM      9  C   UNL     1       0.263  13.090  19.571  0.00  0.00    +0.000 A 
ATOM     10  C   UNL     1       0.925  12.293  18.625  0.00  0.00    +0.000 A 
ATOM     11  C   UNL     1       1.139  10.954  18.911  0.00  0.00    +0.000 A 
ATOM     12  C   UNL     1       1.835   9.872  18.124  0.00  0.00    +0.000 C 
ATOM     13  H   UNL     1       3.330   7.961  17.198  0.00  0.00    +0.000 HD
ENDROOT
BRANCH   1  16
ATOM     14  C   UNL     1       6.071   7.142  17.606  0.00  0.00    +0.000 C 
ATOM     15  C   UNL     1       5.202   5.932  17.424  0.00  0.00    +0.000 A 
ATOM     16  C   UNL     1       3.800   5.962  17.543  0.00  0.00    +0.000 A 
ATOM     17  C   UNL     1       3.075   4.760  17.534  0.00  0.00    +0.000 A 
ATOM     18  C   UNL     1       3.707   3.524  17.339  0.00  0.00    +0.000 A 
ATOM     19  C   UNL     1       5.083   3.469  17.155  0.00  0.00    +0.000 A 
ATOM     20  C   UNL     1       5.813   4.661  17.187  0.00  0.00    +0.000 A 
BRANCH  20  21
ATOM     21  N   UNL     1       7.257   4.534  16.996  0.00  0.00    +0.000 N 
ATOM     22  O   UNL     1       7.949   4.391  18.015  0.00  0.00    +0.000 OA
ATOM     23  O   UNL     1       7.682   4.612  15.835  0.00  0.00    +0.000 OA
ENDBRANCH  20  21
ENDBRANCH   1  16
TORSDOF 2
ENDMDL
MODEL 7
REMARK VINA RESULT:      -6.8      2.293      3.226
REMARK  Name = 
REMARK  3 active torsions:
REMARK  status: ('A' for Active; 'I' for Inactive)
REMARK    1  A    between atoms: C_1  and  C_2
REMARK    2  A    between atoms: C_3  and  N_4
REMARK    3  A    between atoms: C_19  and  N_20
REMARK                            x       y       z     vdW  Elec       q    Type
REMARK                         _______ _______ _______ _____ _____    ______ ____
ROOT
ATOM      1  N   UNL     1       2.296   7.346  18.136  0.00  0.00    +0.000 N 
ATOM      2  C   UNL     1       1.957   7.871  19.368  0.00  0.00    +0.000 C 
ATOM      3  O   UNL     1       2.381   7.410  20.428  0.00  0.00    +0.000 OA
ATOM      4  N   UNL     1       1.096   8.950  19.365  0.00  0.00    +0.000 N 
ATOM      5  C   UNL     1       0.609   9.420  20.664  0.00  0.00    +0.000 C 
ATOM      6  C   UNL     1      -0.081  10.710  20.360  0.00  0.00    +0.000 A 
ATOM      7  C   UNL     1      -0.664  11.585  21.264  0.00  0.00    +0.000 A 
ATOM      8  C   UNL     1      -1.221  12.769  20.775  0.00  0.00    +0.000 A 
ATOM      9  C   UNL     1      -1.181  13.048  19.400  0.00  0.00    +0.000 A 
ATOM     10  C   UNL     1      -0.594  12.151  18.496  0.00  0.00    +0.000 A 
ATOM     11  C   UNL     1      -0.041  10.977  18.982  0.00  0.00    +0.000 A 
ATOM     12  C   UNL     1       0.676   9.853  18.277  0.00  0.00    +0.000 C 
ATOM     13  H   UNL     1       2.298   8.025  17.396  0.00  0.00    +0.000 HD
ENDROOT
BRANCH   1  16
ATOM     14  C   UNL     1       1.628   4.430  18.726  0.00  0.00    +0.000 C 
ATOM     15  C   UNL     1       2.986   4.932  18.329  0.00  0.00    +0.000 A 
ATOM     16  C   UNL     1       3.249   6.276  18.005  0.00  0.00    +0.000 A 
ATOM     17  C   UNL     1       4.499   6.632  17.474  0.00  0.00    +0.000 A 
ATOM     18  C   UNL     1       5.526   5.690  17.322  0.00  0.00    +0.000 A 
ATOM     19  C   UNL     1       5.316   4.368  17.693  0.00  0.00    +0.000 A 
ATOM     20  C   UNL     1       4.066   4.003  18.200  0.00  0.00    +0.000 A 
BRANCH  20  21
ATOM     21  N   UNL     1       3.905   2.596  18.563  0.00  0.00    +0.000 N 
ATOM     22  O   UNL     1       4.236   2.270  19.712  0.00  0.00    +0.000 OA
ATOM     23  O   UNL     1       3.481   1.831  17.685  0.00  0.00    +0.000 OA
ENDBRANCH  20  21
ENDBRANCH   1  16
TORSDOF 2
ENDMDL
MODEL 8
REMARK VINA RESULT:      -6.6      2.588      3.571
REMARK  Name = 
REMARK  3 active torsions:
REMARK  status: ('A' for Active; 'I' for Inactive)
REMARK    1  A    between atoms: C_1  and  C_2
REMARK    2  A    between atoms: C_3  and  N_4
REMARK    3  A    between atoms: C_19  and  N_20
REMARK                            x       y       z     vdW  Elec       q    Type
REMARK                         _______ _______ _______ _____ _____    ______ ____
ROOT
ATOM      1  N   UNL     1       2.697   7.187  18.550  0.00  0.00    +0.000 N 
ATOM      2  C   UNL     1       1.941   7.733  19.570  0.00  0.00    +0.000 C 
ATOM      3  O   UNL     1       1.722   7.141  20.627  0.00  0.00    +0.000 OA
ATOM      4  N   UNL     1       1.422   8.992  19.347  0.00  0.00    +0.000 N 
ATOM      5  C   UNL     1       0.497   9.520  20.352  0.00  0.00    +0.000 C 
ATOM      6  C   UNL     1       0.307  10.952  19.970  0.00  0.00    +0.000 A 
ATOM      7  C   UNL     1      -0.435  11.911  20.643  0.00  0.00    +0.000 A 
ATOM      8  C   UNL     1      -0.446  13.214  20.140  0.00  0.00    +0.000 A 
ATOM      9  C   UNL     1       0.282  13.526  18.981  0.00  0.00    +0.000 A 
ATOM     10  C   UNL     1       1.024  12.544  18.306  0.00  0.00    +0.000 A 
ATOM     11  C   UNL     1       1.035  11.252  18.807  0.00  0.00    +0.000 A 
ATOM     12  C   UNL     1       1.749  10.011  18.333  0.00  0.00    +0.000 C 
ATOM     13  H   UNL     1       3.181   7.870  17.997  0.00  0.00    +0.000 HD
ENDROOT
BRANCH   1  16
ATOM     14  C   UNL     1       1.397   4.526  17.824  0.00  0.00    +0.000 C 
ATOM     15  C   UNL     1       2.764   4.672  18.428  0.00  0.00    +0.000 A 
ATOM     16  C   UNL     1       3.360   5.918  18.696  0.00  0.00    +0.000 A 
ATOM     17  C   UNL     1       4.706   5.973  19.095  0.00  0.00    +0.000 A 
ATOM     18  C   UNL     1       5.457   4.808  19.301  0.00  0.00    +0.000 A 
ATOM     19  C   UNL     1       4.875   3.562  19.105  0.00  0.00    +0.000 A 
ATOM     20  C   UNL     1       3.543   3.501  18.685  0.00  0.00    +0.000 A 
BRANCH  20  21
ATOM     21  N   UNL     1       2.993   2.162  18.488  0.00  0.00    +0.000 N 
ATOM     22  O   UNL     1       2.011   1.850  19.177  0.00  0.00    +0.000 OA
ATOM     23  O   UNL     1       3.568   1.430  17.670  0.00  0.00    +0.000 OA
ENDBRANCH  20  21
ENDBRANCH   1  16
TORSDOF 2
ENDMDL
MODEL 9
REMARK VINA RESULT:      -6.5      2.256      3.003
REMARK  Name = 
REMARK  3 active torsions:
REMARK  status: ('A' for Active; 'I' for Inactive)
REMARK    1  A    between atoms: C_1  and  C_2
REMARK    2  A    between atoms: C_3  and  N_4
REMARK    3  A    between atoms: C_19  and  N_20
REMARK                            x       y       z     vdW  Elec       q    Type
REMARK                         _______ _______ _______ _____ _____    ______ ____
ROOT
ATOM      1  N   UNL     1       2.151   7.291  18.705  0.00  0.00    +0.000 N 
ATOM      2  C   UNL     1       1.827   7.526  20.027  0.00  0.00    +0.000 C 
ATOM      3  O   UNL     1       2.213   6.804  20.946  0.00  0.00    +0.000 OA
ATOM      4  N   UNL     1       1.027   8.622  20.281  0.00  0.00    +0.000 N 
ATOM      5  C   UNL     1       0.552   8.797  21.656  0.00  0.00    +0.000 C 
ATOM      6  C   UNL     1      -0.063  10.159  21.667  0.00  0.00    +0.000 A 
ATOM      7  C   UNL     1      -0.607  10.826  22.754  0.00  0.00    +0.000 A 
ATOM      8  C   UNL     1      -1.092  12.122  22.561  0.00  0.00    +0.000 A 
ATOM      9  C   UNL     1      -1.021  12.716  21.292  0.00  0.00    +0.000 A 
ATOM     10  C   UNL     1      -0.474  12.027  20.199  0.00  0.00    +0.000 A 
ATOM     11  C   UNL     1       0.008  10.743  20.392  0.00  0.00    +0.000 A 
ATOM     12  C   UNL     1       0.670   9.779  19.440  0.00  0.00    +0.000 C 
ATOM     13  H   UNL     1       2.199   8.124  18.148  0.00  0.00    +0.000 HD
ENDROOT
BRANCH   1  16
ATOM     14  C   UNL     1       1.448   4.335  18.964  0.00  0.00    +0.000 C 
ATOM     15  C   UNL     1       2.772   4.860  18.488  0.00  0.00    +0.000 A 
ATOM     16  C   UNL     1       3.045   6.230  18.322  0.00  0.00    +0.000 A 
ATOM     17  C   UNL     1       4.242   6.631  17.707  0.00  0.00    +0.000 A 
ATOM     18  C   UNL     1       5.212   5.699  17.312  0.00  0.00    +0.000 A 
ATOM     19  C   UNL     1       4.997   4.343  17.521  0.00  0.00    +0.000 A 
ATOM     20  C   UNL     1       3.797   3.936  18.111  0.00  0.00    +0.000 A 
BRANCH  20  21
ATOM     21  N   UNL     1       3.627   2.495  18.295  0.00  0.00    +0.000 N 
ATOM     22  O   UNL     1       2.982   1.889  17.427  0.00  0.00    +0.000 OA
ATOM     23  O   UNL     1       4.114   1.996  19.319  0.00  0.00    +0.000 OA
ENDBRANCH  20  21
ENDBRANCH   1  16
TORSDOF 2
ENDMDL
