MODEL 1
REMARK VINA RESULT:      -7.6      0.000      0.000
REMARK  Name = 
REMARK  3 active torsions:
REMARK  status: ('A' for Active; 'I' for Inactive)
REMARK    1  A    between atoms: C_1  and  C_2
REMARK    2  A    between atoms: C_2  and  N_3
REMARK    3  A    between atoms: C_14  and  C_15
REMARK                            x       y       z     vdW  Elec       q    Type
REMARK                         _______ _______ _______ _____ _____    ______ ____
ROOT
ATOM      1  N   UNL     1       2.826   5.233  19.634  0.00  0.00    +0.000 N 
ATOM      2  C   UNL     1       3.672   4.571  18.745  0.00  0.00    +0.000 A 
ATOM      3  C   UNL     1       4.178   5.131  17.648  0.00  0.00    +0.000 A 
ATOM      4  C   UNL     1       5.062   4.665  16.600  0.00  0.00    +0.000 A 
ATOM      5  O   UNL     1       5.561   3.561  16.486  0.00  0.00    +0.000 OA
ATOM      6  O   UNL     1       5.215   5.754  15.762  0.00  0.00    +0.000 OA
ATOM      7  N   UNL     1       4.456   6.893  16.254  0.00  0.00    +0.000 NA
ATOM      8  C   UNL     1       3.867   6.500  17.345  0.00  0.00    +0.000 A 
ATOM      9  C   UNL     1       2.993   7.254  18.241  0.00  0.00    +0.000 A 
ATOM     10  C   UNL     1       2.702   8.591  17.967  0.00  0.00    +0.000 A 
ATOM     11  C   UNL     1       1.873   9.305  18.835  0.00  0.00    +0.000 A 
ATOM     12  C   UNL     1       1.326   8.703  19.980  0.00  0.00    +0.000 A 
ATOM     13  C   UNL     1       1.644   7.346  20.223  0.00  0.00    +0.000 A 
ATOM     14  C   UNL     1       2.481   6.593  19.382  0.00  0.00    +0.000 A 
ENDROOT
BRANCH  12  15
ATOM     15  C   UNL     1       0.469   9.457  20.928  0.00  0.00    +0.000 A 
ATOM     16  C   UNL     1       0.313   9.051  22.263  0.00  0.00    +0.000 A 
ATOM     17  C   UNL     1      -0.461   9.814  23.126  0.00  0.00    +0.000 A 
ATOM     18  N   UNL     1      -1.103  10.939  22.759  0.00  0.00    +0.000 NA
ATOM     19  C   UNL     1      -0.962  11.317  21.474  0.00  0.00    +0.000 A 
ATOM     20  C   UNL     1      -0.199  10.626  20.542  0.00  0.00    +0.000 A 
ENDBRANCH  12  15
BRANCH   1  22
ATOM     21  C   UNL     1       1.239   3.692  20.727  0.00  0.00    +0.000 C 
ATOM     22  C   UNL     1       2.444   4.606  20.912  0.00  0.00    +0.000 C 
ENDBRANCH   1  22
TORSDOF 2
ENDMDL
MODEL 2
REMARK VINA RESULT:      -7.5      0.103      1.003
REMARK  Name = 
REMARK  3 active torsions:
REMARK  status: ('A' for Active; 'I' for Inactive)
REMARK    1  A    between atoms: C_1  and  C_2
REMARK    2  A    between atoms: C_2  and  N_3
REMARK    3  A    between atoms: C_14  and  C_15
REMARK                            x       y       z     vdW  Elec       q    Type
REMARK                         _______ _______ _______ _____ _____    ______ ____
ROOT
ATOM      1  N   UNL     1       2.871   5.191  19.576  0.00  0.00    +0.000 N 
ATOM      2  C   UNL     1       3.697   4.517  18.678  0.00  0.00    +0.000 A 
ATOM      3  C   UNL     1       4.190   5.066  17.570  0.00  0.00    +0.000 A 
ATOM      4  C   UNL     1       5.053   4.586  16.511  0.00  0.00    +0.000 A 
ATOM      5  O   UNL     1       5.541   3.477  16.396  0.00  0.00    +0.000 OA
ATOM      6  O   UNL     1       5.201   5.668  15.664  0.00  0.00    +0.000 OA
ATOM      7  N   UNL     1       4.459   6.817  16.161  0.00  0.00    +0.000 NA
ATOM      8  C   UNL     1       3.885   6.435  17.263  0.00  0.00    +0.000 A 
ATOM      9  C   UNL     1       3.031   7.202  18.168  0.00  0.00    +0.000 A 
ATOM     10  C   UNL     1       2.746   8.540  17.890  0.00  0.00    +0.000 A 
ATOM     11  C   UNL     1       1.937   9.266  18.766  0.00  0.00    +0.000 A 
ATOM     12  C   UNL     1       1.404   8.676  19.924  0.00  0.00    +0.000 A 
ATOM     13  C   UNL     1       1.715   7.318  20.170  0.00  0.00    +0.000 A 
ATOM     14  C   UNL     1       2.532   6.552  19.321  0.00  0.00    +0.000 A 
ENDROOT
BRANCH  12  15
ATOM     15  C   UNL     1       0.569   9.443  20.881  0.00  0.00    +0.000 A 
ATOM     16  C   UNL     1      -0.083  10.628  20.504  0.00  0.00    +0.000 A 
ATOM     17  C   UNL     1      -0.891  11.287  21.419  0.00  0.00    +0.000 A 
ATOM     18  N   UNL     1      -1.089  10.866  22.682  0.00  0.00    +0.000 NA
ATOM     19  C   UNL     1      -0.451   9.736  23.044  0.00  0.00    +0.000 A 
ATOM     20  C   UNL     1       0.367   9.003  22.195  0.00  0.00    +0.000 A 
ENDBRANCH  12  15
BRANCH   1  22
ATOM     21  C   UNL     1       1.266   3.701  20.713  0.00  0.00    +0.000 C 
ATOM     22  C   UNL     1       2.504   4.576  20.865  0.00  0.00    +0.000 C 
ENDBRANCH   1  22
TORSDOF 2
ENDMDL
MODEL 3
REMARK VINA RESULT:      -7.2      3.729      7.612
REMARK  Name = 
REMARK  3 active torsions:
REMARK  status: ('A' for Active; 'I' for Inactive)
REMARK    1  A    between atoms: C_1  and  C_2
REMARK    2  A    between atoms: C_2  and  N_3
REMARK    3  A    between atoms: C_14  and  C_15
REMARK                            x       y       z     vdW  Elec       q    Type
REMARK                         _______ _______ _______ _____ _____    ______ ____
ROOT
ATOM      1  N   UNL     1       1.188  10.577  19.311  0.00  0.00    +0.000 N 
ATOM      2  C   UNL     1       0.492  11.339  20.249  0.00  0.00    +0.000 A 
ATOM      3  C   UNL     1       0.047  10.859  21.408  0.00  0.00    +0.000 A 
ATOM      4  C   UNL     1      -0.676  11.437  22.522  0.00  0.00    +0.000 A 
ATOM      5  O   UNL     1      -1.074  12.582  22.635  0.00  0.00    +0.000 OA
ATOM      6  O   UNL     1      -0.810  10.402  23.428  0.00  0.00    +0.000 OA
ATOM      7  N   UNL     1      -0.188   9.189  22.918  0.00  0.00    +0.000 NA
ATOM      8  C   UNL     1       0.296   9.486  21.749  0.00  0.00    +0.000 A 
ATOM      9  C   UNL     1       1.028   8.635  20.813  0.00  0.00    +0.000 A 
ATOM     10  C   UNL     1       1.295   7.306  21.143  0.00  0.00    +0.000 A 
ATOM     11  C   UNL     1       2.003   6.503  20.247  0.00  0.00    +0.000 A 
ATOM     12  C   UNL     1       2.454   7.010  19.016  0.00  0.00    +0.000 A 
ATOM     13  C   UNL     1       2.164   8.361  18.717  0.00  0.00    +0.000 A 
ATOM     14  C   UNL     1       1.462   9.207  19.594  0.00  0.00    +0.000 A 
ENDROOT
BRANCH  12  15
ATOM     15  C   UNL     1       3.235   6.179  18.066  0.00  0.00    +0.000 A 
ATOM     16  C   UNL     1       4.271   6.724  17.291  0.00  0.00    +0.000 A 
ATOM     17  C   UNL     1       5.005   5.900  16.450  0.00  0.00    +0.000 A 
ATOM     18  N   UNL     1       4.778   4.580  16.312  0.00  0.00    +0.000 NA
ATOM     19  C   UNL     1       3.774   4.063  17.048  0.00  0.00    +0.000 A 
ATOM     20  C   UNL     1       2.994   4.807  17.923  0.00  0.00    +0.000 A 
ENDBRANCH  12  15
BRANCH   1  22
ATOM     21  C   UNL     1       2.158  12.666  18.427  0.00  0.00    +0.000 C 
ATOM     22  C   UNL     1       1.799  11.216  18.131  0.00  0.00    +0.000 C 
ENDBRANCH   1  22
TORSDOF 2
ENDMDL
MODEL 4
REMARK VINA RESULT:      -7.2      3.732      7.567
REMARK  Name = 
REMARK  3 active torsions:
REMARK  status: ('A' for Active; 'I' for Inactive)
REMARK    1  A    between atoms: C_1  and  C_2
REMARK    2  A    between atoms: C_2  and  N_3
REMARK    3  A    between atoms: C_14  and  C_15
REMARK                            x       y       z     vdW  Elec       q    Type
REMARK                         _______ _______ _______ _____ _____    ______ ____
ROOT
ATOM      1  N   UNL     1       1.195  10.541  19.288  0.00  0.00    +0.000 N 
ATOM      2  C   UNL     1       0.501  11.339  20.196  0.00  0.00    +0.000 A 
ATOM      3  C   UNL     1       0.037  10.898  21.364  0.00  0.00    +0.000 A 
ATOM      4  C   UNL     1      -0.689  11.519  22.453  0.00  0.00    +0.000 A 
ATOM      5  O   UNL     1      -1.071  12.672  22.529  0.00  0.00    +0.000 OA
ATOM      6  O   UNL     1      -0.846  10.512  23.387  0.00  0.00    +0.000 OA
ATOM      7  N   UNL     1      -0.237   9.276  22.918  0.00  0.00    +0.000 NA
ATOM      8  C   UNL     1       0.263   9.533  21.746  0.00  0.00    +0.000 A 
ATOM      9  C   UNL     1       0.992   8.645  20.843  0.00  0.00    +0.000 A 
ATOM     10  C   UNL     1       1.237   7.322  21.214  0.00  0.00    +0.000 A 
ATOM     11  C   UNL     1       1.942   6.485  20.348  0.00  0.00    +0.000 A 
ATOM     12  C   UNL     1       2.412   6.949  19.108  0.00  0.00    +0.000 A 
ATOM     13  C   UNL     1       2.144   8.295  18.768  0.00  0.00    +0.000 A 
ATOM     14  C   UNL     1       1.447   9.176  19.612  0.00  0.00    +0.000 A 
ENDROOT
BRANCH  12  15
ATOM     15  C   UNL     1       3.191   6.081  18.190  0.00  0.00    +0.000 A 
ATOM     16  C   UNL     1       2.901   4.715  18.046  0.00  0.00    +0.000 A 
ATOM     17  C   UNL     1       3.625   3.952  17.141  0.00  0.00    +0.000 A 
ATOM     18  N   UNL     1       4.624   4.440  16.382  0.00  0.00    +0.000 NA
ATOM     19  C   UNL     1       4.908   5.748  16.533  0.00  0.00    +0.000 A 
ATOM     20  C   UNL     1       4.231   6.592  17.403  0.00  0.00    +0.000 A 
ENDBRANCH  12  15
BRANCH   1  22
ATOM     21  C   UNL     1       2.264  12.569  18.375  0.00  0.00    +0.000 C 
ATOM     22  C   UNL     1       1.826  11.137  18.096  0.00  0.00    +0.000 C 
ENDBRANCH   1  22
TORSDOF 2
ENDMDL
MODEL 5
REMARK VINA RESULT:      -7.1      3.165      6.871
REMARK  Name = 
REMARK  3 active torsions:
REMARK  status: ('A' for Active; 'I' for Inactive)
REMARK    1  A    between atoms: C_1  and  C_2
REMARK    2  A    between atoms: C_2  and  N_3
REMARK    3  A    between atoms: C_14  and  C_15
REMARK                            x       y       z     vdW  Elec       q    Type
REMARK                         _______ _______ _______ _____ _____    ______ ____
ROOT
ATOM      1  N   UNL     1       1.934   6.136  20.656  0.00  0.00    +0.000 N 
ATOM      2  C   UNL     1       1.089   6.964  21.393  0.00  0.00    +0.000 A 
ATOM      3  C   UNL     1       0.787   8.213  21.044  0.00  0.00    +0.000 A 
ATOM      4  C   UNL     1      -0.049   9.243  21.625  0.00  0.00    +0.000 A 
ATOM      5  O   UNL     1      -0.699   9.180  22.653  0.00  0.00    +0.000 OA
ATOM      6  O   UNL     1       0.052  10.309  20.752  0.00  0.00    +0.000 OA
ATOM      7  N   UNL     1       0.925   9.979  19.636  0.00  0.00    +0.000 NA
ATOM      8  C   UNL     1       1.335   8.762  19.835  0.00  0.00    +0.000 A 
ATOM      9  C   UNL     1       2.221   7.943  19.012  0.00  0.00    +0.000 A 
ATOM     10  C   UNL     1       2.741   8.459  17.824  0.00  0.00    +0.000 A 
ATOM     11  C   UNL     1       3.580   7.665  17.038  0.00  0.00    +0.000 A 
ATOM     12  C   UNL     1       3.910   6.354  17.422  0.00  0.00    +0.000 A 
ATOM     13  C   UNL     1       3.364   5.867  18.632  0.00  0.00    +0.000 A 
ATOM     14  C   UNL     1       2.509   6.628  19.448  0.00  0.00    +0.000 A 
ENDROOT
BRANCH  12  15
ATOM     15  C   UNL     1       4.774   5.487  16.583  0.00  0.00    +0.000 A 
ATOM     16  C   UNL     1       4.819   4.096  16.764  0.00  0.00    +0.000 A 
ATOM     17  C   UNL     1       5.607   3.320  15.926  0.00  0.00    +0.000 A 
ATOM     18  N   UNL     1       6.362   3.823  14.932  0.00  0.00    +0.000 NA
ATOM     19  C   UNL     1       6.327   5.160  14.770  0.00  0.00    +0.000 A 
ATOM     20  C   UNL     1       5.561   6.015  15.551  0.00  0.00    +0.000 A 
ENDBRANCH  12  15
BRANCH   1  22
ATOM     21  C   UNL     1       0.956   3.883  20.411  0.00  0.00    +0.000 C 
ATOM     22  C   UNL     1       2.085   4.713  21.010  0.00  0.00    +0.000 C 
ENDBRANCH   1  22
TORSDOF 2
ENDMDL
MODEL 6
REMARK VINA RESULT:      -7.0      4.727      5.947
REMARK  Name = 
REMARK  3 active torsions:
REMARK  status: ('A' for Active; 'I' for Inactive)
REMARK    1  A    between atoms: C_1  and  C_2
REMARK    2  A    between atoms: C_2  and  N_3
REMARK    3  A    between atoms: C_14  and  C_15
REMARK                            x       y       z     vdW  Elec       q    Type
REMARK                         _______ _______ _______ _____ _____    ______ ____
ROOT
ATOM      1  N   UNL     1       6.828   5.270  17.270  0.00  0.00    +0.000 N 
ATOM      2  C   UNL     1       7.524   5.510  16.087  0.00  0.00    +0.000 A 
ATOM      3  C   UNL     1       7.145   5.044  14.898  0.00  0.00    +0.000 A 
ATOM      4  C   UNL     1       7.682   5.159  13.558  0.00  0.00    +0.000 A 
ATOM      5  O   UNL     1       8.689   5.748  13.210  0.00  0.00    +0.000 OA
ATOM      6  O   UNL     1       6.796   4.455  12.765  0.00  0.00    +0.000 OA
ATOM      7  N   UNL     1       5.714   3.903  13.566  0.00  0.00    +0.000 NA
ATOM      8  C   UNL     1       5.946   4.260  14.794  0.00  0.00    +0.000 A 
ATOM      9  C   UNL     1       5.165   3.980  15.997  0.00  0.00    +0.000 A 
ATOM     10  C   UNL     1       3.987   3.238  15.904  0.00  0.00    +0.000 A 
ATOM     11  C   UNL     1       3.242   2.983  17.058  0.00  0.00    +0.000 A 
ATOM     12  C   UNL     1       3.657   3.461  18.312  0.00  0.00    +0.000 A 
ATOM     13  C   UNL     1       4.856   4.208  18.365  0.00  0.00    +0.000 A 
ATOM     14  C   UNL     1       5.632   4.496  17.229  0.00  0.00    +0.000 A 
ENDROOT
BRANCH  12  15
ATOM     15  C   UNL     1       2.860   3.226  19.542  0.00  0.00    +0.000 A 
ATOM     16  C   UNL     1       3.407   2.578  20.661  0.00  0.00    +0.000 A 
ATOM     17  C   UNL     1       2.640   2.422  21.806  0.00  0.00    +0.000 A 
ATOM     18  N   UNL     1       1.367   2.847  21.918  0.00  0.00    +0.000 NA
ATOM     19  C   UNL     1       0.842   3.456  20.837  0.00  0.00    +0.000 A 
ATOM     20  C   UNL     1       1.536   3.668  19.654  0.00  0.00    +0.000 A 
ENDBRANCH  12  15
BRANCH   1  22
ATOM     21  C   UNL     1       7.917   7.274  18.213  0.00  0.00    +0.000 C 
ATOM     22  C   UNL     1       7.210   5.959  18.517  0.00  0.00    +0.000 C 
ENDBRANCH   1  22
TORSDOF 2
ENDMDL
MODEL 7
REMARK VINA RESULT:      -7.0      4.455      5.999
REMARK  Name = 
REMARK  3 active torsions:
REMARK  status: ('A' for Active; 'I' for Inactive)
REMARK    1  A    between atoms: C_1  and  C_2
REMARK    2  A    between atoms: C_2  and  N_3
REMARK    3  A    between atoms: C_14  and  C_15
REMARK                            x       y       z     vdW  Elec       q    Type
REMARK                         _______ _______ _______ _____ _____    ______ ____
ROOT
ATOM      1  N   UNL     1       6.804   5.606  17.113  0.00  0.00    +0.000 N 
ATOM      2  C   UNL     1       7.493   5.784  15.914  0.00  0.00    +0.000 A 
ATOM      3  C   UNL     1       7.174   5.166  14.778  0.00  0.00    +0.000 A 
ATOM      4  C   UNL     1       7.718   5.190  13.436  0.00  0.00    +0.000 A 
ATOM      5  O   UNL     1       8.673   5.828  13.034  0.00  0.00    +0.000 OA
ATOM      6  O   UNL     1       6.909   4.332  12.716  0.00  0.00    +0.000 OA
ATOM      7  N   UNL     1       5.869   3.771  13.565  0.00  0.00    +0.000 NA
ATOM      8  C   UNL     1       6.051   4.272  14.750  0.00  0.00    +0.000 A 
ATOM      9  C   UNL     1       5.281   4.047  15.972  0.00  0.00    +0.000 A 
ATOM     10  C   UNL     1       4.174   3.197  15.950  0.00  0.00    +0.000 A 
ATOM     11  C   UNL     1       3.438   2.997  17.120  0.00  0.00    +0.000 A 
ATOM     12  C   UNL     1       3.791   3.637  18.320  0.00  0.00    +0.000 A 
ATOM     13  C   UNL     1       4.919   4.490  18.302  0.00  0.00    +0.000 A 
ATOM     14  C   UNL     1       5.682   4.728  17.145  0.00  0.00    +0.000 A 
ENDROOT
BRANCH  12  15
ATOM     15  C   UNL     1       3.001   3.459  19.564  0.00  0.00    +0.000 A 
ATOM     16  C   UNL     1       1.800   4.153  19.779  0.00  0.00    +0.000 A 
ATOM     17  C   UNL     1       1.071   3.921  20.937  0.00  0.00    +0.000 A 
ATOM     18  N   UNL     1       1.453   3.062  21.901  0.00  0.00    +0.000 NA
ATOM     19  C   UNL     1       2.613   2.408  21.697  0.00  0.00    +0.000 A 
ATOM     20  C   UNL     1       3.403   2.567  20.567  0.00  0.00    +0.000 A 
ENDBRANCH  12  15
BRANCH   1  22
ATOM     21  C   UNL     1       7.773   7.751  17.853  0.00  0.00    +0.000 C 
ATOM     22  C   UNL     1       7.105   6.451  18.283  0.00  0.00    +0.000 C 
ENDBRANCH   1  22
TORSDOF 2
ENDMDL
MODEL 8
REMARK VINA RESULT:      -6.8      3.713      7.063
REMARK  Name = 
REMARK  3 active torsions:
REMARK  status: ('A' for Active; 'I' for Inactive)
REMARK    1  A    between atoms: C_1  and  C_2
REMARK    2  A    between atoms: C_2  and  N_3
REMARK    3  A    between atoms: C_14  and  C_15
REMARK                            x       y       z     vdW  Elec       q    Type
REMARK                         _______ _______ _______ _____ _____    ______ ____
ROOT
ATOM      1  N   UNL     1       0.003   9.942  21.146  0.00  0.00    +0.000 N 
ATOM      2  C   UNL     1      -0.578  11.209  21.130  0.00  0.00    +0.000 A 
ATOM      3  C   UNL     1      -0.401  12.091  20.148  0.00  0.00    +0.000 A 
ATOM      4  C   UNL     1      -0.891  13.432  19.905  0.00  0.00    +0.000 A 
ATOM      5  O   UNL     1      -1.620  14.097  20.618  0.00  0.00    +0.000 OA
ATOM      6  O   UNL     1      -0.348  13.787  18.685  0.00  0.00    +0.000 OA
ATOM      7  N   UNL     1       0.466  12.706  18.150  0.00  0.00    +0.000 NA
ATOM      8  C   UNL     1       0.415  11.741  19.020  0.00  0.00    +0.000 A 
ATOM      9  C   UNL     1       1.047  10.425  18.972  0.00  0.00    +0.000 A 
ATOM     10  C   UNL     1       1.825  10.066  17.870  0.00  0.00    +0.000 A 
ATOM     11  C   UNL     1       2.417   8.802  17.828  0.00  0.00    +0.000 A 
ATOM     12  C   UNL     1       2.243   7.882  18.876  0.00  0.00    +0.000 A 
ATOM     13  C   UNL     1       1.448   8.282  19.975  0.00  0.00    +0.000 A 
ATOM     14  C   UNL     1       0.827   9.540  20.054  0.00  0.00    +0.000 A 
ENDROOT
BRANCH  12  15
ATOM     15  C   UNL     1       2.839   6.524  18.832  0.00  0.00    +0.000 A 
ATOM     16  C   UNL     1       2.578   5.572  19.831  0.00  0.00    +0.000 A 
ATOM     17  C   UNL     1       3.120   4.299  19.724  0.00  0.00    +0.000 A 
ATOM     18  N   UNL     1       3.912   3.906  18.709  0.00  0.00    +0.000 NA
ATOM     19  C   UNL     1       4.171   4.826  17.760  0.00  0.00    +0.000 A 
ATOM     20  C   UNL     1       3.664   6.119  17.775  0.00  0.00    +0.000 A 
ENDBRANCH  12  15
BRANCH   1  22
ATOM     21  C   UNL     1      -0.070   9.492  23.571  0.00  0.00    +0.000 C 
ATOM     22  C   UNL     1      -0.373   8.957  22.177  0.00  0.00    +0.000 C 
ENDBRANCH   1  22
TORSDOF 2
ENDMDL
MODEL 9
REMARK VINA RESULT:      -6.8      3.704      7.094
REMARK  Name = 
REMARK  3 active torsions:
REMARK  status: ('A' for Active; 'I' for Inactive)
REMARK    1  A    between atoms: C_1  and  C_2
REMARK    2  A    between atoms: C_2  and  N_3
REMARK    3  A    between atoms: C_14  and  C_15
REMARK                            x       y       z     vdW  Elec       q    Type
REMARK                         _______ _______ _______ _____ _____    ______ ____
ROOT
ATOM      1  N   UNL     1       0.004   9.914  21.129  0.00  0.00    +0.000 N 
ATOM      2  C   UNL     1      -0.588  11.175  21.100  0.00  0.00    +0.000 A 
ATOM      3  C   UNL     1      -0.418  12.050  20.110  0.00  0.00    +0.000 A 
ATOM      4  C   UNL     1      -0.919  13.384  19.853  0.00  0.00    +0.000 A 
ATOM      5  O   UNL     1      -1.655  14.049  20.559  0.00  0.00    +0.000 OA
ATOM      6  O   UNL     1      -0.378  13.731  18.630  0.00  0.00    +0.000 OA
ATOM      7  N   UNL     1       0.445  12.652  18.106  0.00  0.00    +0.000 NA
ATOM      8  C   UNL     1       0.402  11.696  18.986  0.00  0.00    +0.000 A 
ATOM      9  C   UNL     1       1.045  10.384  18.951  0.00  0.00    +0.000 A 
ATOM     10  C   UNL     1       1.827  10.021  17.853  0.00  0.00    +0.000 A 
ATOM     11  C   UNL     1       2.429   8.762  17.824  0.00  0.00    +0.000 A 
ATOM     12  C   UNL     1       2.262   7.851  18.880  0.00  0.00    +0.000 A 
ATOM     13  C   UNL     1       1.464   8.255  19.975  0.00  0.00    +0.000 A 
ATOM     14  C   UNL     1       0.831   9.509  20.041  0.00  0.00    +0.000 A 
ENDROOT
BRANCH  12  15
ATOM     15  C   UNL     1       2.870   6.497  18.850  0.00  0.00    +0.000 A 
ATOM     16  C   UNL     1       3.772   6.117  17.844  0.00  0.00    +0.000 A 
ATOM     17  C   UNL     1       4.351   4.857  17.883  0.00  0.00    +0.000 A 
ATOM     18  N   UNL     1       4.090   3.942  18.836  0.00  0.00    +0.000 NA
ATOM     19  C   UNL     1       3.213   4.306  19.792  0.00  0.00    +0.000 A 
ATOM     20  C   UNL     1       2.594   5.548  19.843  0.00  0.00    +0.000 A 
ENDBRANCH  12  15
BRANCH   1  22
ATOM     21  C   UNL     1      -0.038   9.475  23.557  0.00  0.00    +0.000 C 
ATOM     22  C   UNL     1      -0.365   8.936  22.170  0.00  0.00    +0.000 C 
ENDBRANCH   1  22
TORSDOF 2
ENDMDL
