MODEL 1
REMARK VINA RESULT:      -7.7      0.000      0.000
REMARK  Name = 
REMARK  1 active torsions:
REMARK  status: ('A' for Active; 'I' for Inactive)
REMARK    1  A    between atoms: C_5  and  N_6
REMARK                            x       y       z     vdW  Elec       q    Type
REMARK                         _______ _______ _______ _____ _____    ______ ____
ROOT
ATOM      1  N   UNL     1       4.268   2.843  17.702  0.00  0.00    +0.000 N 
ATOM      2  C   UNL     1       5.324   3.667  17.470  0.00  0.00    +0.000 A 
ATOM      3  N   UNL     1       6.012   4.373  18.373  0.00  0.00    +0.000 NA
ATOM      4  N   UNL     1       6.911   5.057  17.661  0.00  0.00    +0.000 N 
ATOM      5  C   UNL     1       6.848   4.839  16.315  0.00  0.00    +0.000 A 
ATOM      6  C   UNL     1       7.584   5.376  15.255  0.00  0.00    +0.000 A 
ATOM      7  C   UNL     1       7.248   4.942  13.971  0.00  0.00    +0.000 A 
ATOM      8 CL   UNL     1       8.111   5.574  12.621  0.00  0.00    +0.000 Cl
ATOM      9  C   UNL     1       6.227   4.016  13.760  0.00  0.00    +0.000 A 
ATOM     10  C   UNL     1       5.503   3.491  14.841  0.00  0.00    +0.000 A 
ATOM     11  C   UNL     1       5.822   3.914  16.149  0.00  0.00    +0.000 A 
ATOM     12  H   UNL     1       3.911   2.321  16.911  0.00  0.00    +0.000 HD
ATOM     13  H   UNL     1       7.540   5.678  18.158  0.00  0.00    +0.000 HD
ENDROOT
BRANCH   1  18
ATOM     14  F   UNL     1       0.924   2.615  22.147  0.00  0.00    +0.000 F 
ATOM     15  C   UNL     1       1.734   2.625  21.079  0.00  0.00    +0.000 A 
ATOM     16  C   UNL     1       3.102   2.500  21.257  0.00  0.00    +0.000 A 
ATOM     17  C   UNL     1       3.948   2.537  20.143  0.00  0.00    +0.000 A 
ATOM     18  C   UNL     1       3.445   2.708  18.844  0.00  0.00    +0.000 A 
ATOM     19  C   UNL     1       2.053   2.808  18.691  0.00  0.00    +0.000 A 
ATOM     20  C   UNL     1       1.211   2.772  19.803  0.00  0.00    +0.000 A 
ATOM     21  F   UNL     1      -0.111   2.899  19.626  0.00  0.00    +0.000 F 
ENDBRANCH   1  18
TORSDOF 1
ENDMDL
MODEL 2
REMARK VINA RESULT:      -7.5      6.182      7.847
REMARK  Name = 
REMARK  1 active torsions:
REMARK  status: ('A' for Active; 'I' for Inactive)
REMARK    1  A    between atoms: C_5  and  N_6
REMARK                            x       y       z     vdW  Elec       q    Type
REMARK                         _______ _______ _______ _____ _____    ______ ____
ROOT
ATOM      1  N   UNL     1       3.241   6.403  18.587  0.00  0.00    +0.000 N 
ATOM      2  C   UNL     1       2.574   7.580  18.456  0.00  0.00    +0.000 A 
ATOM      3  N   UNL     1       2.542   8.376  17.383  0.00  0.00    +0.000 NA
ATOM      4  N   UNL     1       1.803   9.424  17.754  0.00  0.00    +0.000 N 
ATOM      5  C   UNL     1       1.343   9.362  19.038  0.00  0.00    +0.000 A 
ATOM      6  C   UNL     1       0.577  10.257  19.791  0.00  0.00    +0.000 A 
ATOM      7  C   UNL     1       0.290   9.888  21.106  0.00  0.00    +0.000 A 
ATOM      8 CL   UNL     1      -0.641  10.952  22.090  0.00  0.00    +0.000 Cl
ATOM      9  C   UNL     1       0.745   8.683  21.641  0.00  0.00    +0.000 A 
ATOM     10  C   UNL     1       1.512   7.801  20.864  0.00  0.00    +0.000 A 
ATOM     11  C   UNL     1       1.818   8.150  19.532  0.00  0.00    +0.000 A 
ATOM     12  H   UNL     1       3.094   5.885  19.445  0.00  0.00    +0.000 HD
ATOM     13  H   UNL     1       1.658  10.168  17.081  0.00  0.00    +0.000 HD
ENDROOT
BRANCH   1  18
ATOM     14  F   UNL     1       7.262   4.441  15.274  0.00  0.00    +0.000 F 
ATOM     15  C   UNL     1       6.304   4.881  16.101  0.00  0.00    +0.000 A 
ATOM     16  C   UNL     1       5.099   4.201  16.175  0.00  0.00    +0.000 A 
ATOM     17  C   UNL     1       4.090   4.677  17.020  0.00  0.00    +0.000 A 
ATOM     18  C   UNL     1       4.264   5.836  17.792  0.00  0.00    +0.000 A 
ATOM     19  C   UNL     1       5.504   6.491  17.715  0.00  0.00    +0.000 A 
ATOM     20  C   UNL     1       6.508   6.015  16.872  0.00  0.00    +0.000 A 
ATOM     21  F   UNL     1       7.670   6.680  16.800  0.00  0.00    +0.000 F 
ENDBRANCH   1  18
TORSDOF 1
ENDMDL
MODEL 3
REMARK VINA RESULT:      -7.5      0.696      1.529
REMARK  Name = 
REMARK  1 active torsions:
REMARK  status: ('A' for Active; 'I' for Inactive)
REMARK    1  A    between atoms: C_5  and  N_6
REMARK                            x       y       z     vdW  Elec       q    Type
REMARK                         _______ _______ _______ _____ _____    ______ ____
ROOT
ATOM      1  N   UNL     1       4.101   3.149  17.519  0.00  0.00    +0.000 N 
ATOM      2  C   UNL     1       5.150   3.971  17.258  0.00  0.00    +0.000 A 
ATOM      3  N   UNL     1       5.779   4.777  18.119  0.00  0.00    +0.000 NA
ATOM      4  N   UNL     1       6.699   5.411  17.387  0.00  0.00    +0.000 N 
ATOM      5  C   UNL     1       6.706   5.063  16.067  0.00  0.00    +0.000 A 
ATOM      6  C   UNL     1       7.483   5.513  14.996  0.00  0.00    +0.000 A 
ATOM      7  C   UNL     1       7.218   4.949  13.746  0.00  0.00    +0.000 A 
ATOM      8 CL   UNL     1       8.134   5.469  12.383  0.00  0.00    +0.000 Cl
ATOM      9  C   UNL     1       6.227   3.983  13.578  0.00  0.00    +0.000 A 
ATOM     10  C   UNL     1       5.461   3.547  14.670  0.00  0.00    +0.000 A 
ATOM     11  C   UNL     1       5.707   4.101  15.944  0.00  0.00    +0.000 A 
ATOM     12  H   UNL     1       3.793   2.544  16.766  0.00  0.00    +0.000 HD
ATOM     13  H   UNL     1       7.291   6.091  17.850  0.00  0.00    +0.000 HD
ENDROOT
BRANCH   1  18
ATOM     14  F   UNL     1       0.700   2.647  21.898  0.00  0.00    +0.000 F 
ATOM     15  C   UNL     1       1.520   2.812  20.851  0.00  0.00    +0.000 A 
ATOM     16  C   UNL     1       1.012   3.292  19.654  0.00  0.00    +0.000 A 
ATOM     17  C   UNL     1       1.864   3.438  18.554  0.00  0.00    +0.000 A 
ATOM     18  C   UNL     1       3.225   3.103  18.629  0.00  0.00    +0.000 A 
ATOM     19  C   UNL     1       3.717   2.643  19.861  0.00  0.00    +0.000 A 
ATOM     20  C   UNL     1       2.866   2.496  20.957  0.00  0.00    +0.000 A 
ATOM     21  F   UNL     1       3.360   2.027  22.111  0.00  0.00    +0.000 F 
ENDBRANCH   1  18
TORSDOF 1
ENDMDL
MODEL 4
REMARK VINA RESULT:      -7.4      4.553      7.235
REMARK  Name = 
REMARK  1 active torsions:
REMARK  status: ('A' for Active; 'I' for Inactive)
REMARK    1  A    between atoms: C_5  and  N_6
REMARK                            x       y       z     vdW  Elec       q    Type
REMARK                         _______ _______ _______ _____ _____    ______ ____
ROOT
ATOM      1  N   UNL     1       4.461   4.422  15.826  0.00  0.00    +0.000 N 
ATOM      2  C   UNL     1       4.695   4.087  17.122  0.00  0.00    +0.000 A 
ATOM      3  N   UNL     1       5.883   3.910  17.709  0.00  0.00    +0.000 NA
ATOM      4  N   UNL     1       5.597   3.548  18.961  0.00  0.00    +0.000 N 
ATOM      5  C   UNL     1       4.261   3.472  19.234  0.00  0.00    +0.000 A 
ATOM      6  C   UNL     1       3.574   3.109  20.396  0.00  0.00    +0.000 A 
ATOM      7  C   UNL     1       2.179   3.122  20.332  0.00  0.00    +0.000 A 
ATOM      8 CL   UNL     1       1.273   2.675  21.727  0.00  0.00    +0.000 Cl
ATOM      9  C   UNL     1       1.507   3.482  19.164  0.00  0.00    +0.000 A 
ATOM     10  C   UNL     1       2.221   3.843  18.011  0.00  0.00    +0.000 A 
ATOM     11  C   UNL     1       3.631   3.837  18.048  0.00  0.00    +0.000 A 
ATOM     12  H   UNL     1       3.497   4.595  15.563  0.00  0.00    +0.000 HD
ATOM     13  H   UNL     1       6.368   3.348  19.588  0.00  0.00    +0.000 HD
ENDROOT
BRANCH   1  18
ATOM     14  F   UNL     1       7.899   4.040  11.464  0.00  0.00    +0.000 F 
ATOM     15  C   UNL     1       7.058   4.172  12.499  0.00  0.00    +0.000 A 
ATOM     16  C   UNL     1       7.407   4.988  13.564  0.00  0.00    +0.000 A 
ATOM     17  C   UNL     1       6.540   5.104  14.655  0.00  0.00    +0.000 A 
ATOM     18  C   UNL     1       5.322   4.406  14.705  0.00  0.00    +0.000 A 
ATOM     19  C   UNL     1       4.984   3.607  13.601  0.00  0.00    +0.000 A 
ATOM     20  C   UNL     1       5.850   3.491  12.514  0.00  0.00    +0.000 A 
ATOM     21  F   UNL     1       5.511   2.697  11.489  0.00  0.00    +0.000 F 
ENDBRANCH   1  18
TORSDOF 1
ENDMDL
MODEL 5
REMARK VINA RESULT:      -7.4      5.546      6.486
REMARK  Name = 
REMARK  1 active torsions:
REMARK  status: ('A' for Active; 'I' for Inactive)
REMARK    1  A    between atoms: C_5  and  N_6
REMARK                            x       y       z     vdW  Elec       q    Type
REMARK                         _______ _______ _______ _____ _____    ______ ____
ROOT
ATOM      1  N   UNL     1       2.914   6.063  18.505  0.00  0.00    +0.000 N 
ATOM      2  C   UNL     1       2.312   6.894  19.396  0.00  0.00    +0.000 A 
ATOM      3  N   UNL     1       1.920   6.599  20.640  0.00  0.00    +0.000 NA
ATOM      4  N   UNL     1       1.345   7.716  21.092  0.00  0.00    +0.000 N 
ATOM      5  C   UNL     1       1.333   8.746  20.197  0.00  0.00    +0.000 A 
ATOM      6  C   UNL     1       0.810  10.040  20.282  0.00  0.00    +0.000 A 
ATOM      7  C   UNL     1       0.956  10.853  19.156  0.00  0.00    +0.000 A 
ATOM      8 CL   UNL     1       0.324  12.455  19.193  0.00  0.00    +0.000 Cl
ATOM      9  C   UNL     1       1.595  10.395  18.004  0.00  0.00    +0.000 A 
ATOM     10  C   UNL     1       2.112   9.091  17.945  0.00  0.00    +0.000 A 
ATOM     11  C   UNL     1       1.977   8.249  19.068  0.00  0.00    +0.000 A 
ATOM     12  H   UNL     1       3.217   6.471  17.629  0.00  0.00    +0.000 HD
ATOM     13  H   UNL     1       0.960   7.708  22.030  0.00  0.00    +0.000 HD
ENDROOT
BRANCH   1  18
ATOM     14  F   UNL     1       3.744   0.559  18.452  0.00  0.00    +0.000 F 
ATOM     15  C   UNL     1       3.504   1.877  18.484  0.00  0.00    +0.000 A 
ATOM     16  C   UNL     1       2.643   2.438  17.556  0.00  0.00    +0.000 A 
ATOM     17  C   UNL     1       2.414   3.818  17.574  0.00  0.00    +0.000 A 
ATOM     18  C   UNL     1       3.044   4.655  18.509  0.00  0.00    +0.000 A 
ATOM     19  C   UNL     1       3.893   4.055  19.453  0.00  0.00    +0.000 A 
ATOM     20  C   UNL     1       4.120   2.679  19.433  0.00  0.00    +0.000 A 
ATOM     21  F   UNL     1       4.959   2.142  20.329  0.00  0.00    +0.000 F 
ENDBRANCH   1  18
TORSDOF 1
ENDMDL
MODEL 6
REMARK VINA RESULT:      -7.4      4.750      7.432
REMARK  Name = 
REMARK  1 active torsions:
REMARK  status: ('A' for Active; 'I' for Inactive)
REMARK    1  A    between atoms: C_5  and  N_6
REMARK                            x       y       z     vdW  Elec       q    Type
REMARK                         _______ _______ _______ _____ _____    ______ ____
ROOT
ATOM      1  N   UNL     1       4.592   4.397  15.559  0.00  0.00    +0.000 N 
ATOM      2  C   UNL     1       4.794   4.100  16.869  0.00  0.00    +0.000 A 
ATOM      3  N   UNL     1       5.963   3.861  17.472  0.00  0.00    +0.000 NA
ATOM      4  N   UNL     1       5.644   3.573  18.736  0.00  0.00    +0.000 N 
ATOM      5  C   UNL     1       4.305   3.607  19.001  0.00  0.00    +0.000 A 
ATOM      6  C   UNL     1       3.587   3.344  20.171  0.00  0.00    +0.000 A 
ATOM      7  C   UNL     1       2.197   3.457  20.096  0.00  0.00    +0.000 A 
ATOM      8 CL   UNL     1       1.254   3.136  21.500  0.00  0.00    +0.000 Cl
ATOM      9  C   UNL     1       1.560   3.816  18.908  0.00  0.00    +0.000 A 
ATOM     10  C   UNL     1       2.304   4.075  17.747  0.00  0.00    +0.000 A 
ATOM     11  C   UNL     1       3.709   3.967  17.796  0.00  0.00    +0.000 A 
ATOM     12  H   UNL     1       3.645   4.629  15.281  0.00  0.00    +0.000 HD
ATOM     13  H   UNL     1       6.395   3.344  19.377  0.00  0.00    +0.000 HD
ENDROOT
BRANCH   1  18
ATOM     14  F   UNL     1       7.943   4.220  11.117  0.00  0.00    +0.000 F 
ATOM     15  C   UNL     1       7.153   4.223  12.199  0.00  0.00    +0.000 A 
ATOM     16  C   UNL     1       6.002   3.451  12.208  0.00  0.00    +0.000 A 
ATOM     17  C   UNL     1       5.164   3.475  13.328  0.00  0.00    +0.000 A 
ATOM     18  C   UNL     1       5.455   4.272  14.446  0.00  0.00    +0.000 A 
ATOM     19  C   UNL     1       6.640   5.025  14.420  0.00  0.00    +0.000 A 
ATOM     20  C   UNL     1       7.474   5.000  13.301  0.00  0.00    +0.000 A 
ATOM     21  F   UNL     1       8.583   5.753  13.296  0.00  0.00    +0.000 F 
ENDBRANCH   1  18
TORSDOF 1
ENDMDL
MODEL 7
REMARK VINA RESULT:      -7.4      6.348      7.830
REMARK  Name = 
REMARK  1 active torsions:
REMARK  status: ('A' for Active; 'I' for Inactive)
REMARK    1  A    between atoms: C_5  and  N_6
REMARK                            x       y       z     vdW  Elec       q    Type
REMARK                         _______ _______ _______ _____ _____    ______ ____
ROOT
ATOM      1  N   UNL     1       2.596   6.873  18.692  0.00  0.00    +0.000 N 
ATOM      2  C   UNL     1       2.074   8.120  18.554  0.00  0.00    +0.000 A 
ATOM      3  N   UNL     1       2.082   8.883  17.457  0.00  0.00    +0.000 NA
ATOM      4  N   UNL     1       1.499  10.025  17.828  0.00  0.00    +0.000 N 
ATOM      5  C   UNL     1       1.105  10.057  19.135  0.00  0.00    +0.000 A 
ATOM      6  C   UNL     1       0.496  11.061  19.893  0.00  0.00    +0.000 A 
ATOM      7  C   UNL     1       0.236  10.768  21.233  0.00  0.00    +0.000 A 
ATOM      8 CL   UNL     1      -0.503  11.967  22.224  0.00  0.00    +0.000 Cl
ATOM      9  C   UNL     1       0.568   9.531  21.786  0.00  0.00    +0.000 A 
ATOM     10  C   UNL     1       1.178   8.539  21.003  0.00  0.00    +0.000 A 
ATOM     11  C   UNL     1       1.452   8.810  19.646  0.00  0.00    +0.000 A 
ATOM     12  H   UNL     1       2.433   6.402  19.574  0.00  0.00    +0.000 HD
ATOM     13  H   UNL     1       1.411  10.762  17.138  0.00  0.00    +0.000 HD
ENDROOT
BRANCH   1  18
ATOM     14  F   UNL     1       6.260   3.922  15.715  0.00  0.00    +0.000 F 
ATOM     15  C   UNL     1       5.356   4.643  16.394  0.00  0.00    +0.000 A 
ATOM     16  C   UNL     1       5.452   6.025  16.403  0.00  0.00    +0.000 A 
ATOM     17  C   UNL     1       4.524   6.775  17.133  0.00  0.00    +0.000 A 
ATOM     18  C   UNL     1       3.498   6.161  17.867  0.00  0.00    +0.000 A 
ATOM     19  C   UNL     1       3.410   4.760  17.820  0.00  0.00    +0.000 A 
ATOM     20  C   UNL     1       4.337   4.014  17.092  0.00  0.00    +0.000 A 
ATOM     21  F   UNL     1       4.244   2.677  17.091  0.00  0.00    +0.000 F 
ENDBRANCH   1  18
TORSDOF 1
ENDMDL
MODEL 8
REMARK VINA RESULT:      -7.3      5.823      6.884
REMARK  Name = 
REMARK  1 active torsions:
REMARK  status: ('A' for Active; 'I' for Inactive)
REMARK    1  A    between atoms: C_5  and  N_6
REMARK                            x       y       z     vdW  Elec       q    Type
REMARK                         _______ _______ _______ _____ _____    ______ ____
ROOT
ATOM      1  N   UNL     1       2.535   6.726  18.173  0.00  0.00    +0.000 N 
ATOM      2  C   UNL     1       2.106   7.391  19.278  0.00  0.00    +0.000 A 
ATOM      3  N   UNL     1       2.083   6.938  20.535  0.00  0.00    +0.000 NA
ATOM      4  N   UNL     1       1.538   7.927  21.246  0.00  0.00    +0.000 N 
ATOM      5  C   UNL     1       1.191   9.024  20.511  0.00  0.00    +0.000 A 
ATOM      6  C   UNL     1       0.582  10.229  20.877  0.00  0.00    +0.000 A 
ATOM      7  C   UNL     1       0.350  11.152  19.856  0.00  0.00    +0.000 A 
ATOM      8 CL   UNL     1      -0.406  12.651  20.240  0.00  0.00    +0.000 Cl
ATOM      9  C   UNL     1       0.709  10.883  18.536  0.00  0.00    +0.000 A 
ATOM     10  C   UNL     1       1.319   9.667  18.194  0.00  0.00    +0.000 A 
ATOM     11  C   UNL     1       1.565   8.716  19.207  0.00  0.00    +0.000 A 
ATOM     12  H   UNL     1       2.558   7.246  17.303  0.00  0.00    +0.000 HD
ATOM     13  H   UNL     1       1.413   7.786  22.242  0.00  0.00    +0.000 HD
ENDROOT
BRANCH   1  18
ATOM     14  F   UNL     1       3.511   1.264  17.714  0.00  0.00    +0.000 F 
ATOM     15  C   UNL     1       3.275   2.582  17.779  0.00  0.00    +0.000 A 
ATOM     16  C   UNL     1       4.308   3.474  17.542  0.00  0.00    +0.000 A 
ATOM     17  C   UNL     1       4.066   4.849  17.637  0.00  0.00    +0.000 A 
ATOM     18  C   UNL     1       2.800   5.351  17.976  0.00  0.00    +0.000 A 
ATOM     19  C   UNL     1       1.766   4.424  18.187  0.00  0.00    +0.000 A 
ATOM     20  C   UNL     1       2.010   3.053  18.093  0.00  0.00    +0.000 A 
ATOM     21  F   UNL     1       1.008   2.194  18.329  0.00  0.00    +0.000 F 
ENDBRANCH   1  18
TORSDOF 1
ENDMDL
MODEL 9
REMARK VINA RESULT:      -7.2      6.517      7.898
REMARK  Name = 
REMARK  1 active torsions:
REMARK  status: ('A' for Active; 'I' for Inactive)
REMARK    1  A    between atoms: C_5  and  N_6
REMARK                            x       y       z     vdW  Elec       q    Type
REMARK                         _______ _______ _______ _____ _____    ______ ____
ROOT
ATOM      1  N   UNL     1       2.469   6.798  18.812  0.00  0.00    +0.000 N 
ATOM      2  C   UNL     1       2.053   8.072  18.589  0.00  0.00    +0.000 A 
ATOM      3  N   UNL     1       2.163   8.772  17.456  0.00  0.00    +0.000 NA
ATOM      4  N   UNL     1       1.658   9.974  17.744  0.00  0.00    +0.000 N 
ATOM      5  C   UNL     1       1.218  10.107  19.029  0.00  0.00    +0.000 A 
ATOM      6  C   UNL     1       0.662  11.195  19.709  0.00  0.00    +0.000 A 
ATOM      7  C   UNL     1       0.329  10.995  21.051  0.00  0.00    +0.000 A 
ATOM      8 CL   UNL     1      -0.350  12.299  21.947  0.00  0.00    +0.000 Cl
ATOM      9  C   UNL     1       0.541   9.768  21.678  0.00  0.00    +0.000 A 
ATOM     10  C   UNL     1       1.100   8.691  20.973  0.00  0.00    +0.000 A 
ATOM     11  C   UNL     1       1.446   8.866  19.617  0.00  0.00    +0.000 A 
ATOM     12  H   UNL     1       2.236   6.389  19.709  0.00  0.00    +0.000 HD
ATOM     13  H   UNL     1       1.655  10.678  17.014  0.00  0.00    +0.000 HD
ENDROOT
BRANCH   1  18
ATOM     14  F   UNL     1       5.863   3.760  15.612  0.00  0.00    +0.000 F 
ATOM     15  C   UNL     1       5.061   4.469  16.418  0.00  0.00    +0.000 A 
ATOM     16  C   UNL     1       3.899   3.893  16.906  0.00  0.00    +0.000 A 
ATOM     17  C   UNL     1       3.050   4.644  17.726  0.00  0.00    +0.000 A 
ATOM     18  C   UNL     1       3.342   5.975  18.064  0.00  0.00    +0.000 A 
ATOM     19  C   UNL     1       4.539   6.525  17.575  0.00  0.00    +0.000 A 
ATOM     20  C   UNL     1       5.383   5.775  16.756  0.00  0.00    +0.000 A 
ATOM     21  F   UNL     1       6.503   6.338  16.282  0.00  0.00    +0.000 F 
ENDBRANCH   1  18
TORSDOF 1
ENDMDL
