MODEL 1
REMARK VINA RESULT:      -7.8      0.000      0.000
REMARK  Name = 
REMARK  3 active torsions:
REMARK  status: ('A' for Active; 'I' for Inactive)
REMARK    1  A    between atoms: C_1  and  N_2
REMARK    2  A    between atoms: N_2  and  C_14
REMARK    3  A    between atoms: C_3  and  C_5
REMARK                            x       y       z     vdW  Elec       q    Type
REMARK                         _______ _______ _______ _____ _____    ______ ____
ROOT
ATOM      1  C   UNL     1       3.292   5.963  17.824  0.00  0.00    +0.000 C 
ATOM      2  N   UNL     1       3.873   4.762  18.438  0.00  0.00    +0.000 N 
ATOM      3  C   UNL     1       5.247   4.433  18.409  0.00  0.00    +0.000 C 
ATOM      4  O   UNL     1       5.746   3.636  19.205  0.00  0.00    +0.000 OA
ENDROOT
BRANCH   3   5
ATOM      5  C   UNL     1       6.089   5.034  17.379  0.00  0.00    +0.000 A 
ATOM      6  C   UNL     1       6.972   6.134  17.454  0.00  0.00    +0.000 A 
ATOM      7  N   UNL     1       7.621   6.383  16.318  0.00  0.00    +0.000 NA
ATOM      8  N   UNL     1       7.109   5.493  15.432  0.00  0.00    +0.000 N 
ATOM      9  C   UNL     1       7.476   5.344  14.093  0.00  0.00    +0.000 A 
ATOM     10  C   UNL     1       6.846   4.452  13.313  0.00  0.00    +0.000 A 
ATOM     11  C   UNL     1       5.767   3.669  13.888  0.00  0.00    +0.000 A 
ATOM     12  C   UNL     1       5.425   3.780  15.188  0.00  0.00    +0.000 A 
ATOM     13  C   UNL     1       6.123   4.702  16.030  0.00  0.00    +0.000 A 
ENDBRANCH   3   5
BRANCH   2  14
ATOM     14  C   UNL     1       3.001   4.083  19.356  0.00  0.00    +0.000 A 
ATOM     15  C   UNL     1       2.781   4.630  20.629  0.00  0.00    +0.000 A 
ATOM     16  C   UNL     1       1.909   4.016  21.533  0.00  0.00    +0.000 A 
ATOM     17  C   UNL     1       1.249   2.842  21.181  0.00  0.00    +0.000 A 
ATOM     18  C   UNL     1       1.459   2.281  19.922  0.00  0.00    +0.000 A 
ATOM     19  C   UNL     1       2.327   2.896  19.010  0.00  0.00    +0.000 A 
ATOM     20 CL   UNL     1       2.597   2.071  17.513  0.00  0.00    +0.000 Cl
ENDBRANCH   2  14
TORSDOF 2
ENDMDL
MODEL 2
REMARK VINA RESULT:      -7.2      1.309      1.540
REMARK  Name = 
REMARK  3 active torsions:
REMARK  status: ('A' for Active; 'I' for Inactive)
REMARK    1  A    between atoms: C_1  and  N_2
REMARK    2  A    between atoms: N_2  and  C_14
REMARK    3  A    between atoms: C_3  and  C_5
REMARK                            x       y       z     vdW  Elec       q    Type
REMARK                         _______ _______ _______ _____ _____    ______ ____
ROOT
ATOM      1  C   UNL     1       5.788   4.363  19.073  0.00  0.00    +0.000 C 
ATOM      2  N   UNL     1       4.523   4.338  18.325  0.00  0.00    +0.000 N 
ATOM      3  C   UNL     1       4.427   4.310  16.916  0.00  0.00    +0.000 C 
ATOM      4  O   UNL     1       3.403   3.942  16.338  0.00  0.00    +0.000 OA
ENDROOT
BRANCH   3   5
ATOM      5  C   UNL     1       5.568   4.766  16.128  0.00  0.00    +0.000 A 
ATOM      6  C   UNL     1       6.591   5.683  16.456  0.00  0.00    +0.000 A 
ATOM      7  N   UNL     1       7.509   5.830  15.502  0.00  0.00    +0.000 NA
ATOM      8  N   UNL     1       7.058   5.068  14.475  0.00  0.00    +0.000 N 
ATOM      9  C   UNL     1       7.681   4.880  13.240  0.00  0.00    +0.000 A 
ATOM     10  C   UNL     1       7.093   4.133  12.291  0.00  0.00    +0.000 A 
ATOM     11  C   UNL     1       5.793   3.552  12.574  0.00  0.00    +0.000 A 
ATOM     12  C   UNL     1       5.197   3.699  13.776  0.00  0.00    +0.000 A 
ATOM     13  C   UNL     1       5.841   4.459  14.801  0.00  0.00    +0.000 A 
ENDBRANCH   3   5
BRANCH   2  14
ATOM     14  C   UNL     1       3.369   4.022  19.121  0.00  0.00    +0.000 A 
ATOM     15  C   UNL     1       2.690   5.053  19.787  0.00  0.00    +0.000 A 
ATOM     16  C   UNL     1       1.541   4.787  20.539  0.00  0.00    +0.000 A 
ATOM     17  C   UNL     1       1.058   3.486  20.641  0.00  0.00    +0.000 A 
ATOM     18  C   UNL     1       1.722   2.448  19.990  0.00  0.00    +0.000 A 
ATOM     19  C   UNL     1       2.870   2.710  19.230  0.00  0.00    +0.000 A 
ATOM     20 CL   UNL     1       3.679   1.343  18.542  0.00  0.00    +0.000 Cl
ENDBRANCH   2  14
TORSDOF 2
ENDMDL
MODEL 3
REMARK VINA RESULT:      -7.1      1.675      2.043
REMARK  Name = 
REMARK  3 active torsions:
REMARK  status: ('A' for Active; 'I' for Inactive)
REMARK    1  A    between atoms: C_1  and  N_2
REMARK    2  A    between atoms: N_2  and  C_14
REMARK    3  A    between atoms: C_3  and  C_5
REMARK                            x       y       z     vdW  Elec       q    Type
REMARK                         _______ _______ _______ _____ _____    ______ ____
ROOT
ATOM      1  C   UNL     1       5.845   4.623  19.149  0.00  0.00    +0.000 C 
ATOM      2  N   UNL     1       4.587   4.482  18.404  0.00  0.00    +0.000 N 
ATOM      3  C   UNL     1       4.498   4.340  17.001  0.00  0.00    +0.000 C 
ATOM      4  O   UNL     1       3.495   3.882  16.452  0.00  0.00    +0.000 OA
ENDROOT
BRANCH   3   5
ATOM      5  C   UNL     1       5.621   4.785  16.181  0.00  0.00    +0.000 A 
ATOM      6  C   UNL     1       6.659   5.697  16.478  0.00  0.00    +0.000 A 
ATOM      7  N   UNL     1       7.553   5.834  15.500  0.00  0.00    +0.000 NA
ATOM      8  N   UNL     1       7.069   5.070  14.489  0.00  0.00    +0.000 N 
ATOM      9  C   UNL     1       7.658   4.872  13.238  0.00  0.00    +0.000 A 
ATOM     10  C   UNL     1       7.041   4.126  12.309  0.00  0.00    +0.000 A 
ATOM     11  C   UNL     1       5.744   3.554  12.629  0.00  0.00    +0.000 A 
ATOM     12  C   UNL     1       5.182   3.710  13.844  0.00  0.00    +0.000 A 
ATOM     13  C   UNL     1       5.858   4.471  14.849  0.00  0.00    +0.000 A 
ENDBRANCH   3   5
BRANCH   2  14
ATOM     14  C   UNL     1       3.445   4.177  19.220  0.00  0.00    +0.000 A 
ATOM     15  C   UNL     1       3.250   2.860  19.666  0.00  0.00    +0.000 A 
ATOM     16  C   UNL     1       2.170   2.536  20.494  0.00  0.00    +0.000 A 
ATOM     17  C   UNL     1       1.266   3.520  20.883  0.00  0.00    +0.000 A 
ATOM     18  C   UNL     1       1.441   4.832  20.446  0.00  0.00    +0.000 A 
ATOM     19  C   UNL     1       2.524   5.164  19.622  0.00  0.00    +0.000 A 
ATOM     20 CL   UNL     1       2.600   6.796  19.052  0.00  0.00    +0.000 Cl
ENDBRANCH   2  14
TORSDOF 2
ENDMDL
MODEL 4
REMARK VINA RESULT:      -6.8      1.260      1.277
REMARK  Name = 
REMARK  3 active torsions:
REMARK  status: ('A' for Active; 'I' for Inactive)
REMARK    1  A    between atoms: C_1  and  N_2
REMARK    2  A    between atoms: N_2  and  C_14
REMARK    3  A    between atoms: C_3  and  C_5
REMARK                            x       y       z     vdW  Elec       q    Type
REMARK                         _______ _______ _______ _____ _____    ______ ____
ROOT
ATOM      1  C   UNL     1       4.812   5.695  19.273  0.00  0.00    +0.000 C 
ATOM      2  N   UNL     1       4.228   4.491  18.666  0.00  0.00    +0.000 N 
ATOM      3  C   UNL     1       4.819   3.758  17.613  0.00  0.00    +0.000 C 
ATOM      4  O   UNL     1       4.501   2.594  17.367  0.00  0.00    +0.000 OA
ENDROOT
BRANCH   3   5
ATOM      5  C   UNL     1       5.811   4.420  16.771  0.00  0.00    +0.000 A 
ATOM      6  C   UNL     1       6.783   5.391  17.103  0.00  0.00    +0.000 A 
ATOM      7  N   UNL     1       7.563   5.745  16.083  0.00  0.00    +0.000 NA
ATOM      8  N   UNL     1       7.058   5.070  15.020  0.00  0.00    +0.000 N 
ATOM      9  C   UNL     1       7.540   5.097  13.710  0.00  0.00    +0.000 A 
ATOM     10  C   UNL     1       6.908   4.416  12.741  0.00  0.00    +0.000 A 
ATOM     11  C   UNL     1       5.708   3.675  13.086  0.00  0.00    +0.000 A 
ATOM     12  C   UNL     1       5.252   3.613  14.353  0.00  0.00    +0.000 A 
ATOM     13  C   UNL     1       5.947   4.306  15.393  0.00  0.00    +0.000 A 
ENDBRANCH   3   5
BRANCH   2  14
ATOM     14  C   UNL     1       3.155   3.906  19.421  0.00  0.00    +0.000 A 
ATOM     15  C   UNL     1       3.438   3.270  20.639  0.00  0.00    +0.000 A 
ATOM     16  C   UNL     1       2.413   2.723  21.418  0.00  0.00    +0.000 A 
ATOM     17  C   UNL     1       1.092   2.798  20.989  0.00  0.00    +0.000 A 
ATOM     18  C   UNL     1       0.792   3.422  19.779  0.00  0.00    +0.000 A 
ATOM     19  C   UNL     1       1.814   3.977  18.997  0.00  0.00    +0.000 A 
ATOM     20 CL   UNL     1       1.353   4.642  17.467  0.00  0.00    +0.000 Cl
ENDBRANCH   2  14
TORSDOF 2
ENDMDL
MODEL 5
REMARK VINA RESULT:      -6.8      0.991      1.003
REMARK  Name = 
REMARK  3 active torsions:
REMARK  status: ('A' for Active; 'I' for Inactive)
REMARK    1  A    between atoms: C_1  and  N_2
REMARK    2  A    between atoms: N_2  and  C_14
REMARK    3  A    between atoms: C_3  and  C_5
REMARK                            x       y       z     vdW  Elec       q    Type
REMARK                         _______ _______ _______ _____ _____    ______ ____
ROOT
ATOM      1  C   UNL     1       3.670   6.800  17.311  0.00  0.00    +0.000 C 
ATOM      2  N   UNL     1       3.849   5.437  17.829  0.00  0.00    +0.000 N 
ATOM      3  C   UNL     1       5.044   4.691  17.725  0.00  0.00    +0.000 C 
ATOM      4  O   UNL     1       5.277   3.724  18.452  0.00  0.00    +0.000 OA
ENDROOT
BRANCH   3   5
ATOM      5  C   UNL     1       6.013   5.062  16.698  0.00  0.00    +0.000 A 
ATOM      6  C   UNL     1       7.077   5.991  16.746  0.00  0.00    +0.000 A 
ATOM      7  N   UNL     1       7.798   6.043  15.627  0.00  0.00    +0.000 NA
ATOM      8  N   UNL     1       7.162   5.201  14.774  0.00  0.00    +0.000 N 
ATOM      9  C   UNL     1       7.540   4.899  13.464  0.00  0.00    +0.000 A 
ATOM     10  C   UNL     1       6.785   4.082  12.712  0.00  0.00    +0.000 A 
ATOM     11  C   UNL     1       5.564   3.545  13.286  0.00  0.00    +0.000 A 
ATOM     12  C   UNL     1       5.206   3.802  14.561  0.00  0.00    +0.000 A 
ATOM     13  C   UNL     1       6.031   4.640  15.375  0.00  0.00    +0.000 A 
ENDBRANCH   3   5
BRANCH   2  14
ATOM     14  C   UNL     1       2.824   5.009  18.740  0.00  0.00    +0.000 A 
ATOM     15  C   UNL     1       2.518   5.806  19.855  0.00  0.00    +0.000 A 
ATOM     16  C   UNL     1       1.500   5.439  20.740  0.00  0.00    +0.000 A 
ATOM     17  C   UNL     1       0.777   4.268  20.530  0.00  0.00    +0.000 A 
ATOM     18  C   UNL     1       1.071   3.462  19.432  0.00  0.00    +0.000 A 
ATOM     19  C   UNL     1       2.085   3.828  18.537  0.00  0.00    +0.000 A 
ATOM     20 CL   UNL     1       2.441   2.713  17.262  0.00  0.00    +0.000 Cl
ENDBRANCH   2  14
TORSDOF 2
ENDMDL
MODEL 6
REMARK VINA RESULT:      -6.7      1.228      1.602
REMARK  Name = 
REMARK  3 active torsions:
REMARK  status: ('A' for Active; 'I' for Inactive)
REMARK    1  A    between atoms: C_1  and  N_2
REMARK    2  A    between atoms: N_2  and  C_14
REMARK    3  A    between atoms: C_3  and  C_5
REMARK                            x       y       z     vdW  Elec       q    Type
REMARK                         _______ _______ _______ _____ _____    ______ ____
ROOT
ATOM      1  C   UNL     1       3.202   5.890  17.413  0.00  0.00    +0.000 C 
ATOM      2  N   UNL     1       3.790   4.784  18.180  0.00  0.00    +0.000 N 
ATOM      3  C   UNL     1       5.175   4.528  18.283  0.00  0.00    +0.000 C 
ATOM      4  O   UNL     1       5.648   3.836  19.186  0.00  0.00    +0.000 OA
ENDROOT
BRANCH   3   5
ATOM      5  C   UNL     1       6.065   5.077  17.263  0.00  0.00    +0.000 A 
ATOM      6  C   UNL     1       6.998   6.135  17.345  0.00  0.00    +0.000 A 
ATOM      7  N   UNL     1       7.682   6.339  16.221  0.00  0.00    +0.000 NA
ATOM      8  N   UNL     1       7.145   5.465  15.334  0.00  0.00    +0.000 N 
ATOM      9  C   UNL     1       7.532   5.283  14.004  0.00  0.00    +0.000 A 
ATOM     10  C   UNL     1       6.876   4.413  13.221  0.00  0.00    +0.000 A 
ATOM     11  C   UNL     1       5.749   3.689  13.782  0.00  0.00    +0.000 A 
ATOM     12  C   UNL     1       5.387   3.831  15.073  0.00  0.00    +0.000 A 
ATOM     13  C   UNL     1       6.111   4.728  15.920  0.00  0.00    +0.000 A 
ENDBRANCH   3   5
BRANCH   2  14
ATOM     14  C   UNL     1       2.882   4.145  19.092  0.00  0.00    +0.000 A 
ATOM     15  C   UNL     1       2.639   2.768  18.971  0.00  0.00    +0.000 A 
ATOM     16  C   UNL     1       1.792   2.108  19.866  0.00  0.00    +0.000 A 
ATOM     17  C   UNL     1       1.169   2.814  20.890  0.00  0.00    +0.000 A 
ATOM     18  C   UNL     1       1.394   4.183  21.024  0.00  0.00    +0.000 A 
ATOM     19  C   UNL     1       2.248   4.849  20.134  0.00  0.00    +0.000 A 
ATOM     20 CL   UNL     1       2.386   6.564  20.321  0.00  0.00    +0.000 Cl
ENDBRANCH   2  14
TORSDOF 2
ENDMDL
MODEL 7
REMARK VINA RESULT:      -6.5      1.288      1.449
REMARK  Name = 
REMARK  3 active torsions:
REMARK  status: ('A' for Active; 'I' for Inactive)
REMARK    1  A    between atoms: C_1  and  N_2
REMARK    2  A    between atoms: N_2  and  C_14
REMARK    3  A    between atoms: C_3  and  C_5
REMARK                            x       y       z     vdW  Elec       q    Type
REMARK                         _______ _______ _______ _____ _____    ______ ____
ROOT
ATOM      1  C   UNL     1       4.495   2.567  17.551  0.00  0.00    +0.000 C 
ATOM      2  N   UNL     1       4.121   3.723  18.378  0.00  0.00    +0.000 N 
ATOM      3  C   UNL     1       4.472   5.060  18.089  0.00  0.00    +0.000 C 
ATOM      4  O   UNL     1       3.870   6.016  18.582  0.00  0.00    +0.000 OA
ENDROOT
BRANCH   3   5
ATOM      5  C   UNL     1       5.606   5.311  17.204  0.00  0.00    +0.000 A 
ATOM      6  C   UNL     1       6.784   6.059  17.426  0.00  0.00    +0.000 A 
ATOM      7  N   UNL     1       7.637   6.038  16.403  0.00  0.00    +0.000 NA
ATOM      8  N   UNL     1       6.991   5.337  15.438  0.00  0.00    +0.000 N 
ATOM      9  C   UNL     1       7.479   5.027  14.166  0.00  0.00    +0.000 A 
ATOM     10  C   UNL     1       6.708   4.365  13.288  0.00  0.00    +0.000 A 
ATOM     11  C   UNL     1       5.358   4.006  13.685  0.00  0.00    +0.000 A 
ATOM     12  C   UNL     1       4.888   4.270  14.921  0.00  0.00    +0.000 A 
ATOM     13  C   UNL     1       5.723   4.939  15.871  0.00  0.00    +0.000 A 
ENDBRANCH   3   5
BRANCH   2  14
ATOM     14  C   UNL     1       3.097   3.453  19.349  0.00  0.00    +0.000 A 
ATOM     15  C   UNL     1       3.459   2.957  20.611  0.00  0.00    +0.000 A 
ATOM     16  C   UNL     1       2.492   2.719  21.592  0.00  0.00    +0.000 A 
ATOM     17  C   UNL     1       1.149   2.966  21.325  0.00  0.00    +0.000 A 
ATOM     18  C   UNL     1       0.770   3.455  20.076  0.00  0.00    +0.000 A 
ATOM     19  C   UNL     1       1.735   3.701  19.091  0.00  0.00    +0.000 A 
ATOM     20 CL   UNL     1       1.157   4.211  17.542  0.00  0.00    +0.000 Cl
ENDBRANCH   2  14
TORSDOF 2
ENDMDL
MODEL 8
REMARK VINA RESULT:      -6.5      1.565      1.910
REMARK  Name = 
REMARK  3 active torsions:
REMARK  status: ('A' for Active; 'I' for Inactive)
REMARK    1  A    between atoms: C_1  and  N_2
REMARK    2  A    between atoms: N_2  and  C_14
REMARK    3  A    between atoms: C_3  and  C_5
REMARK                            x       y       z     vdW  Elec       q    Type
REMARK                         _______ _______ _______ _____ _____    ______ ____
ROOT
ATOM      1  C   UNL     1       4.331   5.915  17.927  0.00  0.00    +0.000 C 
ATOM      2  N   UNL     1       4.028   4.534  17.524  0.00  0.00    +0.000 N 
ATOM      3  C   UNL     1       4.875   3.727  16.733  0.00  0.00    +0.000 C 
ATOM      4  O   UNL     1       4.771   2.500  16.705  0.00  0.00    +0.000 OA
ENDROOT
BRANCH   3   5
ATOM      5  C   UNL     1       5.881   4.377  15.898  0.00  0.00    +0.000 A 
ATOM      6  C   UNL     1       6.827   5.375  16.225  0.00  0.00    +0.000 A 
ATOM      7  N   UNL     1       7.630   5.708  15.216  0.00  0.00    +0.000 NA
ATOM      8  N   UNL     1       7.167   4.989  14.163  0.00  0.00    +0.000 N 
ATOM      9  C   UNL     1       7.687   4.980  12.866  0.00  0.00    +0.000 A 
ATOM     10  C   UNL     1       7.095   4.256  11.904  0.00  0.00    +0.000 A 
ATOM     11  C   UNL     1       5.897   3.506  12.239  0.00  0.00    +0.000 A 
ATOM     12  C   UNL     1       5.406   3.480  13.495  0.00  0.00    +0.000 A 
ATOM     13  C   UNL     1       6.059   4.219  14.530  0.00  0.00    +0.000 A 
ENDBRANCH   3   5
BRANCH   2  14
ATOM     14  C   UNL     1       2.946   3.928  18.249  0.00  0.00    +0.000 A 
ATOM     15  C   UNL     1       1.630   4.096  17.789  0.00  0.00    +0.000 A 
ATOM     16  C   UNL     1       0.557   3.488  18.449  0.00  0.00    +0.000 A 
ATOM     17  C   UNL     1       0.781   2.710  19.580  0.00  0.00    +0.000 A 
ATOM     18  C   UNL     1       2.080   2.535  20.054  0.00  0.00    +0.000 A 
ATOM     19  C   UNL     1       3.160   3.136  19.394  0.00  0.00    +0.000 A 
ATOM     20 CL   UNL     1       4.722   2.943  20.115  0.00  0.00    +0.000 Cl
ENDBRANCH   2  14
TORSDOF 2
ENDMDL
MODEL 9
REMARK VINA RESULT:      -5.9      1.473      1.661
REMARK  Name = 
REMARK  3 active torsions:
REMARK  status: ('A' for Active; 'I' for Inactive)
REMARK    1  A    between atoms: C_1  and  N_2
REMARK    2  A    between atoms: N_2  and  C_14
REMARK    3  A    between atoms: C_3  and  C_5
REMARK                            x       y       z     vdW  Elec       q    Type
REMARK                         _______ _______ _______ _____ _____    ______ ____
ROOT
ATOM      1  C   UNL     1       4.383   2.603  17.457  0.00  0.00    +0.000 C 
ATOM      2  N   UNL     1       4.095   3.769  18.304  0.00  0.00    +0.000 N 
ATOM      3  C   UNL     1       4.503   5.090  18.013  0.00  0.00    +0.000 C 
ATOM      4  O   UNL     1       3.966   6.069  18.534  0.00  0.00    +0.000 OA
ENDROOT
BRANCH   3   5
ATOM      5  C   UNL     1       5.618   5.292  17.094  0.00  0.00    +0.000 A 
ATOM      6  C   UNL     1       6.825   6.006  17.271  0.00  0.00    +0.000 A 
ATOM      7  N   UNL     1       7.647   5.943  16.225  0.00  0.00    +0.000 NA
ATOM      8  N   UNL     1       6.954   5.248  15.289  0.00  0.00    +0.000 N 
ATOM      9  C   UNL     1       7.395   4.904  14.010  0.00  0.00    +0.000 A 
ATOM     10  C   UNL     1       6.580   4.254  13.164  0.00  0.00    +0.000 A 
ATOM     11  C   UNL     1       5.231   3.942  13.604  0.00  0.00    +0.000 A 
ATOM     12  C   UNL     1       4.805   4.240  14.849  0.00  0.00    +0.000 A 
ATOM     13  C   UNL     1       5.686   4.896  15.764  0.00  0.00    +0.000 A 
ENDBRANCH   3   5
BRANCH   2  14
ATOM     14  C   UNL     1       3.091   3.541  19.306  0.00  0.00    +0.000 A 
ATOM     15  C   UNL     1       1.831   4.144  19.167  0.00  0.00    +0.000 A 
ATOM     16  C   UNL     1       0.819   3.913  20.103  0.00  0.00    +0.000 A 
ATOM     17  C   UNL     1       1.051   3.082  21.195  0.00  0.00    +0.000 A 
ATOM     18  C   UNL     1       2.297   2.478  21.351  0.00  0.00    +0.000 A 
ATOM     19  C   UNL     1       3.314   2.701  20.413  0.00  0.00    +0.000 A 
ATOM     20 CL   UNL     1       4.855   1.987  20.748  0.00  0.00    +0.000 Cl
ENDBRANCH   2  14
TORSDOF 2
ENDMDL
