MODEL 1
REMARK VINA RESULT:      -7.8      0.000      0.000
REMARK  Name = 
REMARK  10 active torsions:
REMARK  status: ('A' for Active; 'I' for Inactive)
REMARK    1  A    between atoms: C_1  and  O_2
REMARK    2  A    between atoms: O_2  and  C_3
REMARK    3  A    between atoms: C_6  and  C_7
REMARK    4  A    between atoms: C_20  and  C_21
REMARK    5  A    between atoms: C_24  and  O_25
REMARK    6  A    between atoms: O_25  and  C_26
REMARK    7  A    between atoms: C_27  and  O_28
REMARK    8  A    between atoms: O_28  and  C_29
REMARK    9  A    between atoms: C_32  and  O_33
REMARK   10  A    between atoms: O_33  and  C_34
REMARK                            x       y       z     vdW  Elec       q    Type
REMARK                         _______ _______ _______ _____ _____    ______ ____
ROOT
ATOM      1  C   UNL     1       0.790   8.615  21.317  0.00  0.00    +0.000 C 
ATOM      2  C   UNL     1       1.299   8.297  20.105  0.00  0.00    +0.000 C 
ATOM      3  C   UNL     1       1.471   9.337  19.011  0.00  0.00    +0.000 C 
ATOM      4  C   UNL     1       1.092   8.775  17.649  0.00  0.00    +0.000 C 
ATOM      5  C   UNL     1       1.945   7.558  17.328  0.00  0.00    +0.000 C 
ATOM      6  C   UNL     1       2.049   6.591  18.484  0.00  0.00    +0.000 C 
ATOM      7  C   UNL     1       1.726   6.927  19.753  0.00  0.00    +0.000 C 
ATOM      8  N   UNL     1       1.798   6.038  20.805  0.00  0.00    +0.000 NA
ATOM      9  C   UNL     1       2.173   4.846  20.497  0.00  0.00    +0.000 C 
ATOM     10  S   UNL     1       2.305   3.561  21.725  0.00  0.00    +0.000 S 
ATOM     11  C   UNL     1       2.809   2.409  20.504  0.00  0.00    +0.000 C 
ATOM     12  C   UNL     1       2.859   2.981  19.293  0.00  0.00    +0.000 C 
ATOM     13  N   UNL     1       2.522   4.327  19.270  0.00  0.00    +0.000 N 
ATOM     14  C   UNL     1       2.538   5.202  18.116  0.00  0.00    +0.000 C 
ENDROOT
BRANCH   1  18
ATOM     15  C   UNL     1      -0.493  12.534  22.500  0.00  0.00    +0.000 A 
ATOM     16  C   UNL     1      -1.057  11.384  23.077  0.00  0.00    +0.000 A 
ATOM     17  C   UNL     1      -0.633  10.106  22.698  0.00  0.00    +0.000 A 
ATOM     18  C   UNL     1       0.350   9.956  21.720  0.00  0.00    +0.000 A 
ATOM     19  C   UNL     1       0.874  11.098  21.107  0.00  0.00    +0.000 A 
ATOM     20  C   UNL     1       0.445  12.389  21.465  0.00  0.00    +0.000 A 
BRANCH  15  22
ATOM     21  C   UNL     1      -2.181  14.185  22.593  0.00  0.00    +0.000 C 
ATOM     22  O   UNL     1      -0.850  13.788  22.919  0.00  0.00    +0.000 OA
ENDBRANCH  15  22
BRANCH  20  23
ATOM     23  O   UNL     1       1.066  13.363  20.728  0.00  0.00    +0.000 OA
ATOM     24  C   UNL     1       1.258  13.164  19.336  0.00  0.00    +0.000 C 
ENDBRANCH  20  23
ENDBRANCH   1  18
BRANCH  14  25
ATOM     25  C   UNL     1       3.932   5.237  17.495  0.00  0.00    +0.000 A 
ATOM     26  C   UNL     1       4.213   4.541  16.314  0.00  0.00    +0.000 A 
ATOM     27  C   UNL     1       5.499   4.561  15.782  0.00  0.00    +0.000 A 
ATOM     28  C   UNL     1       6.535   5.270  16.407  0.00  0.00    +0.000 A 
ATOM     29  C   UNL     1       6.270   5.979  17.594  0.00  0.00    +0.000 A 
ATOM     30  C   UNL     1       4.967   5.956  18.119  0.00  0.00    +0.000 A 
BRANCH  28  31
ATOM     31  O   UNL     1       7.716   5.150  15.722  0.00  0.00    +0.000 OA
ATOM     32  C   UNL     1       7.682   4.932  14.322  0.00  0.00    +0.000 C 
ENDBRANCH  28  31
BRANCH  29  33
ATOM     33  O   UNL     1       7.299   6.657  18.192  0.00  0.00    +0.000 OA
ATOM     34  C   UNL     1       7.689   7.915  17.657  0.00  0.00    +0.000 C 
ENDBRANCH  29  33
ENDBRANCH  14  25
TORSDOF 6
ENDMDL
MODEL 2
REMARK VINA RESULT:      -7.5      3.455      9.788
REMARK  Name = 
REMARK  10 active torsions:
REMARK  status: ('A' for Active; 'I' for Inactive)
REMARK    1  A    between atoms: C_1  and  O_2
REMARK    2  A    between atoms: O_2  and  C_3
REMARK    3  A    between atoms: C_6  and  C_7
REMARK    4  A    between atoms: C_20  and  C_21
REMARK    5  A    between atoms: C_24  and  O_25
REMARK    6  A    between atoms: O_25  and  C_26
REMARK    7  A    between atoms: C_27  and  O_28
REMARK    8  A    between atoms: O_28  and  C_29
REMARK    9  A    between atoms: C_32  and  O_33
REMARK   10  A    between atoms: O_33  and  C_34
REMARK                            x       y       z     vdW  Elec       q    Type
REMARK                         _______ _______ _______ _____ _____    ______ ____
ROOT
ATOM      1  C   UNL     1       1.513   7.874  18.018  0.00  0.00    +0.000 C 
ATOM      2  C   UNL     1       1.101   8.836  18.875  0.00  0.00    +0.000 C 
ATOM      3  C   UNL     1       1.881   9.173  20.135  0.00  0.00    +0.000 C 
ATOM      4  C   UNL     1       0.949   9.430  21.310  0.00  0.00    +0.000 C 
ATOM      5  C   UNL     1      -0.004  10.569  20.985  0.00  0.00    +0.000 C 
ATOM      6  C   UNL     1      -0.621  10.446  19.612  0.00  0.00    +0.000 C 
ATOM      7  C   UNL     1      -0.126   9.630  18.656  0.00  0.00    +0.000 C 
ATOM      8  N   UNL     1      -0.702   9.499  17.409  0.00  0.00    +0.000 NA
ATOM      9  C   UNL     1      -1.769  10.193  17.219  0.00  0.00    +0.000 C 
ATOM     10  S   UNL     1      -2.658  10.135  15.675  0.00  0.00    +0.000 S 
ATOM     11  C   UNL     1      -3.849  11.265  16.288  0.00  0.00    +0.000 C 
ATOM     12  C   UNL     1      -3.567  11.627  17.546  0.00  0.00    +0.000 C 
ATOM     13  N   UNL     1      -2.418  11.055  18.074  0.00  0.00    +0.000 N 
ATOM     14  C   UNL     1      -1.851  11.306  19.383  0.00  0.00    +0.000 C 
ENDROOT
BRANCH   1  18
ATOM     15  C   UNL     1       5.043   5.489  18.519  0.00  0.00    +0.000 A 
ATOM     16  C   UNL     1       5.014   6.554  17.602  0.00  0.00    +0.000 A 
ATOM     17  C   UNL     1       3.866   7.337  17.445  0.00  0.00    +0.000 A 
ATOM     18  C   UNL     1       2.720   7.056  18.188  0.00  0.00    +0.000 A 
ATOM     19  C   UNL     1       2.731   5.965  19.062  0.00  0.00    +0.000 A 
ATOM     20  C   UNL     1       3.872   5.157  19.218  0.00  0.00    +0.000 A 
BRANCH  15  22
ATOM     21  C   UNL     1       7.063   4.664  17.610  0.00  0.00    +0.000 C 
ATOM     22  O   UNL     1       6.187   4.766  18.732  0.00  0.00    +0.000 OA
ENDBRANCH  15  22
BRANCH  20  23
ATOM     23  O   UNL     1       3.662   4.131  20.101  0.00  0.00    +0.000 OA
ATOM     24  C   UNL     1       3.353   2.839  19.603  0.00  0.00    +0.000 C 
ENDBRANCH  20  23
ENDBRANCH   1  18
BRANCH  14  25
ATOM     25  C   UNL     1      -1.545  12.791  19.555  0.00  0.00    +0.000 A 
ATOM     26  C   UNL     1      -0.552  13.415  18.792  0.00  0.00    +0.000 A 
ATOM     27  C   UNL     1      -0.268  14.764  18.988  0.00  0.00    +0.000 A 
ATOM     28  C   UNL     1      -0.959  15.524  19.943  0.00  0.00    +0.000 A 
ATOM     29  C   UNL     1      -1.965  14.914  20.715  0.00  0.00    +0.000 A 
ATOM     30  C   UNL     1      -2.247  13.554  20.506  0.00  0.00    +0.000 A 
BRANCH  28  31
ATOM     31  O   UNL     1      -0.517  16.821  19.975  0.00  0.00    +0.000 OA
ATOM     32  C   UNL     1      -1.052  17.754  19.051  0.00  0.00    +0.000 C 
ENDBRANCH  28  31
BRANCH  29  33
ATOM     33  O   UNL     1      -2.621  15.672  21.647  0.00  0.00    +0.000 OA
ATOM     34  C   UNL     1      -3.176  15.026  22.786  0.00  0.00    +0.000 C 
ENDBRANCH  29  33
ENDBRANCH  14  25
TORSDOF 6
ENDMDL
MODEL 3
REMARK VINA RESULT:      -7.5      3.491      9.585
REMARK  Name = 
REMARK  10 active torsions:
REMARK  status: ('A' for Active; 'I' for Inactive)
REMARK    1  A    between atoms: C_1  and  O_2
REMARK    2  A    between atoms: O_2  and  C_3
REMARK    3  A    between atoms: C_6  and  C_7
REMARK    4  A    between atoms: C_20  and  C_21
REMARK    5  A    between atoms: C_24  and  O_25
REMARK    6  A    between atoms: O_25  and  C_26
REMARK    7  A    between atoms: C_27  and  O_28
REMARK    8  A    between atoms: O_28  and  C_29
REMARK    9  A    between atoms: C_32  and  O_33
REMARK   10  A    between atoms: O_33  and  C_34
REMARK                            x       y       z     vdW  Elec       q    Type
REMARK                         _______ _______ _______ _____ _____    ______ ____
ROOT
ATOM      1  C   UNL     1       1.420   8.056  18.022  0.00  0.00    +0.000 C 
ATOM      2  C   UNL     1       1.008   8.982  18.918  0.00  0.00    +0.000 C 
ATOM      3  C   UNL     1       1.797   9.280  20.181  0.00  0.00    +0.000 C 
ATOM      4  C   UNL     1       0.874   9.485  21.373  0.00  0.00    +0.000 C 
ATOM      5  C   UNL     1      -0.091  10.627  21.100  0.00  0.00    +0.000 C 
ATOM      6  C   UNL     1      -0.720  10.549  19.728  0.00  0.00    +0.000 C 
ATOM      7  C   UNL     1      -0.227   9.773  18.738  0.00  0.00    +0.000 C 
ATOM      8  N   UNL     1      -0.815   9.682  17.493  0.00  0.00    +0.000 NA
ATOM      9  C   UNL     1      -1.889  10.374  17.338  0.00  0.00    +0.000 C 
ATOM     10  S   UNL     1      -2.793  10.364  15.801  0.00  0.00    +0.000 S 
ATOM     11  C   UNL     1      -3.987  11.461  16.467  0.00  0.00    +0.000 C 
ATOM     12  C   UNL     1      -3.696  11.779  17.735  0.00  0.00    +0.000 C 
ATOM     13  N   UNL     1      -2.537  11.198  18.230  0.00  0.00    +0.000 N 
ATOM     14  C   UNL     1      -1.960  11.406  19.542  0.00  0.00    +0.000 C 
ENDROOT
BRANCH   1  18
ATOM     15  C   UNL     1       4.975   5.685  18.403  0.00  0.00    +0.000 A 
ATOM     16  C   UNL     1       4.905   6.741  17.478  0.00  0.00    +0.000 A 
ATOM     17  C   UNL     1       3.750   7.520  17.360  0.00  0.00    +0.000 A 
ATOM     18  C   UNL     1       2.635   7.243  18.151  0.00  0.00    +0.000 A 
ATOM     19  C   UNL     1       2.684   6.159  19.033  0.00  0.00    +0.000 A 
ATOM     20  C   UNL     1       3.833   5.356  19.151  0.00  0.00    +0.000 A 
BRANCH  15  22
ATOM     21  C   UNL     1       7.305   5.558  18.027  0.00  0.00    +0.000 C 
ATOM     22  O   UNL     1       6.128   4.967  18.576  0.00  0.00    +0.000 OA
ENDBRANCH  15  22
BRANCH  20  23
ATOM     23  O   UNL     1       3.662   4.338  20.050  0.00  0.00    +0.000 OA
ATOM     24  C   UNL     1       2.410   4.190  20.703  0.00  0.00    +0.000 C 
ENDBRANCH  20  23
ENDBRANCH   1  18
BRANCH  14  25
ATOM     25  C   UNL     1      -1.665  12.887  19.766  0.00  0.00    +0.000 A 
ATOM     26  C   UNL     1      -2.425  13.646  20.661  0.00  0.00    +0.000 A 
ATOM     27  C   UNL     1      -2.159  15.002  20.826  0.00  0.00    +0.000 A 
ATOM     28  C   UNL     1      -1.136  15.637  20.107  0.00  0.00    +0.000 A 
ATOM     29  C   UNL     1      -0.357  14.888  19.205  0.00  0.00    +0.000 A 
ATOM     30  C   UNL     1      -0.631  13.519  19.051  0.00  0.00    +0.000 A 
BRANCH  28  31
ATOM     31  O   UNL     1      -1.051  16.970  20.415  0.00  0.00    +0.000 OA
ATOM     32  C   UNL     1      -1.754  17.908  19.619  0.00  0.00    +0.000 C 
ENDBRANCH  28  31
BRANCH  29  33
ATOM     33  O   UNL     1       0.631  15.530  18.508  0.00  0.00    +0.000 OA
ATOM     34  C   UNL     1       1.964  15.467  18.999  0.00  0.00    +0.000 C 
ENDBRANCH  29  33
ENDBRANCH  14  25
TORSDOF 6
ENDMDL
MODEL 4
REMARK VINA RESULT:      -7.4      0.724      1.590
REMARK  Name = 
REMARK  10 active torsions:
REMARK  status: ('A' for Active; 'I' for Inactive)
REMARK    1  A    between atoms: C_1  and  O_2
REMARK    2  A    between atoms: O_2  and  C_3
REMARK    3  A    between atoms: C_6  and  C_7
REMARK    4  A    between atoms: C_20  and  C_21
REMARK    5  A    between atoms: C_24  and  O_25
REMARK    6  A    between atoms: O_25  and  C_26
REMARK    7  A    between atoms: C_27  and  O_28
REMARK    8  A    between atoms: O_28  and  C_29
REMARK    9  A    between atoms: C_32  and  O_33
REMARK   10  A    between atoms: O_33  and  C_34
REMARK                            x       y       z     vdW  Elec       q    Type
REMARK                         _______ _______ _______ _____ _____    ______ ____
ROOT
ATOM      1  C   UNL     1       0.883   8.851  21.162  0.00  0.00    +0.000 C 
ATOM      2  C   UNL     1       1.383   8.470  19.964  0.00  0.00    +0.000 C 
ATOM      3  C   UNL     1       1.584   9.460  18.830  0.00  0.00    +0.000 C 
ATOM      4  C   UNL     1       1.191   8.853  17.491  0.00  0.00    +0.000 C 
ATOM      5  C   UNL     1       2.012   7.602  17.221  0.00  0.00    +0.000 C 
ATOM      6  C   UNL     1       2.089   6.680  18.415  0.00  0.00    +0.000 C 
ATOM      7  C   UNL     1       1.774   7.076  19.669  0.00  0.00    +0.000 C 
ATOM      8  N   UNL     1       1.821   6.229  20.757  0.00  0.00    +0.000 NA
ATOM      9  C   UNL     1       2.164   5.016  20.497  0.00  0.00    +0.000 C 
ATOM     10  S   UNL     1       2.261   3.779  21.777  0.00  0.00    +0.000 S 
ATOM     11  C   UNL     1       2.735   2.565  20.605  0.00  0.00    +0.000 C 
ATOM     12  C   UNL     1       2.800   3.086  19.373  0.00  0.00    +0.000 C 
ATOM     13  N   UNL     1       2.500   4.438  19.294  0.00  0.00    +0.000 N 
ATOM     14  C   UNL     1       2.541   5.264  18.105  0.00  0.00    +0.000 C 
ENDROOT
BRANCH   1  18
ATOM     15  C   UNL     1      -0.304  12.849  22.167  0.00  0.00    +0.000 A 
ATOM     16  C   UNL     1       0.814  12.610  21.351  0.00  0.00    +0.000 A 
ATOM     17  C   UNL     1       1.196  11.307  21.015  0.00  0.00    +0.000 A 
ATOM     18  C   UNL     1       0.478  10.219  21.508  0.00  0.00    +0.000 A 
ATOM     19  C   UNL     1      -0.603  10.452  22.364  0.00  0.00    +0.000 A 
ATOM     20  C   UNL     1      -0.989  11.756  22.724  0.00  0.00    +0.000 A 
BRANCH  15  22
ATOM     21  C   UNL     1      -0.755  15.009  21.320  0.00  0.00    +0.000 C 
ATOM     22  O   UNL     1      -0.728  14.123  22.439  0.00  0.00    +0.000 OA
ENDBRANCH  15  22
BRANCH  20  23
ATOM     23  O   UNL     1      -2.052  11.761  23.588  0.00  0.00    +0.000 OA
ATOM     24  C   UNL     1      -3.287  12.317  23.164  0.00  0.00    +0.000 C 
ENDBRANCH  20  23
ENDBRANCH   1  18
BRANCH  14  25
ATOM     25  C   UNL     1       3.935   5.237  17.485  0.00  0.00    +0.000 A 
ATOM     26  C   UNL     1       4.203   4.470  16.346  0.00  0.00    +0.000 A 
ATOM     27  C   UNL     1       5.489   4.435  15.817  0.00  0.00    +0.000 A 
ATOM     28  C   UNL     1       6.540   5.156  16.403  0.00  0.00    +0.000 A 
ATOM     29  C   UNL     1       6.287   5.937  17.546  0.00  0.00    +0.000 A 
ATOM     30  C   UNL     1       4.984   5.970  18.070  0.00  0.00    +0.000 A 
BRANCH  28  31
ATOM     31  O   UNL     1       7.718   4.975  15.728  0.00  0.00    +0.000 OA
ATOM     32  C   UNL     1       7.716   5.027  14.311  0.00  0.00    +0.000 C 
ENDBRANCH  28  31
BRANCH  29  33
ATOM     33  O   UNL     1       7.329   6.627  18.107  0.00  0.00    +0.000 OA
ATOM     34  C   UNL     1       7.652   7.912  17.593  0.00  0.00    +0.000 C 
ENDBRANCH  29  33
ENDBRANCH  14  25
TORSDOF 6
ENDMDL
MODEL 5
REMARK VINA RESULT:      -7.4      4.063     10.843
REMARK  Name = 
REMARK  10 active torsions:
REMARK  status: ('A' for Active; 'I' for Inactive)
REMARK    1  A    between atoms: C_1  and  O_2
REMARK    2  A    between atoms: O_2  and  C_3
REMARK    3  A    between atoms: C_6  and  C_7
REMARK    4  A    between atoms: C_20  and  C_21
REMARK    5  A    between atoms: C_24  and  O_25
REMARK    6  A    between atoms: O_25  and  C_26
REMARK    7  A    between atoms: C_27  and  O_28
REMARK    8  A    between atoms: O_28  and  C_29
REMARK    9  A    between atoms: C_32  and  O_33
REMARK   10  A    between atoms: O_33  and  C_34
REMARK                            x       y       z     vdW  Elec       q    Type
REMARK                         _______ _______ _______ _____ _____    ______ ____
ROOT
ATOM      1  C   UNL     1       1.176  10.257  19.584  0.00  0.00    +0.000 C 
ATOM      2  C   UNL     1      -0.111  10.639  19.424  0.00  0.00    +0.000 C 
ATOM      3  C   UNL     1      -1.141   9.732  18.774  0.00  0.00    +0.000 C 
ATOM      4  C   UNL     1      -2.067  10.516  17.855  0.00  0.00    +0.000 C 
ATOM      5  C   UNL     1      -2.778  11.609  18.635  0.00  0.00    +0.000 C 
ATOM      6  C   UNL     1      -1.848  12.393  19.531  0.00  0.00    +0.000 C 
ATOM      7  C   UNL     1      -0.615  11.956  19.869  0.00  0.00    +0.000 C 
ATOM      8  N   UNL     1       0.245  12.681  20.668  0.00  0.00    +0.000 NA
ATOM      9  C   UNL     1      -0.196  13.826  21.056  0.00  0.00    +0.000 C 
ATOM     10  S   UNL     1       0.786  14.907  22.079  0.00  0.00    +0.000 S 
ATOM     11  C   UNL     1      -0.491  16.107  22.081  0.00  0.00    +0.000 C 
ATOM     12  C   UNL     1      -1.544  15.693  21.363  0.00  0.00    +0.000 C 
ATOM     13  N   UNL     1      -1.404  14.433  20.799  0.00  0.00    +0.000 N 
ATOM     14  C   UNL     1      -2.398  13.720  20.022  0.00  0.00    +0.000 C 
ENDROOT
BRANCH   1  18
ATOM     15  C   UNL     1       2.799   6.483  18.348  0.00  0.00    +0.000 A 
ATOM     16  C   UNL     1       2.724   7.565  17.456  0.00  0.00    +0.000 A 
ATOM     17  C   UNL     1       2.203   8.798  17.860  0.00  0.00    +0.000 A 
ATOM     18  C   UNL     1       1.729   8.964  19.161  0.00  0.00    +0.000 A 
ATOM     19  C   UNL     1       1.753   7.873  20.034  0.00  0.00    +0.000 A 
ATOM     20  C   UNL     1       2.258   6.622  19.637  0.00  0.00    +0.000 A 
BRANCH  15  22
ATOM     21  C   UNL     1       4.636   5.408  17.321  0.00  0.00    +0.000 C 
ATOM     22  O   UNL     1       3.375   5.296  17.981  0.00  0.00    +0.000 OA
ENDBRANCH  15  22
BRANCH  20  23
ATOM     23  O   UNL     1       2.167   5.687  20.634  0.00  0.00    +0.000 OA
ATOM     24  C   UNL     1       1.204   4.650  20.527  0.00  0.00    +0.000 C 
ENDBRANCH  20  23
ENDBRANCH   1  18
BRANCH  14  25
ATOM     25  C   UNL     1      -3.678  13.539  20.832  0.00  0.00    +0.000 A 
ATOM     26  C   UNL     1      -4.887  14.097  20.403  0.00  0.00    +0.000 A 
ATOM     27  C   UNL     1      -6.036  13.947  21.174  0.00  0.00    +0.000 A 
ATOM     28  C   UNL     1      -6.014  13.242  22.386  0.00  0.00    +0.000 A 
ATOM     29  C   UNL     1      -4.807  12.669  22.830  0.00  0.00    +0.000 A 
ATOM     30  C   UNL     1      -3.655  12.823  22.043  0.00  0.00    +0.000 A 
BRANCH  28  31
ATOM     31  O   UNL     1      -7.247  13.221  22.983  0.00  0.00    +0.000 OA
ATOM     32  C   UNL     1      -7.553  14.195  23.967  0.00  0.00    +0.000 C 
ENDBRANCH  28  31
BRANCH  29  33
ATOM     33  O   UNL     1      -4.807  11.992  24.021  0.00  0.00    +0.000 OA
ATOM     34  C   UNL     1      -4.295  12.644  25.176  0.00  0.00    +0.000 C 
ENDBRANCH  29  33
ENDBRANCH  14  25
TORSDOF 6
ENDMDL
MODEL 6
REMARK VINA RESULT:      -7.3      3.685      9.130
REMARK  Name = 
REMARK  10 active torsions:
REMARK  status: ('A' for Active; 'I' for Inactive)
REMARK    1  A    between atoms: C_1  and  O_2
REMARK    2  A    between atoms: O_2  and  C_3
REMARK    3  A    between atoms: C_6  and  C_7
REMARK    4  A    between atoms: C_20  and  C_21
REMARK    5  A    between atoms: C_24  and  O_25
REMARK    6  A    between atoms: O_25  and  C_26
REMARK    7  A    between atoms: C_27  and  O_28
REMARK    8  A    between atoms: O_28  and  C_29
REMARK    9  A    between atoms: C_32  and  O_33
REMARK   10  A    between atoms: O_33  and  C_34
REMARK                            x       y       z     vdW  Elec       q    Type
REMARK                         _______ _______ _______ _____ _____    ______ ____
ROOT
ATOM      1  C   UNL     1       1.905   6.701  20.671  0.00  0.00    +0.000 C 
ATOM      2  C   UNL     1       1.486   7.605  19.757  0.00  0.00    +0.000 C 
ATOM      3  C   UNL     1       1.683   7.387  18.267  0.00  0.00    +0.000 C 
ATOM      4  C   UNL     1       2.084   8.677  17.568  0.00  0.00    +0.000 C 
ATOM      5  C   UNL     1       1.024   9.744  17.786  0.00  0.00    +0.000 C 
ATOM      6  C   UNL     1       0.568   9.835  19.223  0.00  0.00    +0.000 C 
ATOM      7  C   UNL     1       0.806   8.863  20.131  0.00  0.00    +0.000 C 
ATOM      8  N   UNL     1       0.412   8.955  21.450  0.00  0.00    +0.000 NA
ATOM      9  C   UNL     1      -0.183  10.050  21.773  0.00  0.00    +0.000 C 
ATOM     10  S   UNL     1      -0.746  10.351  23.437  0.00  0.00    +0.000 S 
ATOM     11  C   UNL     1      -1.347  11.931  22.976  0.00  0.00    +0.000 C 
ATOM     12  C   UNL     1      -1.123  12.172  21.677  0.00  0.00    +0.000 C 
ATOM     13  N   UNL     1      -0.491  11.143  20.994  0.00  0.00    +0.000 N 
ATOM     14  C   UNL     1      -0.174  11.111  19.581  0.00  0.00    +0.000 C 
ENDROOT
BRANCH   1  18
ATOM     15  C   UNL     1       3.889   3.012  19.743  0.00  0.00    +0.000 A 
ATOM     16  C   UNL     1       2.630   3.019  20.367  0.00  0.00    +0.000 A 
ATOM     17  C   UNL     1       1.978   4.221  20.662  0.00  0.00    +0.000 A 
ATOM     18  C   UNL     1       2.585   5.439  20.356  0.00  0.00    +0.000 A 
ATOM     19  C   UNL     1       3.861   5.434  19.784  0.00  0.00    +0.000 A 
ATOM     20  C   UNL     1       4.536   4.233  19.497  0.00  0.00    +0.000 A 
BRANCH  15  22
ATOM     21  C   UNL     1       3.853   1.109  18.342  0.00  0.00    +0.000 C 
ATOM     22  O   UNL     1       4.498   1.839  19.385  0.00  0.00    +0.000 OA
ENDBRANCH  15  22
BRANCH  20  23
ATOM     23  O   UNL     1       5.778   4.453  18.965  0.00  0.00    +0.000 OA
ATOM     24  C   UNL     1       5.931   4.494  17.554  0.00  0.00    +0.000 C 
ENDBRANCH  20  23
ENDBRANCH   1  18
BRANCH  14  25
ATOM     25  C   UNL     1      -1.440  11.283  18.747  0.00  0.00    +0.000 A 
ATOM     26  C   UNL     1      -2.660  11.608  19.349  0.00  0.00    +0.000 A 
ATOM     27  C   UNL     1      -3.809  11.729  18.572  0.00  0.00    +0.000 A 
ATOM     28  C   UNL     1      -3.776  11.532  17.184  0.00  0.00    +0.000 A 
ATOM     29  C   UNL     1      -2.555  11.210  16.561  0.00  0.00    +0.000 A 
ATOM     30  C   UNL     1      -1.401  11.094  17.353  0.00  0.00    +0.000 A 
BRANCH  28  31
ATOM     31  O   UNL     1      -5.014  11.692  16.619  0.00  0.00    +0.000 OA
ATOM     32  C   UNL     1      -5.975  12.498  17.281  0.00  0.00    +0.000 C 
ENDBRANCH  28  31
BRANCH  29  33
ATOM     33  O   UNL     1      -2.547  11.013  15.206  0.00  0.00    +0.000 OA
ATOM     34  C   UNL     1      -2.935   9.743  14.698  0.00  0.00    +0.000 C 
ENDBRANCH  29  33
ENDBRANCH  14  25
TORSDOF 6
ENDMDL
MODEL 7
REMARK VINA RESULT:      -7.2      4.347     11.150
REMARK  Name = 
REMARK  10 active torsions:
REMARK  status: ('A' for Active; 'I' for Inactive)
REMARK    1  A    between atoms: C_1  and  O_2
REMARK    2  A    between atoms: O_2  and  C_3
REMARK    3  A    between atoms: C_6  and  C_7
REMARK    4  A    between atoms: C_20  and  C_21
REMARK    5  A    between atoms: C_24  and  O_25
REMARK    6  A    between atoms: O_25  and  C_26
REMARK    7  A    between atoms: C_27  and  O_28
REMARK    8  A    between atoms: O_28  and  C_29
REMARK    9  A    between atoms: C_32  and  O_33
REMARK   10  A    between atoms: O_33  and  C_34
REMARK                            x       y       z     vdW  Elec       q    Type
REMARK                         _______ _______ _______ _____ _____    ______ ____
ROOT
ATOM      1  C   UNL     1       1.004  10.495  19.748  0.00  0.00    +0.000 C 
ATOM      2  C   UNL     1      -0.294  10.843  19.600  0.00  0.00    +0.000 C 
ATOM      3  C   UNL     1      -1.300   9.921  18.932  0.00  0.00    +0.000 C 
ATOM      4  C   UNL     1      -2.251  10.697  18.034  0.00  0.00    +0.000 C 
ATOM      5  C   UNL     1      -2.991  11.752  18.840  0.00  0.00    +0.000 C 
ATOM      6  C   UNL     1      -2.081  12.542  19.751  0.00  0.00    +0.000 C 
ATOM      7  C   UNL     1      -0.835  12.134  20.076  0.00  0.00    +0.000 C 
ATOM      8  N   UNL     1       0.007  12.866  20.888  0.00  0.00    +0.000 NA
ATOM      9  C   UNL     1      -0.467  13.989  21.303  0.00  0.00    +0.000 C 
ATOM     10  S   UNL     1       0.487  15.075  22.347  0.00  0.00    +0.000 S 
ATOM     11  C   UNL     1      -0.825  16.237  22.380  0.00  0.00    +0.000 C 
ATOM     12  C   UNL     1      -1.867  15.808  21.656  0.00  0.00    +0.000 C 
ATOM     13  N   UNL     1      -1.693  14.566  21.063  0.00  0.00    +0.000 N 
ATOM     14  C   UNL     1      -2.668  13.842  20.273  0.00  0.00    +0.000 C 
ENDROOT
BRANCH   1  18
ATOM     15  C   UNL     1       2.732   6.799  18.423  0.00  0.00    +0.000 A 
ATOM     16  C   UNL     1       2.630   7.901  17.557  0.00  0.00    +0.000 A 
ATOM     17  C   UNL     1       2.074   9.109  17.991  0.00  0.00    +0.000 A 
ATOM     18  C   UNL     1       1.593   9.229  19.294  0.00  0.00    +0.000 A 
ATOM     19  C   UNL     1       1.646   8.118  20.140  0.00  0.00    +0.000 A 
ATOM     20  C   UNL     1       2.186   6.891  19.713  0.00  0.00    +0.000 A 
BRANCH  15  22
ATOM     21  C   UNL     1       4.734   5.545  18.331  0.00  0.00    +0.000 C 
ATOM     22  O   UNL     1       3.342   5.638  18.028  0.00  0.00    +0.000 OA
ENDBRANCH  15  22
BRANCH  20  23
ATOM     23  O   UNL     1       2.119   5.930  20.686  0.00  0.00    +0.000 OA
ATOM     24  C   UNL     1       1.222   4.842  20.527  0.00  0.00    +0.000 C 
ENDBRANCH  20  23
ENDBRANCH   1  18
BRANCH  14  25
ATOM     25  C   UNL     1      -3.940  13.605  21.082  0.00  0.00    +0.000 A 
ATOM     26  C   UNL     1      -3.904  12.902  22.291  0.00  0.00    +0.000 A 
ATOM     27  C   UNL     1      -5.080  12.670  22.998  0.00  0.00    +0.000 A 
ATOM     28  C   UNL     1      -6.318  13.128  22.523  0.00  0.00    +0.000 A 
ATOM     29  C   UNL     1      -6.372  13.841  21.311  0.00  0.00    +0.000 A 
ATOM     30  C   UNL     1      -5.178  14.074  20.608  0.00  0.00    +0.000 A 
BRANCH  28  31
ATOM     31  O   UNL     1      -7.342  12.786  23.367  0.00  0.00    +0.000 OA
ATOM     32  C   UNL     1      -7.774  13.720  24.342  0.00  0.00    +0.000 C 
ENDBRANCH  28  31
BRANCH  29  33
ATOM     33  O   UNL     1      -7.592  14.271  20.862  0.00  0.00    +0.000 OA
ATOM     34  C   UNL     1      -7.686  15.561  20.272  0.00  0.00    +0.000 C 
ENDBRANCH  29  33
ENDBRANCH  14  25
TORSDOF 6
ENDMDL
MODEL 8
REMARK VINA RESULT:      -7.2      3.408      9.727
REMARK  Name = 
REMARK  10 active torsions:
REMARK  status: ('A' for Active; 'I' for Inactive)
REMARK    1  A    between atoms: C_1  and  O_2
REMARK    2  A    between atoms: O_2  and  C_3
REMARK    3  A    between atoms: C_6  and  C_7
REMARK    4  A    between atoms: C_20  and  C_21
REMARK    5  A    between atoms: C_24  and  O_25
REMARK    6  A    between atoms: O_25  and  C_26
REMARK    7  A    between atoms: C_27  and  O_28
REMARK    8  A    between atoms: O_28  and  C_29
REMARK    9  A    between atoms: C_32  and  O_33
REMARK   10  A    between atoms: O_33  and  C_34
REMARK                            x       y       z     vdW  Elec       q    Type
REMARK                         _______ _______ _______ _____ _____    ______ ____
ROOT
ATOM      1  C   UNL     1       1.526   7.945  18.062  0.00  0.00    +0.000 C 
ATOM      2  C   UNL     1       1.111   8.908  18.916  0.00  0.00    +0.000 C 
ATOM      3  C   UNL     1       1.897   9.261  20.167  0.00  0.00    +0.000 C 
ATOM      4  C   UNL     1       0.972   9.515  21.347  0.00  0.00    +0.000 C 
ATOM      5  C   UNL     1       0.005  10.643  21.024  0.00  0.00    +0.000 C 
ATOM      6  C   UNL     1      -0.622  10.505  19.656  0.00  0.00    +0.000 C 
ATOM      7  C   UNL     1      -0.126   9.688  18.701  0.00  0.00    +0.000 C 
ATOM      8  N   UNL     1      -0.711   9.543  17.460  0.00  0.00    +0.000 NA
ATOM      9  C   UNL     1      -1.787  10.225  17.274  0.00  0.00    +0.000 C 
ATOM     10  S   UNL     1      -2.687  10.148  15.737  0.00  0.00    +0.000 S 
ATOM     11  C   UNL     1      -3.885  11.270  16.353  0.00  0.00    +0.000 C 
ATOM     12  C   UNL     1      -3.596  11.643  17.607  0.00  0.00    +0.000 C 
ATOM     13  N   UNL     1      -2.438  11.086  18.128  0.00  0.00    +0.000 N 
ATOM     14  C   UNL     1      -1.863  11.351  19.432  0.00  0.00    +0.000 C 
ENDROOT
BRANCH   1  18
ATOM     15  C   UNL     1       5.077   5.587  18.541  0.00  0.00    +0.000 A 
ATOM     16  C   UNL     1       4.076   5.595  19.527  0.00  0.00    +0.000 A 
ATOM     17  C   UNL     1       2.914   6.356  19.367  0.00  0.00    +0.000 A 
ATOM     18  C   UNL     1       2.742   7.141  18.227  0.00  0.00    +0.000 A 
ATOM     19  C   UNL     1       3.761   7.175  17.270  0.00  0.00    +0.000 A 
ATOM     20  C   UNL     1       4.943   6.429  17.425  0.00  0.00    +0.000 A 
BRANCH  15  22
ATOM     21  C   UNL     1       7.356   5.433  19.151  0.00  0.00    +0.000 C 
ATOM     22  O   UNL     1       6.183   4.787  18.657  0.00  0.00    +0.000 OA
ENDBRANCH  15  22
BRANCH  20  23
ATOM     23  O   UNL     1       5.818   6.624  16.390  0.00  0.00    +0.000 OA
ATOM     24  C   UNL     1       5.838   5.700  15.313  0.00  0.00    +0.000 C 
ENDBRANCH  20  23
ENDBRANCH   1  18
BRANCH  14  25
ATOM     25  C   UNL     1      -1.571  12.840  19.592  0.00  0.00    +0.000 A 
ATOM     26  C   UNL     1      -0.585  13.468  18.823  0.00  0.00    +0.000 A 
ATOM     27  C   UNL     1      -0.313  14.820  19.008  0.00  0.00    +0.000 A 
ATOM     28  C   UNL     1      -1.010  15.581  19.958  0.00  0.00    +0.000 A 
ATOM     29  C   UNL     1      -2.009  14.967  20.737  0.00  0.00    +0.000 A 
ATOM     30  C   UNL     1      -2.279  13.603  20.538  0.00  0.00    +0.000 A 
BRANCH  28  31
ATOM     31  O   UNL     1      -0.581  16.882  19.979  0.00  0.00    +0.000 OA
ATOM     32  C   UNL     1      -1.169  17.817  19.091  0.00  0.00    +0.000 C 
ENDBRANCH  28  31
BRANCH  29  33
ATOM     33  O   UNL     1      -2.672  15.727  21.664  0.00  0.00    +0.000 OA
ATOM     34  C   UNL     1      -3.852  15.202  22.259  0.00  0.00    +0.000 C 
ENDBRANCH  29  33
ENDBRANCH  14  25
TORSDOF 6
ENDMDL
MODEL 9
REMARK VINA RESULT:      -7.2      3.357      9.547
REMARK  Name = 
REMARK  10 active torsions:
REMARK  status: ('A' for Active; 'I' for Inactive)
REMARK    1  A    between atoms: C_1  and  O_2
REMARK    2  A    between atoms: O_2  and  C_3
REMARK    3  A    between atoms: C_6  and  C_7
REMARK    4  A    between atoms: C_20  and  C_21
REMARK    5  A    between atoms: C_24  and  O_25
REMARK    6  A    between atoms: O_25  and  C_26
REMARK    7  A    between atoms: C_27  and  O_28
REMARK    8  A    between atoms: O_28  and  C_29
REMARK    9  A    between atoms: C_32  and  O_33
REMARK   10  A    between atoms: O_33  and  C_34
REMARK                            x       y       z     vdW  Elec       q    Type
REMARK                         _______ _______ _______ _____ _____    ______ ____
ROOT
ATOM      1  C   UNL     1       1.467   8.031  18.071  0.00  0.00    +0.000 C 
ATOM      2  C   UNL     1       1.039   8.948  18.969  0.00  0.00    +0.000 C 
ATOM      3  C   UNL     1       1.811   9.240  20.244  0.00  0.00    +0.000 C 
ATOM      4  C   UNL     1       0.872   9.431  21.426  0.00  0.00    +0.000 C 
ATOM      5  C   UNL     1      -0.095  10.571  21.150  0.00  0.00    +0.000 C 
ATOM      6  C   UNL     1      -0.707  10.501  19.770  0.00  0.00    +0.000 C 
ATOM      7  C   UNL     1      -0.198   9.734  18.780  0.00  0.00    +0.000 C 
ATOM      8  N   UNL     1      -0.769   9.651  17.527  0.00  0.00    +0.000 NA
ATOM      9  C   UNL     1      -1.845  10.338  17.364  0.00  0.00    +0.000 C 
ATOM     10  S   UNL     1      -2.729  10.337  15.816  0.00  0.00    +0.000 S 
ATOM     11  C   UNL     1      -3.937  11.422  16.475  0.00  0.00    +0.000 C 
ATOM     12  C   UNL     1      -3.663  11.732  17.749  0.00  0.00    +0.000 C 
ATOM     13  N   UNL     1      -2.508  11.153  18.254  0.00  0.00    +0.000 N 
ATOM     14  C   UNL     1      -1.948  11.353  19.575  0.00  0.00    +0.000 C 
ENDROOT
BRANCH   1  18
ATOM     15  C   UNL     1       5.021   5.663  18.470  0.00  0.00    +0.000 A 
ATOM     16  C   UNL     1       4.043   5.675  19.479  0.00  0.00    +0.000 A 
ATOM     17  C   UNL     1       2.880   6.440  19.346  0.00  0.00    +0.000 A 
ATOM     18  C   UNL     1       2.684   7.223  18.209  0.00  0.00    +0.000 A 
ATOM     19  C   UNL     1       3.680   7.253  17.228  0.00  0.00    +0.000 A 
ATOM     20  C   UNL     1       4.863   6.503  17.356  0.00  0.00    +0.000 A 
BRANCH  15  22
ATOM     21  C   UNL     1       7.315   5.503  19.016  0.00  0.00    +0.000 C 
ATOM     22  O   UNL     1       6.126   4.859  18.560  0.00  0.00    +0.000 OA
ENDBRANCH  15  22
BRANCH  20  23
ATOM     23  O   UNL     1       5.714   6.694  16.300  0.00  0.00    +0.000 OA
ATOM     24  C   UNL     1       5.726   5.752  15.238  0.00  0.00    +0.000 C 
ENDBRANCH  20  23
ENDBRANCH   1  18
BRANCH  14  25
ATOM     25  C   UNL     1      -1.663  12.833  19.814  0.00  0.00    +0.000 A 
ATOM     26  C   UNL     1      -2.424  13.576  20.723  0.00  0.00    +0.000 A 
ATOM     27  C   UNL     1      -2.168  14.932  20.902  0.00  0.00    +0.000 A 
ATOM     28  C   UNL     1      -1.154  15.583  20.184  0.00  0.00    +0.000 A 
ATOM     29  C   UNL     1      -0.375  14.851  19.269  0.00  0.00    +0.000 A 
ATOM     30  C   UNL     1      -0.639  13.481  19.100  0.00  0.00    +0.000 A 
BRANCH  28  31
ATOM     31  O   UNL     1      -1.078  16.913  20.508  0.00  0.00    +0.000 OA
ATOM     32  C   UNL     1      -1.557  17.344  21.770  0.00  0.00    +0.000 C 
ENDBRANCH  28  31
BRANCH  29  33
ATOM     33  O   UNL     1       0.604  15.508  18.573  0.00  0.00    +0.000 OA
ATOM     34  C   UNL     1       1.945  15.423  19.037  0.00  0.00    +0.000 C 
ENDBRANCH  29  33
ENDBRANCH  14  25
TORSDOF 6
ENDMDL
