MODEL 1
REMARK VINA RESULT:      -7.7      0.000      0.000
REMARK  Name = 
REMARK  5 active torsions:
REMARK  status: ('A' for Active; 'I' for Inactive)
REMARK    1  A    between atoms: C_1  and  C_2
REMARK    2  A    between atoms: C_11  and  C_12
REMARK    3  A    between atoms: C_18  and  C_19
REMARK    4  A    between atoms: N_22  and  C_23
REMARK    5  A    between atoms: N_26  and  C_27
REMARK                            x       y       z     vdW  Elec       q    Type
REMARK                         _______ _______ _______ _____ _____    ______ ____
ROOT
ATOM      1  C   UNL     1      -0.579  12.719  21.077  0.00  0.00    +0.000 A 
ATOM      2  C   UNL     1       0.281  13.819  21.173  0.00  0.00    +0.000 A 
ATOM      3  C   UNL     1       0.238  14.770  22.194  0.00  0.00    +0.000 A 
ATOM      4  C   UNL     1      -0.845  14.690  23.062  0.00  0.00    +0.000 A 
ATOM      5  C   UNL     1      -1.839  13.730  22.925  0.00  0.00    +0.000 A 
ATOM      6  C   UNL     1      -1.676  12.706  21.959  0.00  0.00    +0.000 A 
ATOM      7  C   UNL     1      -2.811  14.104  23.890  0.00  0.00    +0.000 A 
ATOM      8  N   UNL     1      -2.403  15.116  24.667  0.00  0.00    +0.000 NA
ATOM      9  N   UNL     1      -1.202  15.442  24.153  0.00  0.00    +0.000 N 
ATOM     10  C   UNL     1      -0.409  16.481  24.760  0.00  0.00    +0.000 C 
ENDROOT
BRANCH   1  21
ATOM     11  C   UNL     1      -4.523  12.247  19.409  0.00  0.00    +0.000 C 
ATOM     12  C   UNL     1      -3.559  11.930  18.259  0.00  0.00    +0.000 C 
ATOM     13  C   UNL     1      -3.736  10.479  17.880  0.00  0.00    +0.000 C 
ATOM     14  C   UNL     1      -2.894  10.153  16.687  0.00  0.00    +0.000 C 
ATOM     15  O   UNL     1      -3.394   9.905  15.589  0.00  0.00    +0.000 OA
ATOM     16  N   UNL     1      -1.552  10.023  16.882  0.00  0.00    +0.000 N 
ATOM     17  C   UNL     1      -0.819  10.330  18.046  0.00  0.00    +0.000 A 
ATOM     18  C   UNL     1       0.327   9.563  18.256  0.00  0.00    +0.000 A 
ATOM     19  C   UNL     1       1.115   9.766  19.381  0.00  0.00    +0.000 A 
ATOM     20  C   UNL     1       0.781  10.768  20.288  0.00  0.00    +0.000 A 
ATOM     21  C   UNL     1      -0.327  11.625  20.086  0.00  0.00    +0.000 A 
ATOM     22  C   UNL     1      -1.146  11.407  18.922  0.00  0.00    +0.000 A 
ATOM     23  N   UNL     1      -2.192  12.287  18.633  0.00  0.00    +0.000 N 
ATOM     24  H   UNL     1      -1.077   9.555  16.121  0.00  0.00    +0.000 HD
ATOM     25  H   UNL     1      -2.025  13.257  18.881  0.00  0.00    +0.000 HD
ENDBRANCH   1  21
BRANCH   7  26
ATOM     26  C   UNL     1      -4.119  13.485  24.036  0.00  0.00    +0.000 A 
ATOM     27  C   UNL     1      -4.405  12.271  24.690  0.00  0.00    +0.000 A 
ATOM     28  N   UNL     1      -5.708  11.974  24.662  0.00  0.00    +0.000 NA
ATOM     29  N   UNL     1      -6.242  12.989  23.953  0.00  0.00    +0.000 N 
ATOM     30  C   UNL     1      -7.664  13.042  23.722  0.00  0.00    +0.000 C 
ATOM     31  C   UNL     1      -5.326  13.909  23.536  0.00  0.00    +0.000 A 
ENDBRANCH   7  26
TORSDOF 2
ENDMDL
MODEL 2
REMARK VINA RESULT:      -7.5      2.520      3.628
REMARK  Name = 
REMARK  5 active torsions:
REMARK  status: ('A' for Active; 'I' for Inactive)
REMARK    1  A    between atoms: C_1  and  C_2
REMARK    2  A    between atoms: C_11  and  C_12
REMARK    3  A    between atoms: C_18  and  C_19
REMARK    4  A    between atoms: N_22  and  C_23
REMARK    5  A    between atoms: N_26  and  C_27
REMARK                            x       y       z     vdW  Elec       q    Type
REMARK                         _______ _______ _______ _____ _____    ______ ____
ROOT
ATOM      1  C   UNL     1      -1.680  12.300  22.530  0.00  0.00    +0.000 A 
ATOM      2  C   UNL     1      -1.238  13.369  23.317  0.00  0.00    +0.000 A 
ATOM      3  C   UNL     1      -2.059  14.395  23.789  0.00  0.00    +0.000 A 
ATOM      4  C   UNL     1      -3.356  14.425  23.288  0.00  0.00    +0.000 A 
ATOM      5  C   UNL     1      -3.817  13.496  22.363  0.00  0.00    +0.000 A 
ATOM      6  C   UNL     1      -2.990  12.397  22.024  0.00  0.00    +0.000 A 
ATOM      7  C   UNL     1      -5.102  13.980  22.005  0.00  0.00    +0.000 A 
ATOM      8  N   UNL     1      -5.481  15.031  22.743  0.00  0.00    +0.000 NA
ATOM      9  N   UNL     1      -4.411  15.270  23.523  0.00  0.00    +0.000 N 
ATOM     10  C   UNL     1      -4.448  16.320  24.510  0.00  0.00    +0.000 C 
ENDROOT
BRANCH   1  21
ATOM     11  C   UNL     1      -1.969  12.085  18.237  0.00  0.00    +0.000 C 
ATOM     12  C   UNL     1      -0.550  11.607  18.570  0.00  0.00    +0.000 C 
ATOM     13  C   UNL     1      -0.434  10.156  18.164  0.00  0.00    +0.000 C 
ATOM     14  C   UNL     1       0.968   9.677  18.368  0.00  0.00    +0.000 C 
ATOM     15  O   UNL     1       1.705   9.405  17.418  0.00  0.00    +0.000 OA
ATOM     16  N   UNL     1       1.371   9.436  19.647  0.00  0.00    +0.000 N 
ATOM     17  C   UNL     1       0.684   9.750  20.837  0.00  0.00    +0.000 A 
ATOM     18  C   UNL     1       0.922   8.896  21.914  0.00  0.00    +0.000 A 
ATOM     19  C   UNL     1       0.285   9.099  23.130  0.00  0.00    +0.000 A 
ATOM     20  C   UNL     1      -0.573  10.185  23.289  0.00  0.00    +0.000 A 
ATOM     21  C   UNL     1      -0.793  11.125  22.255  0.00  0.00    +0.000 A 
ATOM     22  C   UNL     1      -0.135  10.908  20.993  0.00  0.00    +0.000 A 
ATOM     23  N   UNL     1      -0.249  11.859  19.976  0.00  0.00    +0.000 N 
ATOM     24  H   UNL     1       2.212   8.879  19.708  0.00  0.00    +0.000 HD
ATOM     25  H   UNL     1      -0.300  12.825  20.288  0.00  0.00    +0.000 HD
ENDBRANCH   1  21
BRANCH   7  26
ATOM     26  C   UNL     1      -5.935  13.426  20.950  0.00  0.00    +0.000 A 
ATOM     27  C   UNL     1      -7.254  13.804  20.634  0.00  0.00    +0.000 A 
ATOM     28  N   UNL     1      -7.749  13.113  19.603  0.00  0.00    +0.000 NA
ATOM     29  N   UNL     1      -6.748  12.267  19.289  0.00  0.00    +0.000 N 
ATOM     30  C   UNL     1      -6.893  11.352  18.185  0.00  0.00    +0.000 C 
ATOM     31  C   UNL     1      -5.647  12.399  20.083  0.00  0.00    +0.000 A 
ENDBRANCH   7  26
TORSDOF 2
ENDMDL
MODEL 3
REMARK VINA RESULT:      -7.4      5.728     10.458
REMARK  Name = 
REMARK  5 active torsions:
REMARK  status: ('A' for Active; 'I' for Inactive)
REMARK    1  A    between atoms: C_1  and  C_2
REMARK    2  A    between atoms: C_11  and  C_12
REMARK    3  A    between atoms: C_18  and  C_19
REMARK    4  A    between atoms: N_22  and  C_23
REMARK    5  A    between atoms: N_26  and  C_27
REMARK                            x       y       z     vdW  Elec       q    Type
REMARK                         _______ _______ _______ _____ _____    ______ ____
ROOT
ATOM      1  C   UNL     1       2.070   7.421  19.535  0.00  0.00    +0.000 A 
ATOM      2  C   UNL     1       1.214   6.727  20.397  0.00  0.00    +0.000 A 
ATOM      3  C   UNL     1       1.454   5.440  20.883  0.00  0.00    +0.000 A 
ATOM      4  C   UNL     1       2.531   4.763  20.323  0.00  0.00    +0.000 A 
ATOM      5  C   UNL     1       3.326   5.321  19.330  0.00  0.00    +0.000 A 
ATOM      6  C   UNL     1       3.126   6.678  18.972  0.00  0.00    +0.000 A 
ATOM      7  C   UNL     1       4.179   4.258  18.937  0.00  0.00    +0.000 A 
ATOM      8  N   UNL     1       4.042   3.174  19.710  0.00  0.00    +0.000 NA
ATOM      9  N   UNL     1       3.047   3.512  20.552  0.00  0.00    +0.000 N 
ATOM     10  C   UNL     1       2.630   2.603  21.589  0.00  0.00    +0.000 C 
ENDROOT
BRANCH   1  21
ATOM     11  C   UNL     1      -0.663   8.472  22.695  0.00  0.00    +0.000 C 
ATOM     12  C   UNL     1       0.173   9.734  22.449  0.00  0.00    +0.000 C 
ATOM     13  C   UNL     1      -0.746  10.816  21.933  0.00  0.00    +0.000 C 
ATOM     14  C   UNL     1       0.007  12.100  21.784  0.00  0.00    +0.000 C 
ATOM     15  O   UNL     1      -0.209  13.067  22.518  0.00  0.00    +0.000 OA
ATOM     16  N   UNL     1       0.861  12.210  20.729  0.00  0.00    +0.000 N 
ATOM     17  C   UNL     1       1.266  11.191  19.843  0.00  0.00    +0.000 A 
ATOM     18  C   UNL     1       1.579  11.607  18.549  0.00  0.00    +0.000 A 
ATOM     19  C   UNL     1       1.972  10.686  17.587  0.00  0.00    +0.000 A 
ATOM     20  C   UNL     1       2.091   9.341  17.925  0.00  0.00    +0.000 A 
ATOM     21  C   UNL     1       1.859   8.874  19.241  0.00  0.00    +0.000 A 
ATOM     22  C   UNL     1       1.444   9.831  20.234  0.00  0.00    +0.000 A 
ATOM     23  N   UNL     1       1.295   9.432  21.565  0.00  0.00    +0.000 N 
ATOM     24  H   UNL     1       1.135  13.162  20.528  0.00  0.00    +0.000 HD
ATOM     25  H   UNL     1       1.948   8.720  21.881  0.00  0.00    +0.000 HD
ENDBRANCH   1  21
BRANCH   7  26
ATOM     26  C   UNL     1       5.104   4.305  17.815  0.00  0.00    +0.000 A 
ATOM     27  C   UNL     1       6.462   4.678  17.860  0.00  0.00    +0.000 A 
ATOM     28  N   UNL     1       7.047   4.610  16.661  0.00  0.00    +0.000 NA
ATOM     29  N   UNL     1       6.043   4.227  15.847  0.00  0.00    +0.000 N 
ATOM     30  C   UNL     1       6.290   4.015  14.443  0.00  0.00    +0.000 C 
ATOM     31  C   UNL     1       4.852   4.054  16.488  0.00  0.00    +0.000 A 
ENDBRANCH   7  26
TORSDOF 2
ENDMDL
MODEL 4
REMARK VINA RESULT:      -7.4      4.842      7.878
REMARK  Name = 
REMARK  5 active torsions:
REMARK  status: ('A' for Active; 'I' for Inactive)
REMARK    1  A    between atoms: C_1  and  C_2
REMARK    2  A    between atoms: C_11  and  C_12
REMARK    3  A    between atoms: C_18  and  C_19
REMARK    4  A    between atoms: N_22  and  C_23
REMARK    5  A    between atoms: N_26  and  C_27
REMARK                            x       y       z     vdW  Elec       q    Type
REMARK                         _______ _______ _______ _____ _____    ______ ____
ROOT
ATOM      1  C   UNL     1       2.181   7.704  19.172  0.00  0.00    +0.000 A 
ATOM      2  C   UNL     1       2.485   7.887  20.526  0.00  0.00    +0.000 A 
ATOM      3  C   UNL     1       1.650   8.524  21.445  0.00  0.00    +0.000 A 
ATOM      4  C   UNL     1       0.530   9.160  20.919  0.00  0.00    +0.000 A 
ATOM      5  C   UNL     1       0.253   9.174  19.558  0.00  0.00    +0.000 A 
ATOM      6  C   UNL     1       1.055   8.396  18.686  0.00  0.00    +0.000 A 
ATOM      7  C   UNL     1      -0.858  10.049  19.444  0.00  0.00    +0.000 A 
ATOM      8  N   UNL     1      -1.334  10.435  20.635  0.00  0.00    +0.000 NA
ATOM      9  N   UNL     1      -0.484   9.869  21.512  0.00  0.00    +0.000 N 
ATOM     10  C   UNL     1      -0.694  10.018  22.930  0.00  0.00    +0.000 C 
ENDROOT
BRANCH   1  21
ATOM     11  C   UNL     1       2.139   4.074  21.492  0.00  0.00    +0.000 C 
ATOM     12  C   UNL     1       2.205   3.617  20.030  0.00  0.00    +0.000 C 
ATOM     13  C   UNL     1       3.522   2.908  19.816  0.00  0.00    +0.000 C 
ATOM     14  C   UNL     1       3.583   2.347  18.431  0.00  0.00    +0.000 C 
ATOM     15  O   UNL     1       3.553   1.133  18.222  0.00  0.00    +0.000 OA
ATOM     16  N   UNL     1       3.793   3.220  17.407  0.00  0.00    +0.000 N 
ATOM     17  C   UNL     1       3.787   4.629  17.465  0.00  0.00    +0.000 A 
ATOM     18  C   UNL     1       4.615   5.272  16.544  0.00  0.00    +0.000 A 
ATOM     19  C   UNL     1       4.702   6.658  16.523  0.00  0.00    +0.000 A 
ATOM     20  C   UNL     1       3.930   7.413  17.403  0.00  0.00    +0.000 A 
ATOM     21  C   UNL     1       3.019   6.816  18.305  0.00  0.00    +0.000 A 
ATOM     22  C   UNL     1       2.936   5.378  18.329  0.00  0.00    +0.000 A 
ATOM     23  N   UNL     1       1.984   4.750  19.136  0.00  0.00    +0.000 N 
ATOM     24  H   UNL     1       4.083   2.773  16.548  0.00  0.00    +0.000 HD
ATOM     25  H   UNL     1       1.104   5.246  19.236  0.00  0.00    +0.000 HD
ENDBRANCH   1  21
BRANCH   7  26
ATOM     26  C   UNL     1      -1.433  10.505  18.189  0.00  0.00    +0.000 A 
ATOM     27  C   UNL     1      -1.635  11.842  17.794  0.00  0.00    +0.000 A 
ATOM     28  N   UNL     1      -2.177  11.935  16.575  0.00  0.00    +0.000 NA
ATOM     29  N   UNL     1      -2.353  10.648  16.215  0.00  0.00    +0.000 N 
ATOM     30  C   UNL     1      -2.905  10.327  14.923  0.00  0.00    +0.000 C 
ATOM     31  C   UNL     1      -1.944   9.753  17.159  0.00  0.00    +0.000 A 
ENDBRANCH   7  26
TORSDOF 2
ENDMDL
MODEL 5
REMARK VINA RESULT:      -7.2      2.583      3.914
REMARK  Name = 
REMARK  5 active torsions:
REMARK  status: ('A' for Active; 'I' for Inactive)
REMARK    1  A    between atoms: C_1  and  C_2
REMARK    2  A    between atoms: C_11  and  C_12
REMARK    3  A    between atoms: C_18  and  C_19
REMARK    4  A    between atoms: N_22  and  C_23
REMARK    5  A    between atoms: N_26  and  C_27
REMARK                            x       y       z     vdW  Elec       q    Type
REMARK                         _______ _______ _______ _____ _____    ______ ____
ROOT
ATOM      1  C   UNL     1      -1.840  12.397  22.400  0.00  0.00    +0.000 A 
ATOM      2  C   UNL     1      -1.559  13.353  23.383  0.00  0.00    +0.000 A 
ATOM      3  C   UNL     1      -2.443  14.356  23.786  0.00  0.00    +0.000 A 
ATOM      4  C   UNL     1      -3.600  14.497  23.028  0.00  0.00    +0.000 A 
ATOM      5  C   UNL     1      -3.867  13.698  21.924  0.00  0.00    +0.000 A 
ATOM      6  C   UNL     1      -3.008  12.607  21.641  0.00  0.00    +0.000 A 
ATOM      7  C   UNL     1      -5.035  14.274  21.359  0.00  0.00    +0.000 A 
ATOM      8  N   UNL     1      -5.545  15.252  22.118  0.00  0.00    +0.000 NA
ATOM      9  N   UNL     1      -4.664  15.356  23.131  0.00  0.00    +0.000 N 
ATOM     10  C   UNL     1      -4.895  16.292  24.203  0.00  0.00    +0.000 C 
ENDROOT
BRANCH   1  21
ATOM     11  C   UNL     1      -1.990  12.069  18.107  0.00  0.00    +0.000 C 
ATOM     12  C   UNL     1      -0.580  11.610  18.497  0.00  0.00    +0.000 C 
ATOM     13  C   UNL     1      -0.442  10.150  18.133  0.00  0.00    +0.000 C 
ATOM     14  C   UNL     1       0.957   9.687  18.395  0.00  0.00    +0.000 C 
ATOM     15  O   UNL     1       1.725   9.396  17.476  0.00  0.00    +0.000 OA
ATOM     16  N   UNL     1       1.320   9.482  19.691  0.00  0.00    +0.000 N 
ATOM     17  C   UNL     1       0.593   9.822  20.850  0.00  0.00    +0.000 A 
ATOM     18  C   UNL     1       0.803   8.998  21.956  0.00  0.00    +0.000 A 
ATOM     19  C   UNL     1       0.125   9.228  23.146  0.00  0.00    +0.000 A 
ATOM     20  C   UNL     1      -0.744  10.311  23.249  0.00  0.00    +0.000 A 
ATOM     21  C   UNL     1      -0.937  11.223  22.184  0.00  0.00    +0.000 A 
ATOM     22  C   UNL     1      -0.238  10.977  20.949  0.00  0.00    +0.000 A 
ATOM     23  N   UNL     1      -0.326  11.901  19.905  0.00  0.00    +0.000 N 
ATOM     24  H   UNL     1       2.162   8.933  19.794  0.00  0.00    +0.000 HD
ATOM     25  H   UNL     1      -0.393  12.874  20.190  0.00  0.00    +0.000 HD
ENDBRANCH   1  21
BRANCH   7  26
ATOM     26  C   UNL     1      -5.630  13.877  20.093  0.00  0.00    +0.000 A 
ATOM     27  C   UNL     1      -5.532  12.614  19.477  0.00  0.00    +0.000 A 
ATOM     28  N   UNL     1      -6.199  12.560  18.320  0.00  0.00    +0.000 NA
ATOM     29  N   UNL     1      -6.690  13.808  18.187  0.00  0.00    +0.000 N 
ATOM     30  C   UNL     1      -7.507  14.147  17.049  0.00  0.00    +0.000 C 
ATOM     31  C   UNL     1      -6.357  14.642  19.213  0.00  0.00    +0.000 A 
ENDBRANCH   7  26
TORSDOF 2
ENDMDL
MODEL 6
REMARK VINA RESULT:      -7.2      4.648      8.959
REMARK  Name = 
REMARK  5 active torsions:
REMARK  status: ('A' for Active; 'I' for Inactive)
REMARK    1  A    between atoms: C_1  and  C_2
REMARK    2  A    between atoms: C_11  and  C_12
REMARK    3  A    between atoms: C_18  and  C_19
REMARK    4  A    between atoms: N_22  and  C_23
REMARK    5  A    between atoms: N_26  and  C_27
REMARK                            x       y       z     vdW  Elec       q    Type
REMARK                         _______ _______ _______ _____ _____    ______ ____
ROOT
ATOM      1  C   UNL     1       1.272   8.958  18.284  0.00  0.00    +0.000 A 
ATOM      2  C   UNL     1       2.447   9.522  17.771  0.00  0.00    +0.000 A 
ATOM      3  C   UNL     1       3.545   8.787  17.320  0.00  0.00    +0.000 A 
ATOM      4  C   UNL     1       3.512   7.419  17.567  0.00  0.00    +0.000 A 
ATOM      5  C   UNL     1       2.456   6.809  18.232  0.00  0.00    +0.000 A 
ATOM      6  C   UNL     1       1.306   7.575  18.544  0.00  0.00    +0.000 A 
ATOM      7  C   UNL     1       2.895   5.471  18.414  0.00  0.00    +0.000 A 
ATOM      8  N   UNL     1       4.054   5.219  17.792  0.00  0.00    +0.000 NA
ATOM      9  N   UNL     1       4.398   6.413  17.274  0.00  0.00    +0.000 N 
ATOM     10  C   UNL     1       5.590   6.544  16.475  0.00  0.00    +0.000 C 
ENDROOT
BRANCH   1  21
ATOM     11  C   UNL     1       1.273   9.082  22.590  0.00  0.00    +0.000 C 
ATOM     12  C   UNL     1       0.691  10.430  22.149  0.00  0.00    +0.000 C 
ATOM     13  C   UNL     1      -0.744  10.500  22.616  0.00  0.00    +0.000 C 
ATOM     14  C   UNL     1      -1.320  11.845  22.303  0.00  0.00    +0.000 C 
ATOM     15  O   UNL     1      -1.595  12.655  23.191  0.00  0.00    +0.000 OA
ATOM     16  N   UNL     1      -1.644  12.105  21.006  0.00  0.00    +0.000 N 
ATOM     17  C   UNL     1      -1.342  11.323  19.873  0.00  0.00    +0.000 A 
ATOM     18  C   UNL     1      -2.258  11.404  18.824  0.00  0.00    +0.000 A 
ATOM     19  C   UNL     1      -2.071  10.662  17.665  0.00  0.00    +0.000 A 
ATOM     20  C   UNL     1      -0.941   9.859  17.532  0.00  0.00    +0.000 A 
ATOM     21  C   UNL     1       0.058   9.798  18.533  0.00  0.00    +0.000 A 
ATOM     22  C   UNL     1      -0.143  10.563  19.736  0.00  0.00    +0.000 A 
ATOM     23  N   UNL     1       0.859  10.606  20.708  0.00  0.00    +0.000 N 
ATOM     24  H   UNL     1      -2.257  12.902  20.894  0.00  0.00    +0.000 HD
ATOM     25  H   UNL     1       1.810  10.581  20.353  0.00  0.00    +0.000 HD
ENDBRANCH   1  21
BRANCH   7  26
ATOM     26  C   UNL     1       2.193   4.464  19.194  0.00  0.00    +0.000 A 
ATOM     27  C   UNL     1       1.190   3.591  18.731  0.00  0.00    +0.000 A 
ATOM     28  N   UNL     1       0.745   2.773  19.691  0.00  0.00    +0.000 NA
ATOM     29  N   UNL     1       1.447   3.159  20.775  0.00  0.00    +0.000 N 
ATOM     30  C   UNL     1       1.263   2.482  22.035  0.00  0.00    +0.000 C 
ATOM     31  C   UNL     1       2.311   4.185  20.535  0.00  0.00    +0.000 A 
ENDBRANCH   7  26
TORSDOF 2
ENDMDL
MODEL 7
REMARK VINA RESULT:      -7.2      2.598      6.790
REMARK  Name = 
REMARK  5 active torsions:
REMARK  status: ('A' for Active; 'I' for Inactive)
REMARK    1  A    between atoms: C_1  and  C_2
REMARK    2  A    between atoms: C_11  and  C_12
REMARK    3  A    between atoms: C_18  and  C_19
REMARK    4  A    between atoms: N_22  and  C_23
REMARK    5  A    between atoms: N_26  and  C_27
REMARK                            x       y       z     vdW  Elec       q    Type
REMARK                         _______ _______ _______ _____ _____    ______ ____
ROOT
ATOM      1  C   UNL     1      -1.415  12.224  21.973  0.00  0.00    +0.000 A 
ATOM      2  C   UNL     1      -0.404  11.350  22.388  0.00  0.00    +0.000 A 
ATOM      3  C   UNL     1       0.324  10.521  21.533  0.00  0.00    +0.000 A 
ATOM      4  C   UNL     1      -0.120  10.453  20.217  0.00  0.00    +0.000 A 
ATOM      5  C   UNL     1      -1.229  11.159  19.769  0.00  0.00    +0.000 A 
ATOM      6  C   UNL     1      -1.847  12.091  20.640  0.00  0.00    +0.000 A 
ATOM      7  C   UNL     1      -1.424  10.685  18.446  0.00  0.00    +0.000 A 
ATOM      8  N   UNL     1      -0.444   9.868  18.041  0.00  0.00    +0.000 NA
ATOM      9  N   UNL     1       0.342   9.757  19.129  0.00  0.00    +0.000 N 
ATOM     10  C   UNL     1       1.554   8.979  19.075  0.00  0.00    +0.000 C 
ENDROOT
BRANCH   1  21
ATOM     11  C   UNL     1      -5.463  12.437  20.513  0.00  0.00    +0.000 C 
ATOM     12  C   UNL     1      -5.565  12.688  22.022  0.00  0.00    +0.000 C 
ATOM     13  C   UNL     1      -6.066  14.097  22.233  0.00  0.00    +0.000 C 
ATOM     14  C   UNL     1      -6.287  14.350  23.692  0.00  0.00    +0.000 C 
ATOM     15  O   UNL     1      -7.419  14.492  24.160  0.00  0.00    +0.000 OA
ATOM     16  N   UNL     1      -5.187  14.537  24.471  0.00  0.00    +0.000 N 
ATOM     17  C   UNL     1      -3.837  14.349  24.111  0.00  0.00    +0.000 A 
ATOM     18  C   UNL     1      -2.918  15.166  24.771  0.00  0.00    +0.000 A 
ATOM     19  C   UNL     1      -1.563  15.079  24.481  0.00  0.00    +0.000 A 
ATOM     20  C   UNL     1      -1.112  14.145  23.553  0.00  0.00    +0.000 A 
ATOM     21  C   UNL     1      -1.991  13.240  22.911  0.00  0.00    +0.000 A 
ATOM     22  C   UNL     1      -3.396  13.337  23.207  0.00  0.00    +0.000 A 
ATOM     23  N   UNL     1      -4.287  12.405  22.669  0.00  0.00    +0.000 N 
ATOM     24  H   UNL     1      -5.394  14.955  25.369  0.00  0.00    +0.000 HD
ATOM     25  H   UNL     1      -3.920  11.464  22.565  0.00  0.00    +0.000 HD
ENDBRANCH   1  21
BRANCH   7  26
ATOM     26  C   UNL     1      -2.560  11.020  17.601  0.00  0.00    +0.000 A 
ATOM     27  C   UNL     1      -2.676  10.785  16.217  0.00  0.00    +0.000 A 
ATOM     28  N   UNL     1      -3.848  11.201  15.728  0.00  0.00    +0.000 NA
ATOM     29  N   UNL     1      -4.460  11.737  16.803  0.00  0.00    +0.000 N 
ATOM     30  C   UNL     1      -5.788  12.283  16.682  0.00  0.00    +0.000 C 
ATOM     31  C   UNL     1      -3.719  11.674  17.946  0.00  0.00    +0.000 A 
ENDBRANCH   7  26
TORSDOF 2
ENDMDL
MODEL 8
REMARK VINA RESULT:      -7.1      5.023      8.020
REMARK  Name = 
REMARK  5 active torsions:
REMARK  status: ('A' for Active; 'I' for Inactive)
REMARK    1  A    between atoms: C_1  and  C_2
REMARK    2  A    between atoms: C_11  and  C_12
REMARK    3  A    between atoms: C_18  and  C_19
REMARK    4  A    between atoms: N_22  and  C_23
REMARK    5  A    between atoms: N_26  and  C_27
REMARK                            x       y       z     vdW  Elec       q    Type
REMARK                         _______ _______ _______ _____ _____    ______ ____
ROOT
ATOM      1  C   UNL     1       2.207   7.672  19.509  0.00  0.00    +0.000 A 
ATOM      2  C   UNL     1       1.800   7.158  20.746  0.00  0.00    +0.000 A 
ATOM      3  C   UNL     1       0.908   7.794  21.611  0.00  0.00    +0.000 A 
ATOM      4  C   UNL     1       0.551   9.096  21.278  0.00  0.00    +0.000 A 
ATOM      5  C   UNL     1       1.054   9.740  20.155  0.00  0.00    +0.000 A 
ATOM      6  C   UNL     1       1.845   9.005  19.238  0.00  0.00    +0.000 A 
ATOM      7  C   UNL     1       0.576  11.071  20.282  0.00  0.00    +0.000 A 
ATOM      8  N   UNL     1      -0.273  11.218  21.307  0.00  0.00    +0.000 NA
ATOM      9  N   UNL     1      -0.282  10.002  21.884  0.00  0.00    +0.000 N 
ATOM     10  C   UNL     1      -1.131   9.741  23.019  0.00  0.00    +0.000 C 
ENDROOT
BRANCH   1  21
ATOM     11  C   UNL     1       2.208   3.890  21.575  0.00  0.00    +0.000 C 
ATOM     12  C   UNL     1       2.193   3.535  20.083  0.00  0.00    +0.000 C 
ATOM     13  C   UNL     1       3.483   2.822  19.755  0.00  0.00    +0.000 C 
ATOM     14  C   UNL     1       3.464   2.357  18.332  0.00  0.00    +0.000 C 
ATOM     15  O   UNL     1       3.399   1.161  18.043  0.00  0.00    +0.000 OA
ATOM     16  N   UNL     1       3.640   3.295  17.362  0.00  0.00    +0.000 N 
ATOM     17  C   UNL     1       3.665   4.696  17.516  0.00  0.00    +0.000 A 
ATOM     18  C   UNL     1       4.458   5.389  16.601  0.00  0.00    +0.000 A 
ATOM     19  C   UNL     1       4.572   6.771  16.670  0.00  0.00    +0.000 A 
ATOM     20  C   UNL     1       3.860   7.476  17.637  0.00  0.00    +0.000 A 
ATOM     21  C   UNL     1       2.983   6.832  18.542  0.00  0.00    +0.000 A 
ATOM     22  C   UNL     1       2.873   5.398  18.472  0.00  0.00    +0.000 A 
ATOM     23  N   UNL     1       1.950   4.731  19.281  0.00  0.00    +0.000 N 
ATOM     24  H   UNL     1       3.878   2.904  16.460  0.00  0.00    +0.000 HD
ATOM     25  H   UNL     1       1.086   5.233  19.459  0.00  0.00    +0.000 HD
ENDBRANCH   1  21
BRANCH   7  26
ATOM     26  C   UNL     1       0.956  12.177  19.418  0.00  0.00    +0.000 A 
ATOM     27  C   UNL     1       0.104  12.916  18.575  0.00  0.00    +0.000 A 
ATOM     28  N   UNL     1       0.753  13.878  17.912  0.00  0.00    +0.000 NA
ATOM     29  N   UNL     1       2.031  13.721  18.312  0.00  0.00    +0.000 N 
ATOM     30  C   UNL     1       3.057  14.609  17.825  0.00  0.00    +0.000 C 
ATOM     31  C   UNL     1       2.208  12.699  19.197  0.00  0.00    +0.000 A 
ENDBRANCH   7  26
TORSDOF 2
ENDMDL
MODEL 9
REMARK VINA RESULT:      -7.1      2.671      6.911
REMARK  Name = 
REMARK  5 active torsions:
REMARK  status: ('A' for Active; 'I' for Inactive)
REMARK    1  A    between atoms: C_1  and  C_2
REMARK    2  A    between atoms: C_11  and  C_12
REMARK    3  A    between atoms: C_18  and  C_19
REMARK    4  A    between atoms: N_22  and  C_23
REMARK    5  A    between atoms: N_26  and  C_27
REMARK                            x       y       z     vdW  Elec       q    Type
REMARK                         _______ _______ _______ _____ _____    ______ ____
ROOT
ATOM      1  C   UNL     1      -1.735  12.050  22.459  0.00  0.00    +0.000 A 
ATOM      2  C   UNL     1      -1.058  11.120  23.257  0.00  0.00    +0.000 A 
ATOM      3  C   UNL     1      -0.197  10.136  22.766  0.00  0.00    +0.000 A 
ATOM      4  C   UNL     1      -0.163   9.983  21.385  0.00  0.00    +0.000 A 
ATOM      5  C   UNL     1      -0.943  10.752  20.532  0.00  0.00    +0.000 A 
ATOM      6  C   UNL     1      -1.693  11.827  21.069  0.00  0.00    +0.000 A 
ATOM      7  C   UNL     1      -0.731  10.170  19.255  0.00  0.00    +0.000 A 
ATOM      8  N   UNL     1       0.210   9.217  19.273  0.00  0.00    +0.000 NA
ATOM      9  N   UNL     1       0.549   9.135  20.574  0.00  0.00    +0.000 N 
ATOM     10  C   UNL     1       1.588   8.232  21.001  0.00  0.00    +0.000 C 
ENDROOT
BRANCH   1  21
ATOM     11  C   UNL     1      -5.214  12.233  19.925  0.00  0.00    +0.000 C 
ATOM     12  C   UNL     1      -5.696  12.696  21.305  0.00  0.00    +0.000 C 
ATOM     13  C   UNL     1      -6.121  14.142  21.196  0.00  0.00    +0.000 C 
ATOM     14  C   UNL     1      -6.703  14.605  22.494  0.00  0.00    +0.000 C 
ATOM     15  O   UNL     1      -7.903  14.859  22.612  0.00  0.00    +0.000 OA
ATOM     16  N   UNL     1      -5.840  14.851  23.518  0.00  0.00    +0.000 N 
ATOM     17  C   UNL     1      -4.463  14.555  23.570  0.00  0.00    +0.000 A 
ATOM     18  C   UNL     1      -3.691  15.415  24.353  0.00  0.00    +0.000 A 
ATOM     19  C   UNL     1      -2.320  15.230  24.461  0.00  0.00    +0.000 A 
ATOM     20  C   UNL     1      -1.713  14.156  23.814  0.00  0.00    +0.000 A 
ATOM     21  C   UNL     1      -2.457  13.210  23.070  0.00  0.00    +0.000 A 
ATOM     22  C   UNL     1      -3.878  13.409  22.954  0.00  0.00    +0.000 A 
ATOM     23  N   UNL     1      -4.664  12.451  22.309  0.00  0.00    +0.000 N 
ATOM     24  H   UNL     1      -6.245  15.398  24.266  0.00  0.00    +0.000 HD
ATOM     25  H   UNL     1      -4.360  11.489  22.426  0.00  0.00    +0.000 HD
ENDBRANCH   1  21
BRANCH   7  26
ATOM     26  C   UNL     1      -1.447  10.535  18.044  0.00  0.00    +0.000 A 
ATOM     27  C   UNL     1      -1.965  11.805  17.724  0.00  0.00    +0.000 A 
ATOM     28  N   UNL     1      -2.565  11.823  16.530  0.00  0.00    +0.000 NA
ATOM     29  N   UNL     1      -2.458  10.547  16.110  0.00  0.00    +0.000 N 
ATOM     30  C   UNL     1      -2.977  10.163  14.821  0.00  0.00    +0.000 C 
ATOM     31  C   UNL     1      -1.817   9.730  16.993  0.00  0.00    +0.000 A 
ENDBRANCH   7  26
TORSDOF 2
ENDMDL
