MODEL 1
REMARK VINA RESULT:      -6.0      0.000      0.000
REMARK  Name = 
REMARK  4 active torsions:
REMARK  status: ('A' for Active; 'I' for Inactive)
REMARK    1  A    between atoms: C_1  and  C_2
REMARK    2  A    between atoms: C_4  and  C_5
REMARK    3  A    between atoms: N_9  and  C_10
REMARK    4  A    between atoms: C_10  and  O_11
REMARK                            x       y       z     vdW  Elec       q    Type
REMARK                         _______ _______ _______ _____ _____    ______ ____
ROOT
ATOM      1  C   UNL     1       6.178   5.106  15.496  0.00  0.00    +0.000 C 
ATOM      2  C   UNL     1       5.188   5.106  16.623  0.00  0.00    +0.000 A 
ATOM      3  C   UNL     1       4.398   6.233  16.885  0.00  0.00    +0.000 A 
ATOM      4  C   UNL     1       3.490   6.223  17.958  0.00  0.00    +0.000 A 
ATOM      5  C   UNL     1       2.630   7.417  18.237  0.00  0.00    +0.000 C 
ATOM      6  C   UNL     1       3.434   5.060  18.720  0.00  0.00    +0.000 A 
ATOM      7  C   UNL     1       2.605   4.760  19.909  0.00  0.00    +0.000 A 
ATOM      8  O   UNL     1       1.806   5.554  20.378  0.00  0.00    +0.000 OA
ATOM      9  N   UNL     1       2.870   3.483  20.377  0.00  0.00    +0.000 N 
ATOM     10  S   UNL     1       3.996   2.590  19.449  0.00  0.00    +0.000 S 
ATOM     11  C   UNL     1       4.239   3.987  18.378  0.00  0.00    +0.000 A 
ATOM     12  N   UNL     1       5.113   3.969  17.357  0.00  0.00    +0.000 NA
ENDROOT
BRANCH   9  13
ATOM     13  C   UNL     1       2.171   2.876  21.478  0.00  0.00    +0.000 C 
BRANCH  13  14
ATOM     14  O   UNL     1       0.784   2.883  21.189  0.00  0.00    +0.000 OA
ATOM     15  H   UNL     1       0.595   3.801  20.939  0.00  0.00    +0.000 HD
ENDBRANCH  13  14
ENDBRANCH   9  13
TORSDOF 2
ENDMDL
MODEL 2
REMARK VINA RESULT:      -5.9      2.377      2.932
REMARK  Name = 
REMARK  4 active torsions:
REMARK  status: ('A' for Active; 'I' for Inactive)
REMARK    1  A    between atoms: C_1  and  C_2
REMARK    2  A    between atoms: C_4  and  C_5
REMARK    3  A    between atoms: N_9  and  C_10
REMARK    4  A    between atoms: C_10  and  O_11
REMARK                            x       y       z     vdW  Elec       q    Type
REMARK                         _______ _______ _______ _____ _____    ______ ____
ROOT
ATOM      1  C   UNL     1       7.988   5.899  19.170  0.00  0.00    +0.000 C 
ATOM      2  C   UNL     1       6.717   5.277  18.676  0.00  0.00    +0.000 A 
ATOM      3  C   UNL     1       6.526   5.016  17.312  0.00  0.00    +0.000 A 
ATOM      4  C   UNL     1       5.320   4.452  16.864  0.00  0.00    +0.000 A 
ATOM      5  C   UNL     1       5.114   4.155  15.411  0.00  0.00    +0.000 C 
ATOM      6  C   UNL     1       4.356   4.184  17.832  0.00  0.00    +0.000 A 
ATOM      7  C   UNL     1       2.998   3.619  17.668  0.00  0.00    +0.000 A 
ATOM      8  O   UNL     1       2.544   3.285  16.585  0.00  0.00    +0.000 OA
ATOM      9  N   UNL     1       2.356   3.530  18.893  0.00  0.00    +0.000 N 
ATOM     10  S   UNL     1       3.295   4.014  20.239  0.00  0.00    +0.000 S 
ATOM     11  C   UNL     1       4.636   4.458  19.160  0.00  0.00    +0.000 A 
ATOM     12  N   UNL     1       5.781   4.994  19.615  0.00  0.00    +0.000 NA
ENDROOT
BRANCH   9  13
ATOM     13  C   UNL     1       1.051   2.955  19.069  0.00  0.00    +0.000 C 
BRANCH  13  14
ATOM     14  O   UNL     1       1.075   1.626  18.583  0.00  0.00    +0.000 OA
ATOM     15  H   UNL     1       1.920   1.558  18.111  0.00  0.00    +0.000 HD
ENDBRANCH  13  14
ENDBRANCH   9  13
TORSDOF 2
ENDMDL
MODEL 3
REMARK VINA RESULT:      -5.8      2.396      4.643
REMARK  Name = 
REMARK  4 active torsions:
REMARK  status: ('A' for Active; 'I' for Inactive)
REMARK    1  A    between atoms: C_1  and  C_2
REMARK    2  A    between atoms: C_4  and  C_5
REMARK    3  A    between atoms: N_9  and  C_10
REMARK    4  A    between atoms: C_10  and  O_11
REMARK                            x       y       z     vdW  Elec       q    Type
REMARK                         _______ _______ _______ _____ _____    ______ ____
ROOT
ATOM      1  C   UNL     1       1.266   2.805  21.225  0.00  0.00    +0.000 C 
ATOM      2  C   UNL     1       1.958   3.809  20.352  0.00  0.00    +0.000 A 
ATOM      3  C   UNL     1       1.707   5.180  20.495  0.00  0.00    +0.000 A 
ATOM      4  C   UNL     1       2.349   6.105  19.654  0.00  0.00    +0.000 A 
ATOM      5  C   UNL     1       2.099   7.574  19.810  0.00  0.00    +0.000 C 
ATOM      6  C   UNL     1       3.216   5.586  18.698  0.00  0.00    +0.000 A 
ATOM      7  C   UNL     1       4.009   6.298  17.670  0.00  0.00    +0.000 A 
ATOM      8  O   UNL     1       4.002   7.512  17.549  0.00  0.00    +0.000 OA
ATOM      9  N   UNL     1       4.734   5.397  16.905  0.00  0.00    +0.000 N 
ATOM     10  S   UNL     1       4.584   3.760  17.378  0.00  0.00    +0.000 S 
ATOM     11  C   UNL     1       3.418   4.218  18.639  0.00  0.00    +0.000 A 
ATOM     12  N   UNL     1       2.820   3.312  19.431  0.00  0.00    +0.000 NA
ENDROOT
BRANCH   9  13
ATOM     13  C   UNL     1       5.654   5.789  15.872  0.00  0.00    +0.000 C 
BRANCH  13  14
ATOM     14  O   UNL     1       5.083   6.858  15.141  0.00  0.00    +0.000 OA
ATOM     15  H   UNL     1       5.193   6.600  14.212  0.00  0.00    +0.000 HD
ENDBRANCH  13  14
ENDBRANCH   9  13
TORSDOF 2
ENDMDL
MODEL 4
REMARK VINA RESULT:      -5.8      1.921      1.989
REMARK  Name = 
REMARK  4 active torsions:
REMARK  status: ('A' for Active; 'I' for Inactive)
REMARK    1  A    between atoms: C_1  and  C_2
REMARK    2  A    between atoms: C_4  and  C_5
REMARK    3  A    between atoms: N_9  and  C_10
REMARK    4  A    between atoms: C_10  and  O_11
REMARK                            x       y       z     vdW  Elec       q    Type
REMARK                         _______ _______ _______ _____ _____    ______ ____
ROOT
ATOM      1  C   UNL     1       8.025   5.782  19.032  0.00  0.00    +0.000 C 
ATOM      2  C   UNL     1       6.574   5.491  18.791  0.00  0.00    +0.000 A 
ATOM      3  C   UNL     1       5.750   6.424  18.147  0.00  0.00    +0.000 A 
ATOM      4  C   UNL     1       4.388   6.143  17.948  0.00  0.00    +0.000 A 
ATOM      5  C   UNL     1       3.504   7.128  17.247  0.00  0.00    +0.000 C 
ATOM      6  C   UNL     1       3.925   4.920  18.424  0.00  0.00    +0.000 A 
ATOM      7  C   UNL     1       2.556   4.358  18.382  0.00  0.00    +0.000 A 
ATOM      8  O   UNL     1       1.613   4.944  17.875  0.00  0.00    +0.000 OA
ATOM      9  N   UNL     1       2.523   3.110  18.985  0.00  0.00    +0.000 N 
ATOM     10  S   UNL     1       4.036   2.533  19.537  0.00  0.00    +0.000 S 
ATOM     11  C   UNL     1       4.813   4.050  19.033  0.00  0.00    +0.000 A 
ATOM     12  N   UNL     1       6.120   4.292  19.233  0.00  0.00    +0.000 NA
ENDROOT
BRANCH   9  13
ATOM     13  C   UNL     1       1.350   2.282  19.039  0.00  0.00    +0.000 C 
BRANCH  13  14
ATOM     14  O   UNL     1       0.372   2.936  19.827  0.00  0.00    +0.000 OA
ATOM     15  H   UNL     1       0.841   3.176  20.642  0.00  0.00    +0.000 HD
ENDBRANCH  13  14
ENDBRANCH   9  13
TORSDOF 2
ENDMDL
MODEL 5
REMARK VINA RESULT:      -5.7      2.996      4.670
REMARK  Name = 
REMARK  4 active torsions:
REMARK  status: ('A' for Active; 'I' for Inactive)
REMARK    1  A    between atoms: C_1  and  C_2
REMARK    2  A    between atoms: C_4  and  C_5
REMARK    3  A    between atoms: N_9  and  C_10
REMARK    4  A    between atoms: C_10  and  O_11
REMARK                            x       y       z     vdW  Elec       q    Type
REMARK                         _______ _______ _______ _____ _____    ______ ____
ROOT
ATOM      1  C   UNL     1       1.441   9.052  18.159  0.00  0.00    +0.000 C 
ATOM      2  C   UNL     1       2.375   7.886  18.287  0.00  0.00    +0.000 A 
ATOM      3  C   UNL     1       2.187   6.921  19.285  0.00  0.00    +0.000 A 
ATOM      4  C   UNL     1       3.084   5.845  19.403  0.00  0.00    +0.000 A 
ATOM      5  C   UNL     1       2.882   4.800  20.456  0.00  0.00    +0.000 C 
ATOM      6  C   UNL     1       4.140   5.809  18.498  0.00  0.00    +0.000 A 
ATOM      7  C   UNL     1       5.243   4.827  18.387  0.00  0.00    +0.000 A 
ATOM      8  O   UNL     1       5.348   3.860  19.124  0.00  0.00    +0.000 OA
ATOM      9  N   UNL     1       6.098   5.171  17.351  0.00  0.00    +0.000 N 
ATOM     10  S   UNL     1       5.632   6.552  16.456  0.00  0.00    +0.000 S 
ATOM     11  C   UNL     1       4.239   6.796  17.533  0.00  0.00    +0.000 A 
ATOM     12  N   UNL     1       3.395   7.832  17.396  0.00  0.00    +0.000 NA
ENDROOT
BRANCH   9  13
ATOM     13  C   UNL     1       7.224   4.373  16.950  0.00  0.00    +0.000 C 
BRANCH  13  14
ATOM     14  O   UNL     1       8.070   4.192  18.071  0.00  0.00    +0.000 OA
ATOM     15  H   UNL     1       8.924   3.935  17.689  0.00  0.00    +0.000 HD
ENDBRANCH  13  14
ENDBRANCH   9  13
TORSDOF 2
ENDMDL
MODEL 6
REMARK VINA RESULT:      -5.7      2.911      4.823
REMARK  Name = 
REMARK  4 active torsions:
REMARK  status: ('A' for Active; 'I' for Inactive)
REMARK    1  A    between atoms: C_1  and  C_2
REMARK    2  A    between atoms: C_4  and  C_5
REMARK    3  A    between atoms: N_9  and  C_10
REMARK    4  A    between atoms: C_10  and  O_11
REMARK                            x       y       z     vdW  Elec       q    Type
REMARK                         _______ _______ _______ _____ _____    ______ ____
ROOT
ATOM      1  C   UNL     1       1.436   3.795  20.351  0.00  0.00    +0.000 C 
ATOM      2  C   UNL     1       2.328   4.449  19.338  0.00  0.00    +0.000 A 
ATOM      3  C   UNL     1       2.240   5.825  19.086  0.00  0.00    +0.000 A 
ATOM      4  C   UNL     1       3.069   6.418  18.119  0.00  0.00    +0.000 A 
ATOM      5  C   UNL     1       2.994   7.890  17.853  0.00  0.00    +0.000 C 
ATOM      6  C   UNL     1       3.949   5.575  17.446  0.00  0.00    +0.000 A 
ATOM      7  C   UNL     1       4.918   5.898  16.374  0.00  0.00    +0.000 A 
ATOM      8  O   UNL     1       5.075   7.028  15.940  0.00  0.00    +0.000 OA
ATOM      9  N   UNL     1       5.590   4.757  15.966  0.00  0.00    +0.000 N 
ATOM     10  S   UNL     1       5.191   3.334  16.828  0.00  0.00    +0.000 S 
ATOM     11  C   UNL     1       3.980   4.231  17.771  0.00  0.00    +0.000 A 
ATOM     12  N   UNL     1       3.202   3.638  18.693  0.00  0.00    +0.000 NA
ENDROOT
BRANCH   9  13
ATOM     13  C   UNL     1       6.645   4.760  14.989  0.00  0.00    +0.000 C 
BRANCH  13  14
ATOM     14  O   UNL     1       7.606   5.729  15.366  0.00  0.00    +0.000 OA
ATOM     15  H   UNL     1       8.032   5.351  16.153  0.00  0.00    +0.000 HD
ENDBRANCH  13  14
ENDBRANCH   9  13
TORSDOF 2
ENDMDL
MODEL 7
REMARK VINA RESULT:      -5.6      1.979      2.865
REMARK  Name = 
REMARK  4 active torsions:
REMARK  status: ('A' for Active; 'I' for Inactive)
REMARK    1  A    between atoms: C_1  and  C_2
REMARK    2  A    between atoms: C_4  and  C_5
REMARK    3  A    between atoms: N_9  and  C_10
REMARK    4  A    between atoms: C_10  and  O_11
REMARK                            x       y       z     vdW  Elec       q    Type
REMARK                         _______ _______ _______ _____ _____    ______ ____
ROOT
ATOM      1  C   UNL     1       6.356   3.896  13.446  0.00  0.00    +0.000 C 
ATOM      2  C   UNL     1       6.061   4.222  14.879  0.00  0.00    +0.000 A 
ATOM      3  C   UNL     1       6.951   4.992  15.639  0.00  0.00    +0.000 A 
ATOM      4  C   UNL     1       6.669   5.271  16.987  0.00  0.00    +0.000 A 
ATOM      5  C   UNL     1       7.607   6.106  17.803  0.00  0.00    +0.000 C 
ATOM      6  C   UNL     1       5.488   4.744  17.501  0.00  0.00    +0.000 A 
ATOM      7  C   UNL     1       4.937   4.847  18.872  0.00  0.00    +0.000 A 
ATOM      8  O   UNL     1       5.493   5.465  19.766  0.00  0.00    +0.000 OA
ATOM      9  N   UNL     1       3.738   4.158  18.967  0.00  0.00    +0.000 N 
ATOM     10  S   UNL     1       3.189   3.455  17.507  0.00  0.00    +0.000 S 
ATOM     11  C   UNL     1       4.658   4.008  16.673  0.00  0.00    +0.000 A 
ATOM     12  N   UNL     1       4.902   3.729  15.382  0.00  0.00    +0.000 NA
ENDROOT
BRANCH   9  13
ATOM     13  C   UNL     1       2.926   4.132  20.153  0.00  0.00    +0.000 C 
BRANCH  13  14
ATOM     14  O   UNL     1       2.710   5.465  20.580  0.00  0.00    +0.000 OA
ATOM     15  H   UNL     1       3.166   5.519  21.436  0.00  0.00    +0.000 HD
ENDBRANCH  13  14
ENDBRANCH   9  13
TORSDOF 2
ENDMDL
MODEL 8
REMARK VINA RESULT:      -5.6      2.365      3.655
REMARK  Name = 
REMARK  4 active torsions:
REMARK  status: ('A' for Active; 'I' for Inactive)
REMARK    1  A    between atoms: C_1  and  C_2
REMARK    2  A    between atoms: C_4  and  C_5
REMARK    3  A    between atoms: N_9  and  C_10
REMARK    4  A    between atoms: C_10  and  O_11
REMARK                            x       y       z     vdW  Elec       q    Type
REMARK                         _______ _______ _______ _____ _____    ______ ____
ROOT
ATOM      1  C   UNL     1       1.289   9.275  19.370  0.00  0.00    +0.000 C 
ATOM      2  C   UNL     1       2.057   8.016  19.097  0.00  0.00    +0.000 A 
ATOM      3  C   UNL     1       2.946   7.936  18.017  0.00  0.00    +0.000 A 
ATOM      4  C   UNL     1       3.642   6.742  17.763  0.00  0.00    +0.000 A 
ATOM      5  C   UNL     1       4.606   6.653  16.621  0.00  0.00    +0.000 C 
ATOM      6  C   UNL     1       3.392   5.677  18.624  0.00  0.00    +0.000 A 
ATOM      7  C   UNL     1       3.949   4.306  18.600  0.00  0.00    +0.000 A 
ATOM      8  O   UNL     1       4.761   3.933  17.769  0.00  0.00    +0.000 OA
ATOM      9  N   UNL     1       3.421   3.549  19.634  0.00  0.00    +0.000 N 
ATOM     10  S   UNL     1       2.355   4.389  20.676  0.00  0.00    +0.000 S 
ATOM     11  C   UNL     1       2.510   5.850  19.676  0.00  0.00    +0.000 A 
ATOM     12  N   UNL     1       1.834   6.981  19.943  0.00  0.00    +0.000 NA
ENDROOT
BRANCH   9  13
ATOM     13  C   UNL     1       3.821   2.197  19.917  0.00  0.00    +0.000 C 
BRANCH  13  14
ATOM     14  O   UNL     1       5.235   2.148  19.976  0.00  0.00    +0.000 OA
ATOM     15  H   UNL     1       5.519   2.311  19.063  0.00  0.00    +0.000 HD
ENDBRANCH  13  14
ENDBRANCH   9  13
TORSDOF 2
ENDMDL
MODEL 9
REMARK VINA RESULT:      -5.5      1.122      1.122
REMARK  Name = 
REMARK  4 active torsions:
REMARK  status: ('A' for Active; 'I' for Inactive)
REMARK    1  A    between atoms: C_1  and  C_2
REMARK    2  A    between atoms: C_4  and  C_5
REMARK    3  A    between atoms: N_9  and  C_10
REMARK    4  A    between atoms: C_10  and  O_11
REMARK                            x       y       z     vdW  Elec       q    Type
REMARK                         _______ _______ _______ _____ _____    ______ ____
ROOT
ATOM      1  C   UNL     1       6.848   5.342  15.525  0.00  0.00    +0.000 C 
ATOM      2  C   UNL     1       5.617   5.208  16.371  0.00  0.00    +0.000 A 
ATOM      3  C   UNL     1       4.943   6.342  16.843  0.00  0.00    +0.000 A 
ATOM      4  C   UNL     1       3.802   6.198  17.651  0.00  0.00    +0.000 A 
ATOM      5  C   UNL     1       3.066   7.404  18.148  0.00  0.00    +0.000 C 
ATOM      6  C   UNL     1       3.404   4.898  17.946  0.00  0.00    +0.000 A 
ATOM      7  C   UNL     1       2.271   4.433  18.778  0.00  0.00    +0.000 A 
ATOM      8  O   UNL     1       1.492   5.197  19.326  0.00  0.00    +0.000 OA
ATOM      9  N   UNL     1       2.239   3.048  18.827  0.00  0.00    +0.000 N 
ATOM     10  S   UNL     1       3.433   2.263  17.886  0.00  0.00    +0.000 S 
ATOM     11  C   UNL     1       4.120   3.835  17.422  0.00  0.00    +0.000 A 
ATOM     12  N   UNL     1       5.211   3.944  16.646  0.00  0.00    +0.000 NA
ENDROOT
BRANCH   9  13
ATOM     13  C   UNL     1       1.213   2.297  19.498  0.00  0.00    +0.000 C 
BRANCH  13  14
ATOM     14  O   UNL     1       1.016   2.855  20.785  0.00  0.00    +0.000 OA
ATOM     15  H   UNL     1       1.856   2.699  21.246  0.00  0.00    +0.000 HD
ENDBRANCH  13  14
ENDBRANCH   9  13
TORSDOF 2
ENDMDL
