MODEL 1
REMARK VINA RESULT:      -7.1      0.000      0.000
REMARK  Name = 
REMARK  14 active torsions:
REMARK  status: ('A' for Active; 'I' for Inactive)
REMARK    1  A    between atoms: C_1  and  C_2
REMARK    2  A    between atoms: C_2  and  C_3
REMARK    3  A    between atoms: C_3  and  C_4
REMARK    4  A    between atoms: C_4  and  C_5
REMARK    5  A    between atoms: C_8  and  N_9
REMARK    6  A    between atoms: C_10  and  C_12
REMARK    7  A    between atoms: C_12  and  N_13
REMARK    8  A    between atoms: C_17  and  C_18
REMARK    9  A    between atoms: C_17  and  C_19
REMARK   10  A    between atoms: C_19  and  C_20
REMARK   11  A    between atoms: C_23  and  O_24
REMARK   12  A    between atoms: O_24  and  C_25
REMARK   13  A    between atoms: C_26  and  O_27
REMARK   14  A    between atoms: O_27  and  C_28
REMARK                            x       y       z     vdW  Elec       q    Type
REMARK                         _______ _______ _______ _____ _____    ______ ____
ROOT
ATOM      1  N   UNL     1       2.850   3.320  18.235  0.00  0.00    +0.000 N 
ATOM      2  C   UNL     1       1.648   3.890  17.968  0.00  0.00    +0.000 C 
ATOM      3  O   UNL     1       1.102   3.963  16.882  0.00  0.00    +0.000 OA
ATOM      4  N   UNL     1       1.124   4.357  19.145  0.00  0.00    +0.000 N 
ATOM      5  C   UNL     1       1.901   3.952  20.300  0.00  0.00    +0.000 C 
ATOM      6  C   UNL     1       1.083   3.006  21.173  0.00  0.00    +0.000 C 
ATOM      7  C   UNL     1       3.033   3.194  19.579  0.00  0.00    +0.000 C 
ATOM      8  O   UNL     1       3.924   2.574  20.139  0.00  0.00    +0.000 OA
ATOM      9  H   UNL     1       0.192   4.758  19.181  0.00  0.00    +0.000 HD
ENDROOT
BRANCH   1  10
ATOM     10  C   UNL     1       3.738   2.812  17.213  0.00  0.00    +0.000 C 
BRANCH  10  12
ATOM     11  N   UNL     1       5.012   4.723  18.074  0.00  0.00    +0.000 N 
ATOM     12  C   UNL     1       4.874   3.819  17.027  0.00  0.00    +0.000 C 
ATOM     13  O   UNL     1       5.590   3.777  16.028  0.00  0.00    +0.000 OA
ATOM     14  H   UNL     1       4.259   4.785  18.748  0.00  0.00    +0.000 HD
BRANCH  11  18
ATOM     15  C   UNL     1       7.807   7.894  17.911  0.00  0.00    +0.000 A 
ATOM     16  C   UNL     1       6.547   7.995  17.305  0.00  0.00    +0.000 A 
ATOM     17  C   UNL     1       5.608   6.964  17.423  0.00  0.00    +0.000 A 
ATOM     18  C   UNL     1       5.949   5.778  18.078  0.00  0.00    +0.000 A 
ATOM     19  C   UNL     1       7.199   5.673  18.692  0.00  0.00    +0.000 A 
ATOM     20  C   UNL     1       8.115   6.728  18.622  0.00  0.00    +0.000 A 
BRANCH  15  21
ATOM     21  C   UNL     1       8.832   8.998  17.773  0.00  0.00    +0.000 C 
BRANCH  21  22
ATOM     22  C   UNL     1       8.376  10.311  18.416  0.00  0.00    +0.000 C 
BRANCH  22  24
ATOM     23  C   UNL     1       9.109  12.609  17.712  0.00  0.00    +0.000 C 
ATOM     24  C   UNL     1       9.504  11.343  18.457  0.00  0.00    +0.000 C 
ENDBRANCH  22  24
ENDBRANCH  21  22
ENDBRANCH  15  21
ENDBRANCH  11  18
ENDBRANCH  10  12
ENDBRANCH   1  10
BRANCH   5  25
ATOM     25  C   UNL     1       2.543   5.130  21.065  0.00  0.00    +0.000 C 
BRANCH  25  26
ATOM     26  C   UNL     1       2.074   6.490  20.603  0.00  0.00    +0.000 A 
ATOM     27  C   UNL     1       2.533   7.030  19.404  0.00  0.00    +0.000 A 
ATOM     28  C   UNL     1       2.025   8.247  18.954  0.00  0.00    +0.000 A 
ATOM     29  C   UNL     1       1.044   8.943  19.678  0.00  0.00    +0.000 A 
ATOM     30  C   UNL     1       0.590   8.419  20.902  0.00  0.00    +0.000 A 
ATOM     31  C   UNL     1       1.130   7.205  21.357  0.00  0.00    +0.000 A 
BRANCH  29  32
ATOM     32  O   UNL     1       0.655  10.091  19.039  0.00  0.00    +0.000 OA
ATOM     33  C   UNL     1      -0.358  10.014  18.047  0.00  0.00    +0.000 C 
ENDBRANCH  29  32
BRANCH  30  34
ATOM     34  O   UNL     1      -0.365   9.109  21.600  0.00  0.00    +0.000 OA
ATOM     35  C   UNL     1       0.060  10.010  22.617  0.00  0.00    +0.000 C 
ENDBRANCH  30  34
ENDBRANCH  25  26
ENDBRANCH   5  25
TORSDOF 10
ENDMDL
MODEL 2
REMARK VINA RESULT:      -6.9      2.237      6.545
REMARK  Name = 
REMARK  14 active torsions:
REMARK  status: ('A' for Active; 'I' for Inactive)
REMARK    1  A    between atoms: C_1  and  C_2
REMARK    2  A    between atoms: C_2  and  C_3
REMARK    3  A    between atoms: C_3  and  C_4
REMARK    4  A    between atoms: C_4  and  C_5
REMARK    5  A    between atoms: C_8  and  N_9
REMARK    6  A    between atoms: C_10  and  C_12
REMARK    7  A    between atoms: C_12  and  N_13
REMARK    8  A    between atoms: C_17  and  C_18
REMARK    9  A    between atoms: C_17  and  C_19
REMARK   10  A    between atoms: C_19  and  C_20
REMARK   11  A    between atoms: C_23  and  O_24
REMARK   12  A    between atoms: O_24  and  C_25
REMARK   13  A    between atoms: C_26  and  O_27
REMARK   14  A    between atoms: O_27  and  C_28
REMARK                            x       y       z     vdW  Elec       q    Type
REMARK                         _______ _______ _______ _____ _____    ______ ____
ROOT
ATOM      1  N   UNL     1       3.174   3.381  20.005  0.00  0.00    +0.000 N 
ATOM      2  C   UNL     1       4.522   3.238  20.003  0.00  0.00    +0.000 C 
ATOM      3  O   UNL     1       5.276   3.426  20.942  0.00  0.00    +0.000 OA
ATOM      4  N   UNL     1       4.908   2.817  18.758  0.00  0.00    +0.000 N 
ATOM      5  C   UNL     1       3.781   2.488  17.908  0.00  0.00    +0.000 C 
ATOM      6  C   UNL     1       3.780   0.994  17.599  0.00  0.00    +0.000 C 
ATOM      7  C   UNL     1       2.634   2.850  18.872  0.00  0.00    +0.000 C 
ATOM      8  O   UNL     1       1.447   2.666  18.645  0.00  0.00    +0.000 OA
ATOM      9  H   UNL     1       5.875   2.580  18.561  0.00  0.00    +0.000 HD
ENDROOT
BRANCH   1  10
ATOM     10  C   UNL     1       2.427   3.912  21.124  0.00  0.00    +0.000 C 
BRANCH  10  12
ATOM     11  N   UNL     1       2.528   6.224  20.313  0.00  0.00    +0.000 N 
ATOM     12  C   UNL     1       1.692   5.167  20.652  0.00  0.00    +0.000 C 
ATOM     13  O   UNL     1       0.465   5.183  20.577  0.00  0.00    +0.000 OA
ATOM     14  H   UNL     1       3.501   6.166  20.590  0.00  0.00    +0.000 HD
BRANCH  11  18
ATOM     15  C   UNL     1       0.972   9.996  19.200  0.00  0.00    +0.000 A 
ATOM     16  C   UNL     1       0.874   9.522  20.515  0.00  0.00    +0.000 A 
ATOM     17  C   UNL     1       1.451   8.301  20.883  0.00  0.00    +0.000 A 
ATOM     18  C   UNL     1       2.061   7.496  19.919  0.00  0.00    +0.000 A 
ATOM     19  C   UNL     1       2.171   7.966  18.608  0.00  0.00    +0.000 A 
ATOM     20  C   UNL     1       1.645   9.212  18.254  0.00  0.00    +0.000 A 
BRANCH  15  21
ATOM     21  C   UNL     1       0.336  11.307  18.791  0.00  0.00    +0.000 C 
BRANCH  21  22
ATOM     22  C   UNL     1       0.495  12.398  19.855  0.00  0.00    +0.000 C 
BRANCH  22  24
ATOM     23  C   UNL     1       2.075  13.363  18.156  0.00  0.00    +0.000 C 
ATOM     24  C   UNL     1       1.768  13.216  19.639  0.00  0.00    +0.000 C 
ENDBRANCH  22  24
ENDBRANCH  21  22
ENDBRANCH  15  21
ENDBRANCH  11  18
ENDBRANCH  10  12
ENDBRANCH   1  10
BRANCH   5  25
ATOM     25  C   UNL     1       3.649   3.396  16.666  0.00  0.00    +0.000 C 
BRANCH  25  26
ATOM     26  C   UNL     1       4.721   4.456  16.564  0.00  0.00    +0.000 A 
ATOM     27  C   UNL     1       4.711   5.560  17.415  0.00  0.00    +0.000 A 
ATOM     28  C   UNL     1       5.752   6.483  17.363  0.00  0.00    +0.000 A 
ATOM     29  C   UNL     1       6.829   6.322  16.476  0.00  0.00    +0.000 A 
ATOM     30  C   UNL     1       6.839   5.224  15.597  0.00  0.00    +0.000 A 
ATOM     31  C   UNL     1       5.769   4.316  15.642  0.00  0.00    +0.000 A 
BRANCH  29  32
ATOM     32  O   UNL     1       7.762   7.316  16.619  0.00  0.00    +0.000 OA
ATOM     33  C   UNL     1       7.795   8.058  17.828  0.00  0.00    +0.000 C 
ENDBRANCH  29  32
BRANCH  30  34
ATOM     34  O   UNL     1       7.894   5.080  14.735  0.00  0.00    +0.000 OA
ATOM     35  C   UNL     1       7.633   5.106  13.337  0.00  0.00    +0.000 C 
ENDBRANCH  30  34
ENDBRANCH  25  26
ENDBRANCH   5  25
TORSDOF 10
ENDMDL
MODEL 3
REMARK VINA RESULT:      -6.9      0.707      1.183
REMARK  Name = 
REMARK  14 active torsions:
REMARK  status: ('A' for Active; 'I' for Inactive)
REMARK    1  A    between atoms: C_1  and  C_2
REMARK    2  A    between atoms: C_2  and  C_3
REMARK    3  A    between atoms: C_3  and  C_4
REMARK    4  A    between atoms: C_4  and  C_5
REMARK    5  A    between atoms: C_8  and  N_9
REMARK    6  A    between atoms: C_10  and  C_12
REMARK    7  A    between atoms: C_12  and  N_13
REMARK    8  A    between atoms: C_17  and  C_18
REMARK    9  A    between atoms: C_17  and  C_19
REMARK   10  A    between atoms: C_19  and  C_20
REMARK   11  A    between atoms: C_23  and  O_24
REMARK   12  A    between atoms: O_24  and  C_25
REMARK   13  A    between atoms: C_26  and  O_27
REMARK   14  A    between atoms: O_27  and  C_28
REMARK                            x       y       z     vdW  Elec       q    Type
REMARK                         _______ _______ _______ _____ _____    ______ ____
ROOT
ATOM      1  N   UNL     1       3.144   3.134  18.438  0.00  0.00    +0.000 N 
ATOM      2  C   UNL     1       2.015   3.702  17.947  0.00  0.00    +0.000 C 
ATOM      3  O   UNL     1       1.645   3.704  16.787  0.00  0.00    +0.000 OA
ATOM      4  N   UNL     1       1.329   4.265  18.992  0.00  0.00    +0.000 N 
ATOM      5  C   UNL     1       1.907   3.935  20.279  0.00  0.00    +0.000 C 
ATOM      6  C   UNL     1       0.937   3.071  21.079  0.00  0.00    +0.000 C 
ATOM      7  C   UNL     1       3.115   3.106  19.800  0.00  0.00    +0.000 C 
ATOM      8  O   UNL     1       3.891   2.514  20.535  0.00  0.00    +0.000 OA
ATOM      9  H   UNL     1       0.414   4.684  18.853  0.00  0.00    +0.000 HD
ENDROOT
BRANCH   1  10
ATOM     10  C   UNL     1       4.165   2.536  17.606  0.00  0.00    +0.000 C 
BRANCH  10  12
ATOM     11  N   UNL     1       5.443   4.547  18.186  0.00  0.00    +0.000 N 
ATOM     12  C   UNL     1       5.137   3.636  17.181  0.00  0.00    +0.000 C 
ATOM     13  O   UNL     1       5.600   3.659  16.042  0.00  0.00    +0.000 OA
ATOM     14  H   UNL     1       4.866   4.544  19.019  0.00  0.00    +0.000 HD
BRANCH  11  18
ATOM     15  C   UNL     1       7.906   7.962  17.785  0.00  0.00    +0.000 A 
ATOM     16  C   UNL     1       8.263   6.895  18.621  0.00  0.00    +0.000 A 
ATOM     17  C   UNL     1       7.470   5.744  18.693  0.00  0.00    +0.000 A 
ATOM     18  C   UNL     1       6.263   5.679  17.994  0.00  0.00    +0.000 A 
ATOM     19  C   UNL     1       5.905   6.734  17.152  0.00  0.00    +0.000 A 
ATOM     20  C   UNL     1       6.728   7.860  17.036  0.00  0.00    +0.000 A 
BRANCH  15  21
ATOM     21  C   UNL     1       8.749   9.217  17.714  0.00  0.00    +0.000 C 
BRANCH  21  22
ATOM     22  C   UNL     1       8.271  10.305  18.681  0.00  0.00    +0.000 C 
BRANCH  22  24
ATOM     23  C   UNL     1       9.533  11.127  20.692  0.00  0.00    +0.000 C 
ATOM     24  C   UNL     1       9.429  11.171  19.175  0.00  0.00    +0.000 C 
ENDBRANCH  22  24
ENDBRANCH  21  22
ENDBRANCH  15  21
ENDBRANCH  11  18
ENDBRANCH  10  12
ENDBRANCH   1  10
BRANCH   5  25
ATOM     25  C   UNL     1       2.457   5.155  21.049  0.00  0.00    +0.000 C 
BRANCH  25  26
ATOM     26  C   UNL     1       2.228   6.475  20.350  0.00  0.00    +0.000 A 
ATOM     27  C   UNL     1       2.804   6.731  19.108  0.00  0.00    +0.000 A 
ATOM     28  C   UNL     1       2.514   7.919  18.441  0.00  0.00    +0.000 A 
ATOM     29  C   UNL     1       1.637   8.869  18.989  0.00  0.00    +0.000 A 
ATOM     30  C   UNL     1       1.066   8.633  20.252  0.00  0.00    +0.000 A 
ATOM     31  C   UNL     1       1.389   7.443  20.925  0.00  0.00    +0.000 A 
BRANCH  29  32
ATOM     32  O   UNL     1       1.457   9.940  18.153  0.00  0.00    +0.000 OA
ATOM     33  C   UNL     1       0.854  11.118  18.665  0.00  0.00    +0.000 C 
ENDBRANCH  29  32
BRANCH  30  34
ATOM     34  O   UNL     1       0.214   9.569  20.776  0.00  0.00    +0.000 OA
ATOM     35  C   UNL     1       0.041   9.610  22.187  0.00  0.00    +0.000 C 
ENDBRANCH  30  34
ENDBRANCH  25  26
ENDBRANCH   5  25
TORSDOF 10
ENDMDL
MODEL 4
REMARK VINA RESULT:      -6.8      3.550      6.569
REMARK  Name = 
REMARK  14 active torsions:
REMARK  status: ('A' for Active; 'I' for Inactive)
REMARK    1  A    between atoms: C_1  and  C_2
REMARK    2  A    between atoms: C_2  and  C_3
REMARK    3  A    between atoms: C_3  and  C_4
REMARK    4  A    between atoms: C_4  and  C_5
REMARK    5  A    between atoms: C_8  and  N_9
REMARK    6  A    between atoms: C_10  and  C_12
REMARK    7  A    between atoms: C_12  and  N_13
REMARK    8  A    between atoms: C_17  and  C_18
REMARK    9  A    between atoms: C_17  and  C_19
REMARK   10  A    between atoms: C_19  and  C_20
REMARK   11  A    between atoms: C_23  and  O_24
REMARK   12  A    between atoms: O_24  and  C_25
REMARK   13  A    between atoms: C_26  and  O_27
REMARK   14  A    between atoms: O_27  and  C_28
REMARK                            x       y       z     vdW  Elec       q    Type
REMARK                         _______ _______ _______ _____ _____    ______ ____
ROOT
ATOM      1  N   UNL     1       1.522   8.732  19.329  0.00  0.00    +0.000 N 
ATOM      2  C   UNL     1       1.765   9.333  18.138  0.00  0.00    +0.000 C 
ATOM      3  O   UNL     1       2.567   8.979  17.292  0.00  0.00    +0.000 OA
ATOM      4  N   UNL     1       0.928  10.413  18.024  0.00  0.00    +0.000 N 
ATOM      5  C   UNL     1      -0.051  10.472  19.091  0.00  0.00    +0.000 C 
ATOM      6  C   UNL     1      -1.452  10.266  18.524  0.00  0.00    +0.000 C 
ATOM      7  C   UNL     1       0.398   9.243  19.905  0.00  0.00    +0.000 C 
ATOM      8  O   UNL     1      -0.182   8.806  20.887  0.00  0.00    +0.000 OA
ATOM      9  H   UNL     1       0.896  10.964  17.172  0.00  0.00    +0.000 HD
ENDROOT
BRANCH   1  10
ATOM     10  C   UNL     1       2.295   7.617  19.833  0.00  0.00    +0.000 C 
BRANCH  10  12
ATOM     11  N   UNL     1       3.987   6.650  18.344  0.00  0.00    +0.000 N 
ATOM     12  C   UNL     1       2.633   6.702  18.656  0.00  0.00    +0.000 C 
ATOM     13  O   UNL     1       1.750   6.069  18.081  0.00  0.00    +0.000 OA
ATOM     14  H   UNL     1       4.595   7.348  18.756  0.00  0.00    +0.000 HD
BRANCH  11  18
ATOM     15  C   UNL     1       5.673   4.397  15.186  0.00  0.00    +0.000 A 
ATOM     16  C   UNL     1       5.207   3.784  16.356  0.00  0.00    +0.000 A 
ATOM     17  C   UNL     1       4.592   4.535  17.365  0.00  0.00    +0.000 A 
ATOM     18  C   UNL     1       4.512   5.924  17.253  0.00  0.00    +0.000 A 
ATOM     19  C   UNL     1       4.965   6.542  16.086  0.00  0.00    +0.000 A 
ATOM     20  C   UNL     1       5.527   5.783  15.054  0.00  0.00    +0.000 A 
BRANCH  15  21
ATOM     21  C   UNL     1       6.354   3.594  14.099  0.00  0.00    +0.000 C 
BRANCH  21  22
ATOM     22  C   UNL     1       5.907   4.006  12.693  0.00  0.00    +0.000 C 
BRANCH  22  24
ATOM     23  C   UNL     1       4.053   3.221  11.189  0.00  0.00    +0.000 C 
ATOM     24  C   UNL     1       5.330   2.823  11.914  0.00  0.00    +0.000 C 
ENDBRANCH  22  24
ENDBRANCH  21  22
ENDBRANCH  15  21
ENDBRANCH  11  18
ENDBRANCH  10  12
ENDBRANCH   1  10
BRANCH   5  25
ATOM     25  C   UNL     1       0.092  11.711  20.002  0.00  0.00    +0.000 C 
BRANCH  25  26
ATOM     26  C   UNL     1      -1.115  11.974  20.873  0.00  0.00    +0.000 A 
ATOM     27  C   UNL     1      -1.074  11.714  22.241  0.00  0.00    +0.000 A 
ATOM     28  C   UNL     1      -2.167  12.041  23.041  0.00  0.00    +0.000 A 
ATOM     29  C   UNL     1      -3.314  12.644  22.500  0.00  0.00    +0.000 A 
ATOM     30  C   UNL     1      -3.376  12.891  21.117  0.00  0.00    +0.000 A 
ATOM     31  C   UNL     1      -2.278  12.531  20.319  0.00  0.00    +0.000 A 
BRANCH  29  32
ATOM     32  O   UNL     1      -4.248  12.920  23.464  0.00  0.00    +0.000 OA
ATOM     33  C   UNL     1      -3.858  13.673  24.603  0.00  0.00    +0.000 C 
ENDBRANCH  29  32
BRANCH  30  34
ATOM     34  O   UNL     1      -4.502  13.477  20.602  0.00  0.00    +0.000 OA
ATOM     35  C   UNL     1      -5.258  12.756  19.636  0.00  0.00    +0.000 C 
ENDBRANCH  30  34
ENDBRANCH  25  26
ENDBRANCH   5  25
TORSDOF 10
ENDMDL
MODEL 5
REMARK VINA RESULT:      -6.8      2.151      6.832
REMARK  Name = 
REMARK  14 active torsions:
REMARK  status: ('A' for Active; 'I' for Inactive)
REMARK    1  A    between atoms: C_1  and  C_2
REMARK    2  A    between atoms: C_2  and  C_3
REMARK    3  A    between atoms: C_3  and  C_4
REMARK    4  A    between atoms: C_4  and  C_5
REMARK    5  A    between atoms: C_8  and  N_9
REMARK    6  A    between atoms: C_10  and  C_12
REMARK    7  A    between atoms: C_12  and  N_13
REMARK    8  A    between atoms: C_17  and  C_18
REMARK    9  A    between atoms: C_17  and  C_19
REMARK   10  A    between atoms: C_19  and  C_20
REMARK   11  A    between atoms: C_23  and  O_24
REMARK   12  A    between atoms: O_24  and  C_25
REMARK   13  A    between atoms: C_26  and  O_27
REMARK   14  A    between atoms: O_27  and  C_28
REMARK                            x       y       z     vdW  Elec       q    Type
REMARK                         _______ _______ _______ _____ _____    ______ ____
ROOT
ATOM      1  N   UNL     1       3.175   3.325  20.039  0.00  0.00    +0.000 N 
ATOM      2  C   UNL     1       4.526   3.208  20.027  0.00  0.00    +0.000 C 
ATOM      3  O   UNL     1       5.281   3.376  20.968  0.00  0.00    +0.000 OA
ATOM      4  N   UNL     1       4.913   2.838  18.765  0.00  0.00    +0.000 N 
ATOM      5  C   UNL     1       3.788   2.519  17.909  0.00  0.00    +0.000 C 
ATOM      6  C   UNL     1       3.813   1.037  17.547  0.00  0.00    +0.000 C 
ATOM      7  C   UNL     1       2.639   2.825  18.890  0.00  0.00    +0.000 C 
ATOM      8  O   UNL     1       1.455   2.627  18.663  0.00  0.00    +0.000 OA
ATOM      9  H   UNL     1       5.884   2.626  18.556  0.00  0.00    +0.000 HD
ENDROOT
BRANCH   1  10
ATOM     10  C   UNL     1       2.424   3.801  21.180  0.00  0.00    +0.000 C 
BRANCH  10  12
ATOM     11  N   UNL     1       2.404   6.177  20.571  0.00  0.00    +0.000 N 
ATOM     12  C   UNL     1       1.631   5.034  20.746  0.00  0.00    +0.000 C 
ATOM     13  O   UNL     1       0.418   4.965  20.559  0.00  0.00    +0.000 OA
ATOM     14  H   UNL     1       3.351   6.169  20.931  0.00  0.00    +0.000 HD
BRANCH  11  18
ATOM     15  C   UNL     1       0.959  10.011  19.521  0.00  0.00    +0.000 A 
ATOM     16  C   UNL     1       1.647   9.210  18.600  0.00  0.00    +0.000 A 
ATOM     17  C   UNL     1       2.062   7.917  18.941  0.00  0.00    +0.000 A 
ATOM     18  C   UNL     1       1.869   7.440  20.240  0.00  0.00    +0.000 A 
ATOM     19  C   UNL     1       1.175   8.229  21.160  0.00  0.00    +0.000 A 
ATOM     20  C   UNL     1       0.711   9.498  20.799  0.00  0.00    +0.000 A 
BRANCH  15  21
ATOM     21  C   UNL     1       0.523  11.416  19.163  0.00  0.00    +0.000 C 
BRANCH  21  22
ATOM     22  C   UNL     1      -0.560  11.955  20.104  0.00  0.00    +0.000 C 
BRANCH  22  24
ATOM     23  C   UNL     1      -0.766  12.863  22.438  0.00  0.00    +0.000 C 
ATOM     24  C   UNL     1       0.019  12.924  21.135  0.00  0.00    +0.000 C 
ENDBRANCH  22  24
ENDBRANCH  21  22
ENDBRANCH  15  21
ENDBRANCH  11  18
ENDBRANCH  10  12
ENDBRANCH   1  10
BRANCH   5  25
ATOM     25  C   UNL     1       3.632   3.468  16.701  0.00  0.00    +0.000 C 
BRANCH  25  26
ATOM     26  C   UNL     1       4.719   4.513  16.598  0.00  0.00    +0.000 A 
ATOM     27  C   UNL     1       4.740   5.603  17.464  0.00  0.00    +0.000 A 
ATOM     28  C   UNL     1       5.795   6.511  17.410  0.00  0.00    +0.000 A 
ATOM     29  C   UNL     1       6.855   6.346  16.503  0.00  0.00    +0.000 A 
ATOM     30  C   UNL     1       6.834   5.262  15.608  0.00  0.00    +0.000 A 
ATOM     31  C   UNL     1       5.750   4.370  15.656  0.00  0.00    +0.000 A 
BRANCH  29  32
ATOM     32  O   UNL     1       7.806   7.323  16.646  0.00  0.00    +0.000 OA
ATOM     33  C   UNL     1       7.699   8.232  17.730  0.00  0.00    +0.000 C 
ENDBRANCH  29  32
BRANCH  30  34
ATOM     34  O   UNL     1       7.872   5.114  14.727  0.00  0.00    +0.000 OA
ATOM     35  C   UNL     1       7.573   5.014  13.340  0.00  0.00    +0.000 C 
ENDBRANCH  30  34
ENDBRANCH  25  26
ENDBRANCH   5  25
TORSDOF 10
ENDMDL
MODEL 6
REMARK VINA RESULT:      -6.7      0.799      1.766
REMARK  Name = 
REMARK  14 active torsions:
REMARK  status: ('A' for Active; 'I' for Inactive)
REMARK    1  A    between atoms: C_1  and  C_2
REMARK    2  A    between atoms: C_2  and  C_3
REMARK    3  A    between atoms: C_3  and  C_4
REMARK    4  A    between atoms: C_4  and  C_5
REMARK    5  A    between atoms: C_8  and  N_9
REMARK    6  A    between atoms: C_10  and  C_12
REMARK    7  A    between atoms: C_12  and  N_13
REMARK    8  A    between atoms: C_17  and  C_18
REMARK    9  A    between atoms: C_17  and  C_19
REMARK   10  A    between atoms: C_19  and  C_20
REMARK   11  A    between atoms: C_23  and  O_24
REMARK   12  A    between atoms: O_24  and  C_25
REMARK   13  A    between atoms: C_26  and  O_27
REMARK   14  A    between atoms: O_27  and  C_28
REMARK                            x       y       z     vdW  Elec       q    Type
REMARK                         _______ _______ _______ _____ _____    ______ ____
ROOT
ATOM      1  N   UNL     1       3.008   3.633  18.125  0.00  0.00    +0.000 N 
ATOM      2  C   UNL     1       1.762   4.102  17.867  0.00  0.00    +0.000 C 
ATOM      3  O   UNL     1       1.169   4.047  16.805  0.00  0.00    +0.000 OA
ATOM      4  N   UNL     1       1.257   4.637  19.023  0.00  0.00    +0.000 N 
ATOM      5  C   UNL     1       2.105   4.383  20.170  0.00  0.00    +0.000 C 
ATOM      6  C   UNL     1       1.386   3.468  21.157  0.00  0.00    +0.000 C 
ATOM      7  C   UNL     1       3.254   3.636  19.466  0.00  0.00    +0.000 C 
ATOM      8  O   UNL     1       4.206   3.123  20.035  0.00  0.00    +0.000 OA
ATOM      9  H   UNL     1       0.303   4.982  19.068  0.00  0.00    +0.000 HD
ENDROOT
BRANCH   1  10
ATOM     10  C   UNL     1       3.886   3.092  17.110  0.00  0.00    +0.000 C 
BRANCH  10  12
ATOM     11  N   UNL     1       5.158   5.017  17.943  0.00  0.00    +0.000 N 
ATOM     12  C   UNL     1       5.075   4.041  16.956  0.00  0.00    +0.000 C 
ATOM     13  O   UNL     1       5.874   3.899  16.032  0.00  0.00    +0.000 OA
ATOM     14  H   UNL     1       4.351   5.158  18.539  0.00  0.00    +0.000 HD
BRANCH  11  18
ATOM     15  C   UNL     1       8.075   8.073  18.157  0.00  0.00    +0.000 A 
ATOM     16  C   UNL     1       8.209   6.880  18.879  0.00  0.00    +0.000 A 
ATOM     17  C   UNL     1       7.269   5.851  18.748  0.00  0.00    +0.000 A 
ATOM     18  C   UNL     1       6.135   6.036  17.955  0.00  0.00    +0.000 A 
ATOM     19  C   UNL     1       5.998   7.218  17.224  0.00  0.00    +0.000 A 
ATOM     20  C   UNL     1       6.968   8.222  17.312  0.00  0.00    +0.000 A 
BRANCH  15  21
ATOM     21  C   UNL     1       9.078   9.195  18.307  0.00  0.00    +0.000 C 
BRANCH  21  22
ATOM     22  C   UNL     1       8.451  10.579  18.105  0.00  0.00    +0.000 C 
BRANCH  22  24
ATOM     23  C   UNL     1       9.979  12.500  17.568  0.00  0.00    +0.000 C 
ATOM     24  C   UNL     1       9.332  11.688  18.680  0.00  0.00    +0.000 C 
ENDBRANCH  22  24
ENDBRANCH  21  22
ENDBRANCH  15  21
ENDBRANCH  11  18
ENDBRANCH  10  12
ENDBRANCH   1  10
BRANCH   5  25
ATOM     25  C   UNL     1       2.700   5.660  20.803  0.00  0.00    +0.000 C 
BRANCH  25  26
ATOM     26  C   UNL     1       1.939   6.922  20.467  0.00  0.00    +0.000 A 
ATOM     27  C   UNL     1       1.003   7.445  21.357  0.00  0.00    +0.000 A 
ATOM     28  C   UNL     1       0.374   8.654  21.068  0.00  0.00    +0.000 A 
ATOM     29  C   UNL     1       0.670   9.371  19.899  0.00  0.00    +0.000 A 
ATOM     30  C   UNL     1       1.596   8.843  18.981  0.00  0.00    +0.000 A 
ATOM     31  C   UNL     1       2.203   7.610  19.273  0.00  0.00    +0.000 A 
BRANCH  29  32
ATOM     32  O   UNL     1      -0.027  10.550  19.832  0.00  0.00    +0.000 OA
ATOM     33  C   UNL     1      -1.189  10.615  19.021  0.00  0.00    +0.000 C 
ENDBRANCH  29  32
BRANCH  30  34
ATOM     34  O   UNL     1       1.874   9.552  17.843  0.00  0.00    +0.000 OA
ATOM     35  C   UNL     1       2.408  10.864  17.978  0.00  0.00    +0.000 C 
ENDBRANCH  30  34
ENDBRANCH  25  26
ENDBRANCH   5  25
TORSDOF 10
ENDMDL
MODEL 7
REMARK VINA RESULT:      -6.7      4.367      8.162
REMARK  Name = 
REMARK  14 active torsions:
REMARK  status: ('A' for Active; 'I' for Inactive)
REMARK    1  A    between atoms: C_1  and  C_2
REMARK    2  A    between atoms: C_2  and  C_3
REMARK    3  A    between atoms: C_3  and  C_4
REMARK    4  A    between atoms: C_4  and  C_5
REMARK    5  A    between atoms: C_8  and  N_9
REMARK    6  A    between atoms: C_10  and  C_12
REMARK    7  A    between atoms: C_12  and  N_13
REMARK    8  A    between atoms: C_17  and  C_18
REMARK    9  A    between atoms: C_17  and  C_19
REMARK   10  A    between atoms: C_19  and  C_20
REMARK   11  A    between atoms: C_23  and  O_24
REMARK   12  A    between atoms: O_24  and  C_25
REMARK   13  A    between atoms: C_26  and  O_27
REMARK   14  A    between atoms: O_27  and  C_28
REMARK                            x       y       z     vdW  Elec       q    Type
REMARK                         _______ _______ _______ _____ _____    ______ ____
ROOT
ATOM      1  N   UNL     1       0.217  10.603  20.936  0.00  0.00    +0.000 N 
ATOM      2  C   UNL     1      -0.595  11.441  21.625  0.00  0.00    +0.000 C 
ATOM      3  O   UNL     1      -0.531  11.705  22.813  0.00  0.00    +0.000 OA
ATOM      4  N   UNL     1      -1.504  11.976  20.750  0.00  0.00    +0.000 N 
ATOM      5  C   UNL     1      -1.215  11.635  19.371  0.00  0.00    +0.000 C 
ATOM      6  C   UNL     1      -0.840  12.891  18.591  0.00  0.00    +0.000 C 
ATOM      7  C   UNL     1       0.019  10.739  19.594  0.00  0.00    +0.000 C 
ATOM      8  O   UNL     1       0.702  10.257  18.703  0.00  0.00    +0.000 OA
ATOM      9  H   UNL     1      -2.163  12.688  21.049  0.00  0.00    +0.000 HD
ENDROOT
BRANCH   1  10
ATOM     10  C   UNL     1       1.231   9.781  21.558  0.00  0.00    +0.000 C 
BRANCH  10  12
ATOM     11  N   UNL     1       1.963   7.726  20.435  0.00  0.00    +0.000 N 
ATOM     12  C   UNL     1       0.956   8.323  21.185  0.00  0.00    +0.000 C 
ATOM     13  O   UNL     1      -0.073   7.765  21.559  0.00  0.00    +0.000 OA
ATOM     14  H   UNL     1       2.670   8.327  20.028  0.00  0.00    +0.000 HD
BRANCH  11  18
ATOM     15  C   UNL     1       1.848   3.738  19.030  0.00  0.00    +0.000 A 
ATOM     16  C   UNL     1       1.641   4.045  20.382  0.00  0.00    +0.000 A 
ATOM     17  C   UNL     1       1.617   5.374  20.821  0.00  0.00    +0.000 A 
ATOM     18  C   UNL     1       1.885   6.412  19.926  0.00  0.00    +0.000 A 
ATOM     19  C   UNL     1       2.084   6.115  18.576  0.00  0.00    +0.000 A 
ATOM     20  C   UNL     1       2.050   4.790  18.129  0.00  0.00    +0.000 A 
BRANCH  15  21
ATOM     21  C   UNL     1       1.892   2.303  18.552  0.00  0.00    +0.000 C 
BRANCH  21  22
ATOM     22  C   UNL     1       3.322   1.790  18.352  0.00  0.00    +0.000 C 
BRANCH  22  24
ATOM     23  C   UNL     1       5.090   3.336  19.246  0.00  0.00    +0.000 C 
ATOM     24  C   UNL     1       4.215   2.128  19.546  0.00  0.00    +0.000 C 
ENDBRANCH  22  24
ENDBRANCH  21  22
ENDBRANCH  15  21
ENDBRANCH  11  18
ENDBRANCH  10  12
ENDBRANCH   1  10
BRANCH   5  25
ATOM     25  C   UNL     1      -2.303  10.769  18.700  0.00  0.00    +0.000 C 
BRANCH  25  26
ATOM     26  C   UNL     1      -3.576  11.520  18.386  0.00  0.00    +0.000 A 
ATOM     27  C   UNL     1      -4.111  11.504  17.100  0.00  0.00    +0.000 A 
ATOM     28  C   UNL     1      -5.329  12.131  16.848  0.00  0.00    +0.000 A 
ATOM     29  C   UNL     1      -6.045  12.775  17.871  0.00  0.00    +0.000 A 
ATOM     30  C   UNL     1      -5.504  12.818  19.169  0.00  0.00    +0.000 A 
ATOM     31  C   UNL     1      -4.262  12.204  19.401  0.00  0.00    +0.000 A 
BRANCH  29  32
ATOM     32  O   UNL     1      -7.233  13.287  17.419  0.00  0.00    +0.000 OA
ATOM     33  C   UNL     1      -7.225  14.512  16.704  0.00  0.00    +0.000 C 
ENDBRANCH  29  32
BRANCH  30  34
ATOM     34  O   UNL     1      -6.211  13.451  20.156  0.00  0.00    +0.000 OA
ATOM     35  C   UNL     1      -5.954  14.831  20.392  0.00  0.00    +0.000 C 
ENDBRANCH  30  34
ENDBRANCH  25  26
ENDBRANCH   5  25
TORSDOF 10
ENDMDL
MODEL 8
REMARK VINA RESULT:      -6.6      3.252      8.952
REMARK  Name = 
REMARK  14 active torsions:
REMARK  status: ('A' for Active; 'I' for Inactive)
REMARK    1  A    between atoms: C_1  and  C_2
REMARK    2  A    between atoms: C_2  and  C_3
REMARK    3  A    between atoms: C_3  and  C_4
REMARK    4  A    between atoms: C_4  and  C_5
REMARK    5  A    between atoms: C_8  and  N_9
REMARK    6  A    between atoms: C_10  and  C_12
REMARK    7  A    between atoms: C_12  and  N_13
REMARK    8  A    between atoms: C_17  and  C_18
REMARK    9  A    between atoms: C_17  and  C_19
REMARK   10  A    between atoms: C_19  and  C_20
REMARK   11  A    between atoms: C_23  and  O_24
REMARK   12  A    between atoms: O_24  and  C_25
REMARK   13  A    between atoms: C_26  and  O_27
REMARK   14  A    between atoms: O_27  and  C_28
REMARK                            x       y       z     vdW  Elec       q    Type
REMARK                         _______ _______ _______ _____ _____    ______ ____
ROOT
ATOM      1  N   UNL     1       2.070   8.244  19.651  0.00  0.00    +0.000 N 
ATOM      2  C   UNL     1       1.511   7.601  20.706  0.00  0.00    +0.000 C 
ATOM      3  O   UNL     1       0.815   8.095  21.575  0.00  0.00    +0.000 OA
ATOM      4  N   UNL     1       1.840   6.274  20.623  0.00  0.00    +0.000 N 
ATOM      5  C   UNL     1       2.508   5.943  19.380  0.00  0.00    +0.000 C 
ATOM      6  C   UNL     1       1.629   5.014  18.548  0.00  0.00    +0.000 C 
ATOM      7  C   UNL     1       2.567   7.350  18.752  0.00  0.00    +0.000 C 
ATOM      8  O   UNL     1       2.978   7.595  17.628  0.00  0.00    +0.000 OA
ATOM      9  H   UNL     1       1.462   5.598  21.279  0.00  0.00    +0.000 HD
ENDROOT
BRANCH   1  10
ATOM     10  C   UNL     1       2.019   9.679  19.471  0.00  0.00    +0.000 C 
BRANCH  10  12
ATOM     11  N   UNL     1      -0.056  10.020  18.207  0.00  0.00    +0.000 N 
ATOM     12  C   UNL     1       0.550  10.104  19.456  0.00  0.00    +0.000 C 
ATOM     13  O   UNL     1      -0.010  10.461  20.491  0.00  0.00    +0.000 OA
ATOM     14  H   UNL     1       0.542   9.896  17.398  0.00  0.00    +0.000 HD
BRANCH  11  18
ATOM     15  C   UNL     1      -3.984  11.284  17.279  0.00  0.00    +0.000 A 
ATOM     16  C   UNL     1      -3.302  10.360  16.476  0.00  0.00    +0.000 A 
ATOM     17  C   UNL     1      -2.028   9.902  16.831  0.00  0.00    +0.000 A 
ATOM     18  C   UNL     1      -1.382  10.427  17.952  0.00  0.00    +0.000 A 
ATOM     19  C   UNL     1      -2.059  11.341  18.763  0.00  0.00    +0.000 A 
ATOM     20  C   UNL     1      -3.355  11.755  18.438  0.00  0.00    +0.000 A 
BRANCH  15  21
ATOM     21  C   UNL     1      -5.354  11.797  16.892  0.00  0.00    +0.000 C 
BRANCH  21  22
ATOM     22  C   UNL     1      -6.220  12.144  18.107  0.00  0.00    +0.000 C 
BRANCH  22  24
ATOM     23  C   UNL     1      -7.327  11.127  20.120  0.00  0.00    +0.000 C 
ATOM     24  C   UNL     1      -6.929  10.912  18.667  0.00  0.00    +0.000 C 
ENDBRANCH  22  24
ENDBRANCH  21  22
ENDBRANCH  15  21
ENDBRANCH  11  18
ENDBRANCH  10  12
ENDBRANCH   1  10
BRANCH   5  25
ATOM     25  C   UNL     1       3.961   5.453  19.562  0.00  0.00    +0.000 C 
BRANCH  25  26
ATOM     26  C   UNL     1       4.751   5.387  18.276  0.00  0.00    +0.000 A 
ATOM     27  C   UNL     1       4.322   4.588  17.218  0.00  0.00    +0.000 A 
ATOM     28  C   UNL     1       5.017   4.605  16.011  0.00  0.00    +0.000 A 
ATOM     29  C   UNL     1       6.143   5.424  15.827  0.00  0.00    +0.000 A 
ATOM     30  C   UNL     1       6.600   6.218  16.895  0.00  0.00    +0.000 A 
ATOM     31  C   UNL     1       5.905   6.170  18.114  0.00  0.00    +0.000 A 
BRANCH  29  32
ATOM     32  O   UNL     1       6.648   5.321  14.557  0.00  0.00    +0.000 OA
ATOM     33  C   UNL     1       6.414   4.131  13.820  0.00  0.00    +0.000 C 
ENDBRANCH  29  32
BRANCH  30  34
ATOM     34  O   UNL     1       7.700   7.010  16.703  0.00  0.00    +0.000 OA
ATOM     35  C   UNL     1       7.865   8.151  17.536  0.00  0.00    +0.000 C 
ENDBRANCH  30  34
ENDBRANCH  25  26
ENDBRANCH   5  25
TORSDOF 10
ENDMDL
MODEL 9
REMARK VINA RESULT:      -6.5      2.234      3.566
REMARK  Name = 
REMARK  14 active torsions:
REMARK  status: ('A' for Active; 'I' for Inactive)
REMARK    1  A    between atoms: C_1  and  C_2
REMARK    2  A    between atoms: C_2  and  C_3
REMARK    3  A    between atoms: C_3  and  C_4
REMARK    4  A    between atoms: C_4  and  C_5
REMARK    5  A    between atoms: C_8  and  N_9
REMARK    6  A    between atoms: C_10  and  C_12
REMARK    7  A    between atoms: C_12  and  N_13
REMARK    8  A    between atoms: C_17  and  C_18
REMARK    9  A    between atoms: C_17  and  C_19
REMARK   10  A    between atoms: C_19  and  C_20
REMARK   11  A    between atoms: C_23  and  O_24
REMARK   12  A    between atoms: O_24  and  C_25
REMARK   13  A    between atoms: C_26  and  O_27
REMARK   14  A    between atoms: O_27  and  C_28
REMARK                            x       y       z     vdW  Elec       q    Type
REMARK                         _______ _______ _______ _____ _____    ______ ____
ROOT
ATOM      1  N   UNL     1       5.786   5.795  17.320  0.00  0.00    +0.000 N 
ATOM      2  C   UNL     1       4.927   6.443  16.496  0.00  0.00    +0.000 C 
ATOM      3  O   UNL     1       5.205   7.012  15.455  0.00  0.00    +0.000 OA
ATOM      4  N   UNL     1       3.665   6.332  17.018  0.00  0.00    +0.000 N 
ATOM      5  C   UNL     1       3.610   5.434  18.154  0.00  0.00    +0.000 C 
ATOM      6  C   UNL     1       2.771   4.207  17.808  0.00  0.00    +0.000 C 
ATOM      7  C   UNL     1       5.104   5.067  18.249  0.00  0.00    +0.000 C 
ATOM      8  O   UNL     1       5.573   4.246  19.022  0.00  0.00    +0.000 OA
ATOM      9  H   UNL     1       2.857   6.689  16.517  0.00  0.00    +0.000 HD
ENDROOT
BRANCH   1  10
ATOM     10  C   UNL     1       7.221   5.792  17.138  0.00  0.00    +0.000 C 
BRANCH  10  12
ATOM     11  N   UNL     1       7.744   8.170  17.435  0.00  0.00    +0.000 N 
ATOM     12  C   UNL     1       7.812   6.904  18.005  0.00  0.00    +0.000 C 
ATOM     13  O   UNL     1       8.277   6.653  19.115  0.00  0.00    +0.000 OA
ATOM     14  H   UNL     1       7.516   8.235  16.450  0.00  0.00    +0.000 HD
BRANCH  11  18
ATOM     15  C   UNL     1       9.452  11.680  19.064  0.00  0.00    +0.000 A 
ATOM     16  C   UNL     1       8.653  11.720  17.913  0.00  0.00    +0.000 A 
ATOM     17  C   UNL     1       8.042  10.560  17.423  0.00  0.00    +0.000 A 
ATOM     18  C   UNL     1       8.290   9.327  18.030  0.00  0.00    +0.000 A 
ATOM     19  C   UNL     1       9.077   9.281  19.183  0.00  0.00    +0.000 A 
ATOM     20  C   UNL     1       9.640  10.450  19.705  0.00  0.00    +0.000 A 
BRANCH  15  21
ATOM     21  C   UNL     1      10.130  12.927  19.589  0.00  0.00    +0.000 C 
BRANCH  21  22
ATOM     22  C   UNL     1       9.193  13.799  20.431  0.00  0.00    +0.000 C 
BRANCH  22  24
ATOM     23  C   UNL     1       9.076  15.528  22.250  0.00  0.00    +0.000 C 
ATOM     24  C   UNL     1       9.924  14.438  21.612  0.00  0.00    +0.000 C 
ENDBRANCH  22  24
ENDBRANCH  21  22
ENDBRANCH  15  21
ENDBRANCH  11  18
ENDBRANCH  10  12
ENDBRANCH   1  10
BRANCH   5  25
ATOM     25  C   UNL     1       3.215   6.123  19.478  0.00  0.00    +0.000 C 
BRANCH  25  26
ATOM     26  C   UNL     1       2.419   7.395  19.294  0.00  0.00    +0.000 A 
ATOM     27  C   UNL     1       2.259   7.955  18.028  0.00  0.00    +0.000 A 
ATOM     28  C   UNL     1       1.453   9.079  17.866  0.00  0.00    +0.000 A 
ATOM     29  C   UNL     1       0.780   9.660  18.954  0.00  0.00    +0.000 A 
ATOM     30  C   UNL     1       0.952   9.117  20.240  0.00  0.00    +0.000 A 
ATOM     31  C   UNL     1       1.790   8.000  20.392  0.00  0.00    +0.000 A 
BRANCH  29  32
ATOM     32  O   UNL     1       0.010  10.726  18.568  0.00  0.00    +0.000 OA
ATOM     33  C   UNL     1      -1.349  10.504  18.227  0.00  0.00    +0.000 C 
ENDBRANCH  29  32
BRANCH  30  34
ATOM     34  O   UNL     1       0.293   9.695  21.292  0.00  0.00    +0.000 OA
ATOM     35  C   UNL     1      -0.488   8.861  22.141  0.00  0.00    +0.000 C 
ENDBRANCH  30  34
ENDBRANCH  25  26
ENDBRANCH   5  25
TORSDOF 10
ENDMDL
