MODEL 1
REMARK VINA RESULT:      -7.8      0.000      0.000
REMARK  Name = 
REMARK  2 active torsions:
REMARK  status: ('A' for Active; 'I' for Inactive)
REMARK    1  A    between atoms: C_8  and  C_9
REMARK    2  A    between atoms: C_12  and  O_13
REMARK                            x       y       z     vdW  Elec       q    Type
REMARK                         _______ _______ _______ _____ _____    ______ ____
ROOT
ATOM      1  O   UNL     1       2.614  12.538  18.555  0.00  0.00    +0.000 OA
ATOM      2  C   UNL     1       1.784  12.909  19.383  0.00  0.00    +0.000 C 
ATOM      3  C   UNL     1       2.209  13.638  20.631  0.00  0.00    +0.000 C 
ATOM      4  C   UNL     1       1.222  14.678  21.129  0.00  0.00    +0.000 C 
ATOM      5  C   UNL     1      -0.231  14.529  20.686  0.00  0.00    +0.000 C 
ATOM      6  C   UNL     1      -0.576  13.359  19.803  0.00  0.00    +0.000 C 
ATOM      7  C   UNL     1       0.348  12.577  19.220  0.00  0.00    +0.000 C 
ATOM      8  C   UNL     1      -0.025  11.384  18.362  0.00  0.00    +0.000 C 
ATOM      9  C   UNL     1      -1.539  11.130  18.289  0.00  0.00    +0.000 A 
ATOM     10  C   UNL     1      -2.030   9.991  17.636  0.00  0.00    +0.000 A 
ATOM     11  C   UNL     1      -3.395   9.726  17.601  0.00  0.00    +0.000 A 
ATOM     12  C   UNL     1      -4.313  10.614  18.172  0.00  0.00    +0.000 A 
ATOM     13  C   UNL     1      -5.684  10.311  18.129  0.00  0.00    +0.000 A 
ATOM     14  C   UNL     1      -6.628  11.181  18.669  0.00  0.00    +0.000 A 
ATOM     15  C   UNL     1      -6.211  12.367  19.254  0.00  0.00    +0.000 A 
ATOM     16  C   UNL     1      -4.847  12.672  19.321  0.00  0.00    +0.000 A 
ATOM     17  C   UNL     1      -3.857  11.804  18.796  0.00  0.00    +0.000 A 
ATOM     18  C   UNL     1      -2.447  12.047  18.865  0.00  0.00    +0.000 A 
ATOM     19  N   UNL     1      -1.924  13.128  19.611  0.00  0.00    +0.000 N 
ATOM     20  H   UNL     1      -2.560  13.868  19.872  0.00  0.00    +0.000 HD
ENDROOT
BRANCH   8  21
ATOM     21  C   UNL     1       0.728  10.125  18.812  0.00  0.00    +0.000 A 
ATOM     22  C   UNL     1       1.526   9.396  17.912  0.00  0.00    +0.000 A 
ATOM     23  C   UNL     1       2.165   8.231  18.322  0.00  0.00    +0.000 A 
ATOM     24  C   UNL     1       2.016   7.789  19.632  0.00  0.00    +0.000 A 
ATOM     25  C   UNL     1       1.260   8.509  20.547  0.00  0.00    +0.000 A 
ATOM     26  C   UNL     1       0.610   9.674  20.137  0.00  0.00    +0.000 A 
BRANCH  24  27
ATOM     27  O   UNL     1       2.599   6.632  20.062  0.00  0.00    +0.000 OA
ATOM     28  H   UNL     1       2.931   6.152  19.286  0.00  0.00    +0.000 HD
ENDBRANCH  24  27
ENDBRANCH   8  21
TORSDOF 2
ENDMDL
MODEL 2
REMARK VINA RESULT:      -7.6      0.359      1.014
REMARK  Name = 
REMARK  2 active torsions:
REMARK  status: ('A' for Active; 'I' for Inactive)
REMARK    1  A    between atoms: C_8  and  C_9
REMARK    2  A    between atoms: C_12  and  O_13
REMARK                            x       y       z     vdW  Elec       q    Type
REMARK                         _______ _______ _______ _____ _____    ______ ____
ROOT
ATOM      1  O   UNL     1       2.432  12.641  19.001  0.00  0.00    +0.000 OA
ATOM      2  C   UNL     1       1.570  12.974  19.812  0.00  0.00    +0.000 C 
ATOM      3  C   UNL     1       1.946  13.623  21.119  0.00  0.00    +0.000 C 
ATOM      4  C   UNL     1       0.948  14.645  21.634  0.00  0.00    +0.000 C 
ATOM      5  C   UNL     1      -0.485  14.539  21.120  0.00  0.00    +0.000 C 
ATOM      6  C   UNL     1      -0.802  13.428  20.155  0.00  0.00    +0.000 C 
ATOM      7  C   UNL     1       0.139  12.669  19.567  0.00  0.00    +0.000 C 
ATOM      8  C   UNL     1      -0.207  11.533  18.625  0.00  0.00    +0.000 C 
ATOM      9  C   UNL     1      -1.718  11.303  18.470  0.00  0.00    +0.000 A 
ATOM     10  C   UNL     1      -2.191  10.210  17.730  0.00  0.00    +0.000 A 
ATOM     11  C   UNL     1      -3.556   9.965  17.620  0.00  0.00    +0.000 A 
ATOM     12  C   UNL     1      -4.489  10.829  18.202  0.00  0.00    +0.000 A 
ATOM     13  C   UNL     1      -5.860  10.546  18.082  0.00  0.00    +0.000 A 
ATOM     14  C   UNL     1      -6.818  11.394  18.630  0.00  0.00    +0.000 A 
ATOM     15  C   UNL     1      -6.416  12.539  19.302  0.00  0.00    +0.000 A 
ATOM     16  C   UNL     1      -5.054  12.822  19.446  0.00  0.00    +0.000 A 
ATOM     17  C   UNL     1      -4.050  11.974  18.914  0.00  0.00    +0.000 A 
ATOM     18  C   UNL     1      -2.642  12.195  19.059  0.00  0.00    +0.000 A 
ATOM     19  N   UNL     1      -2.142  13.225  19.890  0.00  0.00    +0.000 N 
ATOM     20  H   UNL     1      -2.782  13.956  20.167  0.00  0.00    +0.000 HD
ENDROOT
BRANCH   8  21
ATOM     21  C   UNL     1       0.514  10.242  19.031  0.00  0.00    +0.000 A 
ATOM     22  C   UNL     1       0.457   9.764  20.353  0.00  0.00    +0.000 A 
ATOM     23  C   UNL     1       1.154   8.617  20.717  0.00  0.00    +0.000 A 
ATOM     24  C   UNL     1       1.908   7.938  19.765  0.00  0.00    +0.000 A 
ATOM     25  C   UNL     1       1.952   8.372  18.448  0.00  0.00    +0.000 A 
ATOM     26  C   UNL     1       1.261   9.528  18.080  0.00  0.00    +0.000 A 
BRANCH  24  27
ATOM     27  O   UNL     1       2.633   6.829  20.093  0.00  0.00    +0.000 OA
ATOM     28  H   UNL     1       2.077   6.047  19.946  0.00  0.00    +0.000 HD
ENDBRANCH  24  27
ENDBRANCH   8  21
TORSDOF 2
ENDMDL
MODEL 3
REMARK VINA RESULT:      -7.2     10.651     12.079
REMARK  Name = 
REMARK  2 active torsions:
REMARK  status: ('A' for Active; 'I' for Inactive)
REMARK    1  A    between atoms: C_8  and  C_9
REMARK    2  A    between atoms: C_12  and  O_13
REMARK                            x       y       z     vdW  Elec       q    Type
REMARK                         _______ _______ _______ _____ _____    ______ ____
ROOT
ATOM      1  O   UNL     1      11.747  13.575  18.539  0.00  0.00    +0.000 OA
ATOM      2  C   UNL     1      10.809  12.818  18.784  0.00  0.00    +0.000 C 
ATOM      3  C   UNL     1      10.260  11.899  17.723  0.00  0.00    +0.000 C 
ATOM      4  C   UNL     1       9.743  10.568  18.238  0.00  0.00    +0.000 C 
ATOM      5  C   UNL     1       9.348  10.497  19.711  0.00  0.00    +0.000 C 
ATOM      6  C   UNL     1       9.489  11.749  20.534  0.00  0.00    +0.000 C 
ATOM      7  C   UNL     1      10.133  12.847  20.104  0.00  0.00    +0.000 C 
ATOM      8  C   UNL     1      10.232  14.109  20.939  0.00  0.00    +0.000 C 
ATOM      9  C   UNL     1       9.475  14.023  22.273  0.00  0.00    +0.000 A 
ATOM     10  C   UNL     1       9.371  15.152  23.096  0.00  0.00    +0.000 A 
ATOM     11  C   UNL     1       8.650  15.100  24.285  0.00  0.00    +0.000 A 
ATOM     12  C   UNL     1       8.055  13.908  24.711  0.00  0.00    +0.000 A 
ATOM     13  C   UNL     1       7.324  13.891  25.911  0.00  0.00    +0.000 A 
ATOM     14  C   UNL     1       6.736  12.719  26.377  0.00  0.00    +0.000 A 
ATOM     15  C   UNL     1       6.875  11.546  25.649  0.00  0.00    +0.000 A 
ATOM     16  C   UNL     1       7.583  11.553  24.443  0.00  0.00    +0.000 A 
ATOM     17  C   UNL     1       8.183  12.731  23.930  0.00  0.00    +0.000 A 
ATOM     18  C   UNL     1       8.890  12.804  22.687  0.00  0.00    +0.000 A 
ATOM     19  N   UNL     1       8.915  11.711  21.790  0.00  0.00    +0.000 N 
ATOM     20  H   UNL     1       8.654  10.804  22.149  0.00  0.00    +0.000 HD
ENDROOT
BRANCH   8  21
ATOM     21  C   UNL     1       9.798  15.339  20.132  0.00  0.00    +0.000 A 
ATOM     22  C   UNL     1       8.526  15.404  19.535  0.00  0.00    +0.000 A 
ATOM     23  C   UNL     1       8.164  16.506  18.767  0.00  0.00    +0.000 A 
ATOM     24  C   UNL     1       9.067  17.549  18.593  0.00  0.00    +0.000 A 
ATOM     25  C   UNL     1      10.316  17.522  19.198  0.00  0.00    +0.000 A 
ATOM     26  C   UNL     1      10.686  16.414  19.962  0.00  0.00    +0.000 A 
BRANCH  24  27
ATOM     27  O   UNL     1       8.761  18.631  17.817  0.00  0.00    +0.000 OA
ATOM     28  H   UNL     1       9.348  19.362  18.069  0.00  0.00    +0.000 HD
ENDBRANCH  24  27
ENDBRANCH   8  21
TORSDOF 2
ENDMDL
MODEL 4
REMARK VINA RESULT:      -7.1      3.475      6.452
REMARK  Name = 
REMARK  2 active torsions:
REMARK  status: ('A' for Active; 'I' for Inactive)
REMARK    1  A    between atoms: C_8  and  C_9
REMARK    2  A    between atoms: C_12  and  O_13
REMARK                            x       y       z     vdW  Elec       q    Type
REMARK                         _______ _______ _______ _____ _____    ______ ____
ROOT
ATOM      1  O   UNL     1      -1.467  12.775  20.257  0.00  0.00    +0.000 OA
ATOM      2  C   UNL     1      -1.030  11.994  21.101  0.00  0.00    +0.000 C 
ATOM      3  C   UNL     1      -1.227  12.254  22.572  0.00  0.00    +0.000 C 
ATOM      4  C   UNL     1      -1.394  11.008  23.422  0.00  0.00    +0.000 C 
ATOM      5  C   UNL     1      -0.847   9.700  22.857  0.00  0.00    +0.000 C 
ATOM      6  C   UNL     1      -0.176   9.747  21.510  0.00  0.00    +0.000 C 
ATOM      7  C   UNL     1      -0.222  10.817  20.699  0.00  0.00    +0.000 C 
ATOM      8  C   UNL     1       0.491  10.852  19.361  0.00  0.00    +0.000 C 
ATOM      9  C   UNL     1       1.311   9.586  19.070  0.00  0.00    +0.000 A 
ATOM     10  C   UNL     1       2.124   9.521  17.930  0.00  0.00    +0.000 A 
ATOM     11  C   UNL     1       2.905   8.398  17.678  0.00  0.00    +0.000 A 
ATOM     12  C   UNL     1       2.861   7.288  18.527  0.00  0.00    +0.000 A 
ATOM     13  C   UNL     1       3.671   6.174  18.250  0.00  0.00    +0.000 A 
ATOM     14  C   UNL     1       3.638   5.044  19.062  0.00  0.00    +0.000 A 
ATOM     15  C   UNL     1       2.790   5.012  20.159  0.00  0.00    +0.000 A 
ATOM     16  C   UNL     1       1.992   6.122  20.457  0.00  0.00    +0.000 A 
ATOM     17  C   UNL     1       2.010   7.296  19.662  0.00  0.00    +0.000 A 
ATOM     18  C   UNL     1       1.242   8.473  19.938  0.00  0.00    +0.000 A 
ATOM     19  N   UNL     1       0.502   8.603  21.136  0.00  0.00    +0.000 N 
ATOM     20  H   UNL     1       0.313   7.763  21.664  0.00  0.00    +0.000 HD
ENDROOT
BRANCH   8  21
ATOM     21  C   UNL     1       1.352  12.114  19.229  0.00  0.00    +0.000 A 
ATOM     22  C   UNL     1       2.138  12.573  20.302  0.00  0.00    +0.000 A 
ATOM     23  C   UNL     1       2.877  13.745  20.183  0.00  0.00    +0.000 A 
ATOM     24  C   UNL     1       2.840  14.464  18.993  0.00  0.00    +0.000 A 
ATOM     25  C   UNL     1       2.098  14.014  17.910  0.00  0.00    +0.000 A 
ATOM     26  C   UNL     1       1.348  12.843  18.029  0.00  0.00    +0.000 A 
BRANCH  24  27
ATOM     27  O   UNL     1       3.524  15.637  18.850  0.00  0.00    +0.000 OA
ATOM     28  H   UNL     1       2.980  16.353  19.215  0.00  0.00    +0.000 HD
ENDBRANCH  24  27
ENDBRANCH   8  21
TORSDOF 2
ENDMDL
MODEL 5
REMARK VINA RESULT:      -7.1      3.477      6.193
REMARK  Name = 
REMARK  2 active torsions:
REMARK  status: ('A' for Active; 'I' for Inactive)
REMARK    1  A    between atoms: C_8  and  C_9
REMARK    2  A    between atoms: C_12  and  O_13
REMARK                            x       y       z     vdW  Elec       q    Type
REMARK                         _______ _______ _______ _____ _____    ______ ____
ROOT
ATOM      1  O   UNL     1      -1.449  13.348  20.199  0.00  0.00    +0.000 OA
ATOM      2  C   UNL     1      -1.080  12.559  21.067  0.00  0.00    +0.000 C 
ATOM      3  C   UNL     1      -1.295  12.861  22.528  0.00  0.00    +0.000 C 
ATOM      4  C   UNL     1      -1.556  11.645  23.398  0.00  0.00    +0.000 C 
ATOM      5  C   UNL     1      -1.077  10.295  22.871  0.00  0.00    +0.000 C 
ATOM      6  C   UNL     1      -0.373  10.274  21.540  0.00  0.00    +0.000 C 
ATOM      7  C   UNL     1      -0.336  11.328  20.707  0.00  0.00    +0.000 C 
ATOM      8  C   UNL     1       0.408  11.293  19.387  0.00  0.00    +0.000 C 
ATOM      9  C   UNL     1       1.156   9.973  19.140  0.00  0.00    +0.000 A 
ATOM     10  C   UNL     1       1.989   9.837  18.020  0.00  0.00    +0.000 A 
ATOM     11  C   UNL     1       2.707   8.664  17.809  0.00  0.00    +0.000 A 
ATOM     12  C   UNL     1       2.576   7.576  18.678  0.00  0.00    +0.000 A 
ATOM     13  C   UNL     1       3.323   6.410  18.442  0.00  0.00    +0.000 A 
ATOM     14  C   UNL     1       3.203   5.300  19.273  0.00  0.00    +0.000 A 
ATOM     15  C   UNL     1       2.329   5.342  20.351  0.00  0.00    +0.000 A 
ATOM     16  C   UNL     1       1.594   6.504  20.609  0.00  0.00    +0.000 A 
ATOM     17  C   UNL     1       1.701   7.658  19.792  0.00  0.00    +0.000 A 
ATOM     18  C   UNL     1       1.000   8.885  20.027  0.00  0.00    +0.000 A 
ATOM     19  N   UNL     1       0.242   9.083  21.204  0.00  0.00    +0.000 N 
ATOM     20  H   UNL     1      -0.010   8.267  21.743  0.00  0.00    +0.000 HD
ENDROOT
BRANCH   8  21
ATOM     21  C   UNL     1       1.347  12.498  19.252  0.00  0.00    +0.000 A 
ATOM     22  C   UNL     1       1.396  13.250  18.065  0.00  0.00    +0.000 A 
ATOM     23  C   UNL     1       2.287  14.311  17.940  0.00  0.00    +0.000 A 
ATOM     24  C   UNL     1       3.130  14.630  19.000  0.00  0.00    +0.000 A 
ATOM     25  C   UNL     1       3.076  13.923  20.192  0.00  0.00    +0.000 A 
ATOM     26  C   UNL     1       2.190  12.852  20.318  0.00  0.00    +0.000 A 
BRANCH  24  27
ATOM     27  O   UNL     1       4.041  15.642  18.902  0.00  0.00    +0.000 OA
ATOM     28  H   UNL     1       4.713  15.385  18.250  0.00  0.00    +0.000 HD
ENDBRANCH  24  27
ENDBRANCH   8  21
TORSDOF 2
ENDMDL
MODEL 6
REMARK VINA RESULT:      -6.9     10.799     12.627
REMARK  Name = 
REMARK  2 active torsions:
REMARK  status: ('A' for Active; 'I' for Inactive)
REMARK    1  A    between atoms: C_8  and  C_9
REMARK    2  A    between atoms: C_12  and  O_13
REMARK                            x       y       z     vdW  Elec       q    Type
REMARK                         _______ _______ _______ _____ _____    ______ ____
ROOT
ATOM      1  O   UNL     1      12.300  13.072  18.172  0.00  0.00    +0.000 OA
ATOM      2  C   UNL     1      11.221  12.584  18.505  0.00  0.00    +0.000 C 
ATOM      3  C   UNL     1      10.483  11.642  17.589  0.00  0.00    +0.000 C 
ATOM      4  C   UNL     1       9.692  10.556  18.296  0.00  0.00    +0.000 C 
ATOM      5  C   UNL     1       9.295  10.816  19.747  0.00  0.00    +0.000 C 
ATOM      6  C   UNL     1       9.706  12.128  20.360  0.00  0.00    +0.000 C 
ATOM      7  C   UNL     1      10.572  12.976  19.780  0.00  0.00    +0.000 C 
ATOM      8  C   UNL     1      10.944  14.307  20.401  0.00  0.00    +0.000 C 
ATOM      9  C   UNL     1      10.189  14.607  21.706  0.00  0.00    +0.000 A 
ATOM     10  C   UNL     1      10.335  15.853  22.331  0.00  0.00    +0.000 A 
ATOM     11  C   UNL     1       9.622  16.154  23.488  0.00  0.00    +0.000 A 
ATOM     12  C   UNL     1       8.784  15.204  24.082  0.00  0.00    +0.000 A 
ATOM     13  C   UNL     1       8.071  15.544  25.244  0.00  0.00    +0.000 A 
ATOM     14  C   UNL     1       7.244  14.618  25.874  0.00  0.00    +0.000 A 
ATOM     15  C   UNL     1       7.124  13.339  25.350  0.00  0.00    +0.000 A 
ATOM     16  C   UNL     1       7.813  12.994  24.183  0.00  0.00    +0.000 A 
ATOM     17  C   UNL     1       8.653  13.914  23.507  0.00  0.00    +0.000 A 
ATOM     18  C   UNL     1       9.356  13.628  22.292  0.00  0.00    +0.000 A 
ATOM     19  N   UNL     1       9.141  12.422  21.586  0.00  0.00    +0.000 N 
ATOM     20  H   UNL     1       8.690  11.664  22.079  0.00  0.00    +0.000 HD
ENDROOT
BRANCH   8  21
ATOM     21  C   UNL     1      10.784  15.450  19.391  0.00  0.00    +0.000 A 
ATOM     22  C   UNL     1      11.857  16.308  19.091  0.00  0.00    +0.000 A 
ATOM     23  C   UNL     1      11.684  17.369  18.208  0.00  0.00    +0.000 A 
ATOM     24  C   UNL     1      10.442  17.578  17.618  0.00  0.00    +0.000 A 
ATOM     25  C   UNL     1       9.378  16.725  17.874  0.00  0.00    +0.000 A 
ATOM     26  C   UNL     1       9.545  15.664  18.766  0.00  0.00    +0.000 A 
BRANCH  24  27
ATOM     27  O   UNL     1      10.225  18.629  16.774  0.00  0.00    +0.000 OA
ATOM     28  H   UNL     1       9.352  19.005  16.975  0.00  0.00    +0.000 HD
ENDBRANCH  24  27
ENDBRANCH   8  21
TORSDOF 2
ENDMDL
MODEL 7
REMARK VINA RESULT:      -6.9      3.652      6.043
REMARK  Name = 
REMARK  2 active torsions:
REMARK  status: ('A' for Active; 'I' for Inactive)
REMARK    1  A    between atoms: C_8  and  C_9
REMARK    2  A    between atoms: C_12  and  O_13
REMARK                            x       y       z     vdW  Elec       q    Type
REMARK                         _______ _______ _______ _____ _____    ______ ____
ROOT
ATOM      1  O   UNL     1      -1.041  14.164  20.098  0.00  0.00    +0.000 OA
ATOM      2  C   UNL     1      -0.797  13.368  21.003  0.00  0.00    +0.000 C 
ATOM      3  C   UNL     1      -1.013  13.747  22.446  0.00  0.00    +0.000 C 
ATOM      4  C   UNL     1      -1.449  12.605  23.346  0.00  0.00    +0.000 C 
ATOM      5  C   UNL     1      -1.128  11.188  22.879  0.00  0.00    +0.000 C 
ATOM      6  C   UNL     1      -0.396  11.031  21.573  0.00  0.00    +0.000 C 
ATOM      7  C   UNL     1      -0.204  12.041  20.708  0.00  0.00    +0.000 C 
ATOM      8  C   UNL     1       0.566  11.866  19.414  0.00  0.00    +0.000 C 
ATOM      9  C   UNL     1       1.149  10.456  19.234  0.00  0.00    +0.000 A 
ATOM     10  C   UNL     1       1.990  10.176  18.147  0.00  0.00    +0.000 A 
ATOM     11  C   UNL     1       2.560   8.916  17.997  0.00  0.00    +0.000 A 
ATOM     12  C   UNL     1       2.270   7.885  18.896  0.00  0.00    +0.000 A 
ATOM     13  C   UNL     1       2.871   6.627  18.722  0.00  0.00    +0.000 A 
ATOM     14  C   UNL     1       2.590   5.572  19.585  0.00  0.00    +0.000 A 
ATOM     15  C   UNL     1       1.699   5.762  20.632  0.00  0.00    +0.000 A 
ATOM     16  C   UNL     1       1.108   7.014  20.828  0.00  0.00    +0.000 A 
ATOM     17  C   UNL     1       1.382   8.116  19.979  0.00  0.00    +0.000 A 
ATOM     18  C   UNL     1       0.834   9.428  20.150  0.00  0.00    +0.000 A 
ATOM     19  N   UNL     1       0.074   9.762  21.295  0.00  0.00    +0.000 N 
ATOM     20  H   UNL     1      -0.293   9.003  21.853  0.00  0.00    +0.000 HD
ENDROOT
BRANCH   8  21
ATOM     21  C   UNL     1       1.652  12.939  19.270  0.00  0.00    +0.000 A 
ATOM     22  C   UNL     1       2.506  13.257  20.341  0.00  0.00    +0.000 A 
ATOM     23  C   UNL     1       3.455  14.265  20.210  0.00  0.00    +0.000 A 
ATOM     24  C   UNL     1       3.560  14.959  19.009  0.00  0.00    +0.000 A 
ATOM     25  C   UNL     1       2.752  14.641  17.928  0.00  0.00    +0.000 A 
ATOM     26  C   UNL     1       1.792  13.635  18.058  0.00  0.00    +0.000 A 
BRANCH  24  27
ATOM     27  O   UNL     1       4.456  15.978  18.854  0.00  0.00    +0.000 OA
ATOM     28  H   UNL     1       5.272  15.612  18.477  0.00  0.00    +0.000 HD
ENDBRANCH  24  27
ENDBRANCH   8  21
TORSDOF 2
ENDMDL
MODEL 8
REMARK VINA RESULT:      -6.8      2.583      5.038
REMARK  Name = 
REMARK  2 active torsions:
REMARK  status: ('A' for Active; 'I' for Inactive)
REMARK    1  A    between atoms: C_8  and  C_9
REMARK    2  A    between atoms: C_12  and  O_13
REMARK                            x       y       z     vdW  Elec       q    Type
REMARK                         _______ _______ _______ _____ _____    ______ ____
ROOT
ATOM      1  O   UNL     1      -1.147   9.658  17.272  0.00  0.00    +0.000 OA
ATOM      2  C   UNL     1      -2.039  10.502  17.227  0.00  0.00    +0.000 C 
ATOM      3  C   UNL     1      -2.718  10.842  15.925  0.00  0.00    +0.000 C 
ATOM      4  C   UNL     1      -4.184  11.215  16.048  0.00  0.00    +0.000 C 
ATOM      5  C   UNL     1      -4.666  11.707  17.410  0.00  0.00    +0.000 C 
ATOM      6  C   UNL     1      -3.652  11.797  18.520  0.00  0.00    +0.000 C 
ATOM      7  C   UNL     1      -2.417  11.274  18.436  0.00  0.00    +0.000 C 
ATOM      8  C   UNL     1      -1.402  11.407  19.554  0.00  0.00    +0.000 C 
ATOM      9  C   UNL     1      -1.903  12.245  20.740  0.00  0.00    +0.000 A 
ATOM     10  C   UNL     1      -1.034  12.561  21.795  0.00  0.00    +0.000 A 
ATOM     11  C   UNL     1      -1.462  13.357  22.853  0.00  0.00    +0.000 A 
ATOM     12  C   UNL     1      -2.781  13.818  22.915  0.00  0.00    +0.000 A 
ATOM     13  C   UNL     1      -3.179  14.629  23.992  0.00  0.00    +0.000 A 
ATOM     14  C   UNL     1      -4.488  15.089  24.098  0.00  0.00    +0.000 A 
ATOM     15  C   UNL     1      -5.418  14.740  23.130  0.00  0.00    +0.000 A 
ATOM     16  C   UNL     1      -5.031  13.950  22.042  0.00  0.00    +0.000 A 
ATOM     17  C   UNL     1      -3.703  13.475  21.893  0.00  0.00    +0.000 A 
ATOM     18  C   UNL     1      -3.243  12.692  20.786  0.00  0.00    +0.000 A 
ATOM     19  N   UNL     1      -4.066  12.454  19.662  0.00  0.00    +0.000 N 
ATOM     20  H   UNL     1      -5.058  12.618  19.764  0.00  0.00    +0.000 HD
ENDROOT
BRANCH   8  21
ATOM     21  C   UNL     1      -0.065  11.938  19.023  0.00  0.00    +0.000 A 
ATOM     22  C   UNL     1       1.068  11.108  18.947  0.00  0.00    +0.000 A 
ATOM     23  C   UNL     1       2.286  11.617  18.508  0.00  0.00    +0.000 A 
ATOM     24  C   UNL     1       2.380  12.955  18.139  0.00  0.00    +0.000 A 
ATOM     25  C   UNL     1       1.269  13.785  18.174  0.00  0.00    +0.000 A 
ATOM     26  C   UNL     1       0.046  13.280  18.623  0.00  0.00    +0.000 A 
BRANCH  24  27
ATOM     27  O   UNL     1       3.566  13.499  17.736  0.00  0.00    +0.000 OA
ATOM     28  H   UNL     1       4.286  13.008  18.163  0.00  0.00    +0.000 HD
ENDBRANCH  24  27
ENDBRANCH   8  21
TORSDOF 2
ENDMDL
MODEL 9
REMARK VINA RESULT:      -6.8      2.583      5.036
REMARK  Name = 
REMARK  2 active torsions:
REMARK  status: ('A' for Active; 'I' for Inactive)
REMARK    1  A    between atoms: C_8  and  C_9
REMARK    2  A    between atoms: C_12  and  O_13
REMARK                            x       y       z     vdW  Elec       q    Type
REMARK                         _______ _______ _______ _____ _____    ______ ____
ROOT
ATOM      1  O   UNL     1      -1.157   9.730  17.355  0.00  0.00    +0.000 OA
ATOM      2  C   UNL     1      -2.080  10.532  17.219  0.00  0.00    +0.000 C 
ATOM      3  C   UNL     1      -2.666  10.814  15.860  0.00  0.00    +0.000 C 
ATOM      4  C   UNL     1      -4.153  11.122  15.859  0.00  0.00    +0.000 C 
ATOM      5  C   UNL     1      -4.763  11.618  17.166  0.00  0.00    +0.000 C 
ATOM      6  C   UNL     1      -3.846  11.777  18.350  0.00  0.00    +0.000 C 
ATOM      7  C   UNL     1      -2.586  11.309  18.376  0.00  0.00    +0.000 C 
ATOM      8  C   UNL     1      -1.671  11.511  19.568  0.00  0.00    +0.000 C 
ATOM      9  C   UNL     1      -2.301  12.350  20.690  0.00  0.00    +0.000 A 
ATOM     10  C   UNL     1      -1.535  12.726  21.802  0.00  0.00    +0.000 A 
ATOM     11  C   UNL     1      -2.081  13.522  22.804  0.00  0.00    +0.000 A 
ATOM     12  C   UNL     1      -3.419  13.924  22.751  0.00  0.00    +0.000 A 
ATOM     13  C   UNL     1      -3.937  14.737  23.774  0.00  0.00    +0.000 A 
ATOM     14  C   UNL     1      -5.269  15.139  23.766  0.00  0.00    +0.000 A 
ATOM     15  C   UNL     1      -6.102  14.729  22.735  0.00  0.00    +0.000 A 
ATOM     16  C   UNL     1      -5.595  13.936  21.701  0.00  0.00    +0.000 A 
ATOM     17  C   UNL     1      -4.241  13.519  21.668  0.00  0.00    +0.000 A 
ATOM     18  C   UNL     1      -3.659  12.735  20.620  0.00  0.00    +0.000 A 
ATOM     19  N   UNL     1      -4.379  12.437  19.440  0.00  0.00    +0.000 N 
ATOM     20  H   UNL     1      -5.382  12.558  19.459  0.00  0.00    +0.000 HD
ENDROOT
BRANCH   8  21
ATOM     21  C   UNL     1      -0.320  12.093  19.132  0.00  0.00    +0.000 A 
ATOM     22  C   UNL     1      -0.223  13.398  18.617  0.00  0.00    +0.000 A 
ATOM     23  C   UNL     1       1.001  13.894  18.182  0.00  0.00    +0.000 A 
ATOM     24  C   UNL     1       2.136  13.094  18.262  0.00  0.00    +0.000 A 
ATOM     25  C   UNL     1       2.071  11.815  18.796  0.00  0.00    +0.000 A 
ATOM     26  C   UNL     1       0.842  11.310  19.225  0.00  0.00    +0.000 A 
BRANCH  24  27
ATOM     27  O   UNL     1       3.348  13.533  17.813  0.00  0.00    +0.000 OA
ATOM     28  H   UNL     1       3.219  13.944  16.943  0.00  0.00    +0.000 HD
ENDBRANCH  24  27
ENDBRANCH   8  21
TORSDOF 2
ENDMDL
