MODEL 1
REMARK VINA RESULT:      -4.1      0.000      0.000
REMARK  Name = 
REMARK  2 active torsions:
REMARK  status: ('A' for Active; 'I' for Inactive)
REMARK    1  A    between atoms: P_2  and  O_3
REMARK    2  A    between atoms: P_2  and  C_4
REMARK                            x       y       z     vdW  Elec       q    Type
REMARK                         _______ _______ _______ _____ _____    ______ ____
ROOT
ATOM      1  O   UNL     1       1.401   2.559  22.404  0.00  0.00    +0.000 OA
ATOM      2  P   UNL     1       1.992   2.863  21.005  0.00  0.00    +0.000 P 
ATOM      3  H   UNL     1       3.262   2.633  21.492  0.00  0.00    +0.000 HD
ENDROOT
BRANCH   2   4
ATOM      4  C   UNL     1       2.689   3.222  19.352  0.00  0.00    +0.000 A 
ATOM      5  C   UNL     1       1.934   3.316  18.207  0.00  0.00    +0.000 A 
ATOM      6  C   UNL     1       2.764   3.581  17.075  0.00  0.00    +0.000 A 
ATOM      7  C   UNL     1       4.098   3.669  17.419  0.00  0.00    +0.000 A 
ATOM      8  S   UNL     1       4.353   3.430  19.099  0.00  0.00    +0.000 S 
ENDBRANCH   2   4
BRANCH   2   9
ATOM      9  O   UNL     1       0.398   3.151  20.395  0.00  0.00    +0.000 OA
ATOM     10  H   UNL     1       0.346   4.125  20.293  0.00  0.00    +0.000 HD
ENDBRANCH   2   9
TORSDOF 2
ENDMDL
MODEL 2
REMARK VINA RESULT:      -4.1      3.316      3.867
REMARK  Name = 
REMARK  2 active torsions:
REMARK  status: ('A' for Active; 'I' for Inactive)
REMARK    1  A    between atoms: P_2  and  O_3
REMARK    2  A    between atoms: P_2  and  C_4
REMARK                            x       y       z     vdW  Elec       q    Type
REMARK                         _______ _______ _______ _____ _____    ______ ____
ROOT
ATOM      1  O   UNL     1       6.236   4.280  18.678  0.00  0.00    +0.000 OA
ATOM      2  P   UNL     1       4.762   3.882  18.937  0.00  0.00    +0.000 P 
ATOM      3  H   UNL     1       4.339   4.962  18.190  0.00  0.00    +0.000 HD
ENDROOT
BRANCH   2   4
ATOM      4  C   UNL     1       3.020   3.412  19.243  0.00  0.00    +0.000 A 
ATOM      5  C   UNL     1       2.362   3.646  20.427  0.00  0.00    +0.000 A 
ATOM      6  C   UNL     1       1.025   3.145  20.369  0.00  0.00    +0.000 A 
ATOM      7  C   UNL     1       0.744   2.558  19.151  0.00  0.00    +0.000 A 
ATOM      8  S   UNL     1       2.084   2.605  18.082  0.00  0.00    +0.000 S 
ENDBRANCH   2   4
BRANCH   2   9
ATOM      9  O   UNL     1       5.293   2.528  19.875  0.00  0.00    +0.000 OA
ATOM     10  H   UNL     1       5.409   1.807  19.222  0.00  0.00    +0.000 HD
ENDBRANCH   2   9
TORSDOF 2
ENDMDL
MODEL 3
REMARK VINA RESULT:      -4.0      4.755      5.080
REMARK  Name = 
REMARK  2 active torsions:
REMARK  status: ('A' for Active; 'I' for Inactive)
REMARK    1  A    between atoms: P_2  and  O_3
REMARK    2  A    between atoms: P_2  and  C_4
REMARK                            x       y       z     vdW  Elec       q    Type
REMARK                         _______ _______ _______ _____ _____    ______ ____
ROOT
ATOM      1  O   UNL     1       7.837   4.599  15.972  0.00  0.00    +0.000 OA
ATOM      2  P   UNL     1       6.479   4.574  16.715  0.00  0.00    +0.000 P 
ATOM      3  H   UNL     1       5.827   4.861  15.534  0.00  0.00    +0.000 HD
ENDROOT
BRANCH   2   4
ATOM      4  C   UNL     1       4.874   4.545  17.594  0.00  0.00    +0.000 A 
ATOM      5  C   UNL     1       3.719   4.024  17.061  0.00  0.00    +0.000 A 
ATOM      6  C   UNL     1       2.631   4.167  17.974  0.00  0.00    +0.000 A 
ATOM      7  C   UNL     1       3.016   4.789  19.146  0.00  0.00    +0.000 A 
ATOM      8  S   UNL     1       4.681   5.203  19.145  0.00  0.00    +0.000 S 
ENDBRANCH   2   4
BRANCH   2   9
ATOM      9  O   UNL     1       7.297   4.214  18.197  0.00  0.00    +0.000 OA
ATOM     10  H   UNL     1       8.067   3.670  17.927  0.00  0.00    +0.000 HD
ENDBRANCH   2   9
TORSDOF 2
ENDMDL
MODEL 4
REMARK VINA RESULT:      -4.0      3.465      3.673
REMARK  Name = 
REMARK  2 active torsions:
REMARK  status: ('A' for Active; 'I' for Inactive)
REMARK    1  A    between atoms: P_2  and  O_3
REMARK    2  A    between atoms: P_2  and  C_4
REMARK                            x       y       z     vdW  Elec       q    Type
REMARK                         _______ _______ _______ _____ _____    ______ ____
ROOT
ATOM      1  O   UNL     1       6.601   5.102  19.433  0.00  0.00    +0.000 OA
ATOM      2  P   UNL     1       5.150   4.705  19.068  0.00  0.00    +0.000 P 
ATOM      3  H   UNL     1       4.845   6.031  18.842  0.00  0.00    +0.000 HD
ENDROOT
BRANCH   2   4
ATOM      4  C   UNL     1       3.435   4.236  18.637  0.00  0.00    +0.000 A 
ATOM      5  C   UNL     1       2.622   4.981  17.816  0.00  0.00    +0.000 A 
ATOM      6  C   UNL     1       1.337   4.370  17.688  0.00  0.00    +0.000 A 
ATOM      7  C   UNL     1       1.243   3.202  18.419  0.00  0.00    +0.000 A 
ATOM      8  S   UNL     1       2.695   2.843  19.259  0.00  0.00    +0.000 S 
ENDBRANCH   2   4
BRANCH   2   9
ATOM      9  O   UNL     1       5.533   3.042  19.353  0.00  0.00    +0.000 OA
ATOM     10  H   UNL     1       6.349   3.067  19.897  0.00  0.00    +0.000 HD
ENDBRANCH   2   9
TORSDOF 2
ENDMDL
MODEL 5
REMARK VINA RESULT:      -4.0      1.061      1.061
REMARK  Name = 
REMARK  2 active torsions:
REMARK  status: ('A' for Active; 'I' for Inactive)
REMARK    1  A    between atoms: P_2  and  O_3
REMARK    2  A    between atoms: P_2  and  C_4
REMARK                            x       y       z     vdW  Elec       q    Type
REMARK                         _______ _______ _______ _____ _____    ______ ____
ROOT
ATOM      1  O   UNL     1       1.517   2.424  22.302  0.00  0.00    +0.000 OA
ATOM      2  P   UNL     1       2.153   3.132  21.081  0.00  0.00    +0.000 P 
ATOM      3  H   UNL     1       3.411   2.847  21.570  0.00  0.00    +0.000 HD
ENDROOT
BRANCH   2   4
ATOM      4  C   UNL     1       2.904   3.968  19.637  0.00  0.00    +0.000 A 
ATOM      5  C   UNL     1       2.233   4.863  18.837  0.00  0.00    +0.000 A 
ATOM      6  C   UNL     1       3.076   5.327  17.781  0.00  0.00    +0.000 A 
ATOM      7  C   UNL     1       4.333   4.758  17.833  0.00  0.00    +0.000 A 
ATOM      8  S   UNL     1       4.499   3.668  19.147  0.00  0.00    +0.000 S 
ENDBRANCH   2   4
BRANCH   2   9
ATOM      9  O   UNL     1       0.575   3.490  20.467  0.00  0.00    +0.000 OA
ATOM     10  H   UNL     1       0.634   3.298  19.508  0.00  0.00    +0.000 HD
ENDBRANCH   2   9
TORSDOF 2
ENDMDL
MODEL 6
REMARK VINA RESULT:      -4.0      3.493      4.029
REMARK  Name = 
REMARK  2 active torsions:
REMARK  status: ('A' for Active; 'I' for Inactive)
REMARK    1  A    between atoms: P_2  and  O_3
REMARK    2  A    between atoms: P_2  and  C_4
REMARK                            x       y       z     vdW  Elec       q    Type
REMARK                         _______ _______ _______ _____ _____    ______ ____
ROOT
ATOM      1  O   UNL     1       6.411   4.362  18.632  0.00  0.00    +0.000 OA
ATOM      2  P   UNL     1       4.962   4.184  19.147  0.00  0.00    +0.000 P 
ATOM      3  H   UNL     1       4.707   5.515  18.889  0.00  0.00    +0.000 HD
ENDROOT
BRANCH   2   4
ATOM      4  C   UNL     1       3.249   3.973  19.755  0.00  0.00    +0.000 A 
ATOM      5  C   UNL     1       2.704   2.759  20.100  0.00  0.00    +0.000 A 
ATOM      6  C   UNL     1       1.346   2.914  20.514  0.00  0.00    +0.000 A 
ATOM      7  C   UNL     1       0.934   4.231  20.457  0.00  0.00    +0.000 A 
ATOM      8  S   UNL     1       2.176   5.277  19.904  0.00  0.00    +0.000 S 
ENDBRANCH   2   4
BRANCH   2   9
ATOM      9  O   UNL     1       5.283   2.514  19.470  0.00  0.00    +0.000 OA
ATOM     10  H   UNL     1       6.135   2.517  19.955  0.00  0.00    +0.000 HD
ENDBRANCH   2   9
TORSDOF 2
ENDMDL
MODEL 7
REMARK VINA RESULT:      -4.0      5.378      5.852
REMARK  Name = 
REMARK  2 active torsions:
REMARK  status: ('A' for Active; 'I' for Inactive)
REMARK    1  A    between atoms: P_2  and  O_3
REMARK    2  A    between atoms: P_2  and  C_4
REMARK                            x       y       z     vdW  Elec       q    Type
REMARK                         _______ _______ _______ _____ _____    ______ ____
ROOT
ATOM      1  O   UNL     1       7.736   5.187  14.872  0.00  0.00    +0.000 OA
ATOM      2  P   UNL     1       6.717   5.003  16.023  0.00  0.00    +0.000 P 
ATOM      3  H   UNL     1       5.753   5.643  15.272  0.00  0.00    +0.000 HD
ENDROOT
BRANCH   2   4
ATOM      4  C   UNL     1       5.513   4.785  17.383  0.00  0.00    +0.000 A 
ATOM      5  C   UNL     1       5.576   5.463  18.577  0.00  0.00    +0.000 A 
ATOM      6  C   UNL     1       4.514   5.062  19.443  0.00  0.00    +0.000 A 
ATOM      7  C   UNL     1       3.707   4.102  18.865  0.00  0.00    +0.000 A 
ATOM      8  S   UNL     1       4.228   3.682  17.285  0.00  0.00    +0.000 S 
ENDBRANCH   2   4
BRANCH   2   9
ATOM      9  O   UNL     1       7.927   4.199  16.965  0.00  0.00    +0.000 OA
ATOM     10  H   UNL     1       8.777   4.540  16.616  0.00  0.00    +0.000 HD
ENDBRANCH   2   9
TORSDOF 2
ENDMDL
MODEL 8
REMARK VINA RESULT:      -4.0      3.562      4.082
REMARK  Name = 
REMARK  2 active torsions:
REMARK  status: ('A' for Active; 'I' for Inactive)
REMARK    1  A    between atoms: P_2  and  O_3
REMARK    2  A    between atoms: P_2  and  C_4
REMARK                            x       y       z     vdW  Elec       q    Type
REMARK                         _______ _______ _______ _____ _____    ______ ____
ROOT
ATOM      1  O   UNL     1       6.050   5.704  18.570  0.00  0.00    +0.000 OA
ATOM      2  P   UNL     1       4.750   5.007  19.038  0.00  0.00    +0.000 P 
ATOM      3  H   UNL     1       4.080   6.212  18.972  0.00  0.00    +0.000 HD
ENDROOT
BRANCH   2   4
ATOM      4  C   UNL     1       3.212   4.183  19.592  0.00  0.00    +0.000 A 
ATOM      5  C   UNL     1       2.280   4.773  20.411  0.00  0.00    +0.000 A 
ATOM      6  C   UNL     1       1.205   3.874  20.684  0.00  0.00    +0.000 A 
ATOM      7  C   UNL     1       1.380   2.652  20.063  0.00  0.00    +0.000 A 
ATOM      8  S   UNL     1       2.835   2.587  19.157  0.00  0.00    +0.000 S 
ENDBRANCH   2   4
BRANCH   2   9
ATOM      9  O   UNL     1       5.590   3.497  19.123  0.00  0.00    +0.000 OA
ATOM     10  H   UNL     1       6.426   3.706  19.590  0.00  0.00    +0.000 HD
ENDBRANCH   2   9
TORSDOF 2
ENDMDL
MODEL 9
REMARK VINA RESULT:      -3.9      3.273      3.689
REMARK  Name = 
REMARK  2 active torsions:
REMARK  status: ('A' for Active; 'I' for Inactive)
REMARK    1  A    between atoms: P_2  and  O_3
REMARK    2  A    between atoms: P_2  and  C_4
REMARK                            x       y       z     vdW  Elec       q    Type
REMARK                         _______ _______ _______ _____ _____    ______ ____
ROOT
ATOM      1  O   UNL     1       6.234   4.573  19.036  0.00  0.00    +0.000 OA
ATOM      2  P   UNL     1       4.768   4.078  19.093  0.00  0.00    +0.000 P 
ATOM      3  H   UNL     1       5.152   2.876  18.534  0.00  0.00    +0.000 HD
ENDROOT
BRANCH   2   4
ATOM      4  C   UNL     1       3.036   3.493  19.160  0.00  0.00    +0.000 A 
ATOM      5  C   UNL     1       2.128   3.898  20.109  0.00  0.00    +0.000 A 
ATOM      6  C   UNL     1       0.869   3.251  19.914  0.00  0.00    +0.000 A 
ATOM      7  C   UNL     1       0.891   2.390  18.834  0.00  0.00    +0.000 A 
ATOM      8  S   UNL     1       2.422   2.358  18.060  0.00  0.00    +0.000 S 
ENDBRANCH   2   4
BRANCH   2   9
ATOM      9  O   UNL     1       4.287   5.585  19.794  0.00  0.00    +0.000 OA
ATOM     10  H   UNL     1       4.996   5.795  20.438  0.00  0.00    +0.000 HD
ENDBRANCH   2   9
TORSDOF 2
ENDMDL
