MODEL 1
REMARK VINA RESULT:      -7.5      0.000      0.000
REMARK  Name = 
REMARK  6 active torsions:
REMARK  status: ('A' for Active; 'I' for Inactive)
REMARK    1  A    between atoms: C_1  and  N_2
REMARK    2  A    between atoms: N_2  and  C_3
REMARK    3  A    between atoms: C_3  and  C_4
REMARK    4  A    between atoms: N_7  and  C_8
REMARK    5  A    between atoms: N_12  and  C_13
REMARK    6  A    between atoms: C_13  and  C_14
REMARK                            x       y       z     vdW  Elec       q    Type
REMARK                         _______ _______ _______ _____ _____    ______ ____
ROOT
ATOM      1  C   UNL     1       1.385   4.012  20.016  0.00  0.00    +0.000 C 
ATOM      2  N   UNL     1       2.590   4.535  19.396  0.00  0.00    +0.000 N 
ATOM      3  C   UNL     1       3.048   3.853  18.291  0.00  0.00    +0.000 C 
ATOM      4  O   UNL     1       2.485   2.840  17.874  0.00  0.00    +0.000 OA
ATOM      5  N   UNL     1       4.137   4.358  17.646  0.00  0.00    +0.000 N 
ATOM      6  H   UNL     1       4.744   5.048  18.070  0.00  0.00    +0.000 HD
ENDROOT
BRANCH   2   7
ATOM      7  C   UNL     1       3.142   5.779  19.935  0.00  0.00    +0.000 C 
BRANCH   7   8
ATOM      8  C   UNL     1       2.506   7.008  19.352  0.00  0.00    +0.000 A 
ATOM      9  C   UNL     1       2.451   7.466  18.011  0.00  0.00    +0.000 A 
ATOM     10  C   UNL     1       1.742   8.646  18.054  0.00  0.00    +0.000 A 
ATOM     11  N   UNL     1       1.417   8.833  19.364  0.00  0.00    +0.000 N 
ATOM     12  C   UNL     1       0.664   9.932  19.926  0.00  0.00    +0.000 C 
ATOM     13  N   UNL     1       1.870   7.862  20.175  0.00  0.00    +0.000 NA
ENDBRANCH   7   8
ENDBRANCH   2   7
BRANCH   5  14
ATOM     14  C   UNL     1       4.641   3.642  16.497  0.00  0.00    +0.000 C 
BRANCH  14  15
ATOM     15  C   UNL     1       5.729   4.359  15.781  0.00  0.00    +0.000 A 
ATOM     16  N   UNL     1       6.491   5.297  16.368  0.00  0.00    +0.000 NA
ATOM     17  O   UNL     1       7.381   5.722  15.391  0.00  0.00    +0.000 OA
ATOM     18  C   UNL     1       7.155   5.037  14.237  0.00  0.00    +0.000 A 
ATOM     19  C   UNL     1       7.850   5.183  13.036  0.00  0.00    +0.000 A 
ATOM     20  C   UNL     1       7.437   4.361  11.981  0.00  0.00    +0.000 A 
ATOM     21  C   UNL     1       6.387   3.458  12.149  0.00  0.00    +0.000 A 
ATOM     22  F   UNL     1       6.020   2.687  11.116  0.00  0.00    +0.000 F 
ATOM     23  C   UNL     1       5.706   3.331  13.362  0.00  0.00    +0.000 A 
ATOM     24  C   UNL     1       6.112   4.151  14.428  0.00  0.00    +0.000 A 
ENDBRANCH  14  15
ENDBRANCH   5  14
TORSDOF 4
ENDMDL
MODEL 2
REMARK VINA RESULT:      -7.4      0.675      1.001
REMARK  Name = 
REMARK  6 active torsions:
REMARK  status: ('A' for Active; 'I' for Inactive)
REMARK    1  A    between atoms: C_1  and  N_2
REMARK    2  A    between atoms: N_2  and  C_3
REMARK    3  A    between atoms: C_3  and  C_4
REMARK    4  A    between atoms: N_7  and  C_8
REMARK    5  A    between atoms: N_12  and  C_13
REMARK    6  A    between atoms: C_13  and  C_14
REMARK                            x       y       z     vdW  Elec       q    Type
REMARK                         _______ _______ _______ _____ _____    ______ ____
ROOT
ATOM      1  C   UNL     1       1.065   4.206  19.960  0.00  0.00    +0.000 C 
ATOM      2  N   UNL     1       2.368   4.604  19.455  0.00  0.00    +0.000 N 
ATOM      3  C   UNL     1       2.810   3.941  18.332  0.00  0.00    +0.000 C 
ATOM      4  O   UNL     1       2.152   3.042  17.807  0.00  0.00    +0.000 OA
ATOM      5  N   UNL     1       3.997   4.338  17.793  0.00  0.00    +0.000 N 
ATOM      6  H   UNL     1       4.657   4.912  18.304  0.00  0.00    +0.000 HD
ENDROOT
BRANCH   2   7
ATOM      7  C   UNL     1       3.036   5.725  20.117  0.00  0.00    +0.000 C 
BRANCH   7   8
ATOM      8  C   UNL     1       2.305   7.026  19.958  0.00  0.00    +0.000 A 
ATOM      9  C   UNL     1       1.480   7.733  20.869  0.00  0.00    +0.000 A 
ATOM     10  C   UNL     1       1.075   8.865  20.196  0.00  0.00    +0.000 A 
ATOM     11  N   UNL     1       1.653   8.789  18.965  0.00  0.00    +0.000 N 
ATOM     12  C   UNL     1       1.538   9.746  17.888  0.00  0.00    +0.000 C 
ATOM     13  N   UNL     1       2.399   7.684  18.788  0.00  0.00    +0.000 NA
ENDBRANCH   7   8
ENDBRANCH   2   7
BRANCH   5  14
ATOM     14  C   UNL     1       4.484   3.638  16.627  0.00  0.00    +0.000 C 
BRANCH  14  15
ATOM     15  C   UNL     1       5.592   4.344  15.930  0.00  0.00    +0.000 A 
ATOM     16  N   UNL     1       6.367   5.258  16.537  0.00  0.00    +0.000 NA
ATOM     17  O   UNL     1       7.273   5.680  15.573  0.00  0.00    +0.000 OA
ATOM     18  C   UNL     1       7.043   5.018  14.407  0.00  0.00    +0.000 A 
ATOM     19  C   UNL     1       7.749   5.168  13.214  0.00  0.00    +0.000 A 
ATOM     20  C   UNL     1       7.329   4.370  12.143  0.00  0.00    +0.000 A 
ATOM     21  C   UNL     1       6.261   3.486  12.289  0.00  0.00    +0.000 A 
ATOM     22  F   UNL     1       5.886   2.737  11.243  0.00  0.00    +0.000 F 
ATOM     23  C   UNL     1       5.567   3.354  13.495  0.00  0.00    +0.000 A 
ATOM     24  C   UNL     1       5.980   4.149  14.577  0.00  0.00    +0.000 A 
ENDBRANCH  14  15
ENDBRANCH   5  14
TORSDOF 4
ENDMDL
MODEL 3
REMARK VINA RESULT:      -7.4      3.191      3.906
REMARK  Name = 
REMARK  6 active torsions:
REMARK  status: ('A' for Active; 'I' for Inactive)
REMARK    1  A    between atoms: C_1  and  N_2
REMARK    2  A    between atoms: N_2  and  C_3
REMARK    3  A    between atoms: C_3  and  C_4
REMARK    4  A    between atoms: N_7  and  C_8
REMARK    5  A    between atoms: N_12  and  C_13
REMARK    6  A    between atoms: C_13  and  C_14
REMARK                            x       y       z     vdW  Elec       q    Type
REMARK                         _______ _______ _______ _____ _____    ______ ____
ROOT
ATOM      1  C   UNL     1       2.532   2.819  21.652  0.00  0.00    +0.000 C 
ATOM      2  N   UNL     1       2.408   3.433  20.341  0.00  0.00    +0.000 N 
ATOM      3  C   UNL     1       3.371   3.090  19.419  0.00  0.00    +0.000 C 
ATOM      4  O   UNL     1       4.299   2.332  19.701  0.00  0.00    +0.000 OA
ATOM      5  N   UNL     1       3.245   3.594  18.159  0.00  0.00    +0.000 N 
ATOM      6  H   UNL     1       2.633   4.373  17.948  0.00  0.00    +0.000 HD
ENDROOT
BRANCH   2   7
ATOM      7  C   UNL     1       1.232   4.268  20.094  0.00  0.00    +0.000 C 
BRANCH   7   8
ATOM      8  C   UNL     1       1.563   5.726  19.948  0.00  0.00    +0.000 A 
ATOM      9  C   UNL     1       1.429   6.795  20.870  0.00  0.00    +0.000 A 
ATOM     10  C   UNL     1       1.886   7.912  20.206  0.00  0.00    +0.000 A 
ATOM     11  N   UNL     1       2.258   7.480  18.969  0.00  0.00    +0.000 N 
ATOM     12  C   UNL     1       2.810   8.277  17.897  0.00  0.00    +0.000 C 
ATOM     13  N   UNL     1       2.069   6.162  18.780  0.00  0.00    +0.000 NA
ENDBRANCH   7   8
ENDBRANCH   2   7
BRANCH   5  14
ATOM     14  C   UNL     1       4.258   3.260  17.186  0.00  0.00    +0.000 C 
BRANCH  14  15
ATOM     15  C   UNL     1       5.097   4.418  16.780  0.00  0.00    +0.000 A 
ATOM     16  N   UNL     1       5.015   4.983  15.563  0.00  0.00    +0.000 NA
ATOM     17  O   UNL     1       5.939   6.021  15.570  0.00  0.00    +0.000 OA
ATOM     18  C   UNL     1       6.557   6.076  16.781  0.00  0.00    +0.000 A 
ATOM     19  C   UNL     1       7.541   6.984  17.170  0.00  0.00    +0.000 A 
ATOM     20  C   UNL     1       8.028   6.846  18.476  0.00  0.00    +0.000 A 
ATOM     21  C   UNL     1       7.539   5.846  19.316  0.00  0.00    +0.000 A 
ATOM     22  F   UNL     1       8.028   5.744  20.560  0.00  0.00    +0.000 F 
ATOM     23  C   UNL     1       6.553   4.946  18.903  0.00  0.00    +0.000 A 
ATOM     24  C   UNL     1       6.057   5.076  17.595  0.00  0.00    +0.000 A 
ENDBRANCH  14  15
ENDBRANCH   5  14
TORSDOF 4
ENDMDL
MODEL 4
REMARK VINA RESULT:      -7.3      4.046      8.260
REMARK  Name = 
REMARK  6 active torsions:
REMARK  status: ('A' for Active; 'I' for Inactive)
REMARK    1  A    between atoms: C_1  and  N_2
REMARK    2  A    between atoms: N_2  and  C_3
REMARK    3  A    between atoms: C_3  and  C_4
REMARK    4  A    between atoms: N_7  and  C_8
REMARK    5  A    between atoms: N_12  and  C_13
REMARK    6  A    between atoms: C_13  and  C_14
REMARK                            x       y       z     vdW  Elec       q    Type
REMARK                         _______ _______ _______ _____ _____    ______ ____
ROOT
ATOM      1  C   UNL     1       3.296   2.440  18.337  0.00  0.00    +0.000 C 
ATOM      2  N   UNL     1       3.633   3.755  18.855  0.00  0.00    +0.000 N 
ATOM      3  C   UNL     1       2.635   4.409  19.542  0.00  0.00    +0.000 C 
ATOM      4  O   UNL     1       1.514   3.919  19.681  0.00  0.00    +0.000 OA
ATOM      5  N   UNL     1       2.940   5.615  20.098  0.00  0.00    +0.000 N 
ATOM      6  H   UNL     1       3.763   6.140  19.832  0.00  0.00    +0.000 HD
ENDROOT
BRANCH   2   7
ATOM      7  C   UNL     1       5.012   4.215  18.687  0.00  0.00    +0.000 C 
BRANCH   7   8
ATOM      8  C   UNL     1       5.256   4.880  17.363  0.00  0.00    +0.000 A 
ATOM      9  C   UNL     1       4.739   6.091  16.834  0.00  0.00    +0.000 A 
ATOM     10  C   UNL     1       5.301   6.215  15.583  0.00  0.00    +0.000 A 
ATOM     11  N   UNL     1       6.097   5.120  15.425  0.00  0.00    +0.000 N 
ATOM     12  C   UNL     1       6.910   4.792  14.276  0.00  0.00    +0.000 C 
ATOM     13  N   UNL     1       6.086   4.290  16.484  0.00  0.00    +0.000 NA
ENDBRANCH   7   8
ENDBRANCH   2   7
BRANCH   5  14
ATOM     14  C   UNL     1       1.897   6.323  20.805  0.00  0.00    +0.000 C 
BRANCH  14  15
ATOM     15  C   UNL     1       1.624   7.678  20.259  0.00  0.00    +0.000 A 
ATOM     16  N   UNL     1       2.067   8.080  19.056  0.00  0.00    +0.000 NA
ATOM     17  O   UNL     1       1.612   9.384  18.905  0.00  0.00    +0.000 OA
ATOM     18  C   UNL     1       0.898   9.749  20.005  0.00  0.00    +0.000 A 
ATOM     19  C   UNL     1       0.279  10.980  20.221  0.00  0.00    +0.000 A 
ATOM     20  C   UNL     1      -0.404  11.123  21.434  0.00  0.00    +0.000 A 
ATOM     21  C   UNL     1      -0.447  10.077  22.356  0.00  0.00    +0.000 A 
ATOM     22  F   UNL     1      -1.112  10.249  23.506  0.00  0.00    +0.000 F 
ATOM     23  C   UNL     1       0.182   8.852  22.117  0.00  0.00    +0.000 A 
ATOM     24  C   UNL     1       0.871   8.697  20.902  0.00  0.00    +0.000 A 
ENDBRANCH  14  15
ENDBRANCH   5  14
TORSDOF 4
ENDMDL
MODEL 5
REMARK VINA RESULT:      -7.1      3.403      7.510
REMARK  Name = 
REMARK  6 active torsions:
REMARK  status: ('A' for Active; 'I' for Inactive)
REMARK    1  A    between atoms: C_1  and  N_2
REMARK    2  A    between atoms: N_2  and  C_3
REMARK    3  A    between atoms: C_3  and  C_4
REMARK    4  A    between atoms: N_7  and  C_8
REMARK    5  A    between atoms: N_12  and  C_13
REMARK    6  A    between atoms: C_13  and  C_14
REMARK                            x       y       z     vdW  Elec       q    Type
REMARK                         _______ _______ _______ _____ _____    ______ ____
ROOT
ATOM      1  C   UNL     1       7.863   4.986  18.493  0.00  0.00    +0.000 C 
ATOM      2  N   UNL     1       6.815   5.663  17.748  0.00  0.00    +0.000 N 
ATOM      3  C   UNL     1       5.623   5.846  18.413  0.00  0.00    +0.000 C 
ATOM      4  O   UNL     1       5.447   5.432  19.559  0.00  0.00    +0.000 OA
ATOM      5  N   UNL     1       4.642   6.538  17.767  0.00  0.00    +0.000 N 
ATOM      6  H   UNL     1       4.667   6.705  16.768  0.00  0.00    +0.000 HD
ENDROOT
BRANCH   2   7
ATOM      7  C   UNL     1       7.150   6.168  16.417  0.00  0.00    +0.000 C 
BRANCH   7   8
ATOM      8  C   UNL     1       6.778   5.220  15.314  0.00  0.00    +0.000 A 
ATOM      9  C   UNL     1       5.834   4.162  15.291  0.00  0.00    +0.000 A 
ATOM     10  C   UNL     1       5.908   3.630  14.023  0.00  0.00    +0.000 A 
ATOM     11  N   UNL     1       6.851   4.364  13.369  0.00  0.00    +0.000 N 
ATOM     12  C   UNL     1       7.289   4.200  12.001  0.00  0.00    +0.000 C 
ATOM     13  N   UNL     1       7.400   5.331  14.126  0.00  0.00    +0.000 NA
ENDBRANCH   7   8
ENDBRANCH   2   7
BRANCH   5  14
ATOM     14  C   UNL     1       3.379   6.721  18.443  0.00  0.00    +0.000 C 
BRANCH  14  15
ATOM     15  C   UNL     1       2.478   5.542  18.349  0.00  0.00    +0.000 A 
ATOM     16  N   UNL     1       1.854   5.193  17.212  0.00  0.00    +0.000 NA
ATOM     17  O   UNL     1       1.120   4.055  17.522  0.00  0.00    +0.000 OA
ATOM     18  C   UNL     1       1.314   3.727  18.828  0.00  0.00    +0.000 A 
ATOM     19  C   UNL     1       0.749   2.646  19.504  0.00  0.00    +0.000 A 
ATOM     20  C   UNL     1       1.101   2.510  20.852  0.00  0.00    +0.000 A 
ATOM     21  C   UNL     1       1.968   3.418  21.458  0.00  0.00    +0.000 A 
ATOM     22  F   UNL     1       2.284   3.256  22.750  0.00  0.00    +0.000 F 
ATOM     23  C   UNL     1       2.521   4.494  20.760  0.00  0.00    +0.000 A 
ATOM     24  C   UNL     1       2.175   4.642  19.406  0.00  0.00    +0.000 A 
ENDBRANCH  14  15
ENDBRANCH   5  14
TORSDOF 4
ENDMDL
MODEL 6
REMARK VINA RESULT:      -7.0      4.775      7.136
REMARK  Name = 
REMARK  6 active torsions:
REMARK  status: ('A' for Active; 'I' for Inactive)
REMARK    1  A    between atoms: C_1  and  N_2
REMARK    2  A    between atoms: N_2  and  C_3
REMARK    3  A    between atoms: C_3  and  C_4
REMARK    4  A    between atoms: N_7  and  C_8
REMARK    5  A    between atoms: N_12  and  C_13
REMARK    6  A    between atoms: C_13  and  C_14
REMARK                            x       y       z     vdW  Elec       q    Type
REMARK                         _______ _______ _______ _____ _____    ______ ____
ROOT
ATOM      1  C   UNL     1      -0.225  12.347  21.609  0.00  0.00    +0.000 C 
ATOM      2  N   UNL     1       0.272  11.383  20.641  0.00  0.00    +0.000 N 
ATOM      3  C   UNL     1       0.749  10.200  21.157  0.00  0.00    +0.000 C 
ATOM      4  O   UNL     1       0.782   9.985  22.369  0.00  0.00    +0.000 OA
ATOM      5  N   UNL     1       1.159   9.247  20.272  0.00  0.00    +0.000 N 
ATOM      6  H   UNL     1       1.346   9.459  19.300  0.00  0.00    +0.000 HD
ENDROOT
BRANCH   2   7
ATOM      7  C   UNL     1       0.128  11.714  19.223  0.00  0.00    +0.000 C 
BRANCH   7   8
ATOM      8  C   UNL     1      -1.162  11.226  18.630  0.00  0.00    +0.000 A 
ATOM      9  C   UNL     1      -1.424  10.114  17.790  0.00  0.00    +0.000 A 
ATOM     10  C   UNL     1      -2.780  10.143  17.554  0.00  0.00    +0.000 A 
ATOM     11  N   UNL     1      -3.251  11.224  18.236  0.00  0.00    +0.000 N 
ATOM     12  C   UNL     1      -4.621  11.680  18.309  0.00  0.00    +0.000 C 
ATOM     13  N   UNL     1      -2.295  11.904  18.893  0.00  0.00    +0.000 NA
ENDBRANCH   7   8
ENDBRANCH   2   7
BRANCH   5  14
ATOM     14  C   UNL     1       1.682   8.008  20.798  0.00  0.00    +0.000 C 
BRANCH  14  15
ATOM     15  C   UNL     1       2.092   7.041  19.745  0.00  0.00    +0.000 A 
ATOM     16  N   UNL     1       2.673   7.422  18.596  0.00  0.00    +0.000 NA
ATOM     17  O   UNL     1       2.904   6.250  17.887  0.00  0.00    +0.000 OA
ATOM     18  C   UNL     1       2.471   5.184  18.612  0.00  0.00    +0.000 A 
ATOM     19  C   UNL     1       2.536   3.843  18.235  0.00  0.00    +0.000 A 
ATOM     20  C   UNL     1       2.026   2.918  19.154  0.00  0.00    +0.000 A 
ATOM     21  C   UNL     1       1.490   3.342  20.369  0.00  0.00    +0.000 A 
ATOM     22  F   UNL     1       1.013   2.428  21.226  0.00  0.00    +0.000 F 
ATOM     23  C   UNL     1       1.436   4.692  20.725  0.00  0.00    +0.000 A 
ATOM     24  C   UNL     1       1.944   5.630  19.810  0.00  0.00    +0.000 A 
ENDBRANCH  14  15
ENDBRANCH   5  14
TORSDOF 4
ENDMDL
MODEL 7
REMARK VINA RESULT:      -7.0      3.887      7.572
REMARK  Name = 
REMARK  6 active torsions:
REMARK  status: ('A' for Active; 'I' for Inactive)
REMARK    1  A    between atoms: C_1  and  N_2
REMARK    2  A    between atoms: N_2  and  C_3
REMARK    3  A    between atoms: C_3  and  C_4
REMARK    4  A    between atoms: N_7  and  C_8
REMARK    5  A    between atoms: N_12  and  C_13
REMARK    6  A    between atoms: C_13  and  C_14
REMARK                            x       y       z     vdW  Elec       q    Type
REMARK                         _______ _______ _______ _____ _____    ______ ____
ROOT
ATOM      1  C   UNL     1       7.115   4.664  17.123  0.00  0.00    +0.000 C 
ATOM      2  N   UNL     1       5.672   4.799  17.226  0.00  0.00    +0.000 N 
ATOM      3  C   UNL     1       5.193   6.083  17.359  0.00  0.00    +0.000 C 
ATOM      4  O   UNL     1       5.946   7.055  17.419  0.00  0.00    +0.000 OA
ATOM      5  N   UNL     1       3.840   6.251  17.390  0.00  0.00    +0.000 N 
ATOM      6  H   UNL     1       3.204   5.480  17.557  0.00  0.00    +0.000 HD
ENDROOT
BRANCH   2   7
ATOM      7  C   UNL     1       4.867   3.586  17.081  0.00  0.00    +0.000 C 
BRANCH   7   8
ATOM      8  C   UNL     1       4.051   3.268  18.301  0.00  0.00    +0.000 A 
ATOM      9  C   UNL     1       4.459   2.871  19.601  0.00  0.00    +0.000 A 
ATOM     10  C   UNL     1       3.294   2.717  20.320  0.00  0.00    +0.000 A 
ATOM     11  N   UNL     1       2.284   3.018  19.456  0.00  0.00    +0.000 N 
ATOM     12  C   UNL     1       0.866   3.010  19.737  0.00  0.00    +0.000 C 
ATOM     13  N   UNL     1       2.710   3.350  18.225  0.00  0.00    +0.000 NA
ENDBRANCH   7   8
ENDBRANCH   2   7
BRANCH   5  14
ATOM     14  C   UNL     1       3.323   7.590  17.550  0.00  0.00    +0.000 C 
BRANCH  14  15
ATOM     15  C   UNL     1       2.489   7.763  18.769  0.00  0.00    +0.000 A 
ATOM     16  N   UNL     1       2.453   6.856  19.759  0.00  0.00    +0.000 NA
ATOM     17  O   UNL     1       1.577   7.371  20.706  0.00  0.00    +0.000 OA
ATOM     18  C   UNL     1       1.104   8.575  20.285  0.00  0.00    +0.000 A 
ATOM     19  C   UNL     1       0.207   9.398  20.966  0.00  0.00    +0.000 A 
ATOM     20  C   UNL     1      -0.133  10.599  20.331  0.00  0.00    +0.000 A 
ATOM     21  C   UNL     1       0.409  10.927  19.089  0.00  0.00    +0.000 A 
ATOM     22  F   UNL     1       0.062  12.085  18.512  0.00  0.00    +0.000 F 
ATOM     23  C   UNL     1       1.306  10.085  18.426  0.00  0.00    +0.000 A 
ATOM     24  C   UNL     1       1.655   8.877  19.053  0.00  0.00    +0.000 A 
ENDBRANCH  14  15
ENDBRANCH   5  14
TORSDOF 4
ENDMDL
MODEL 8
REMARK VINA RESULT:      -7.0      4.541      7.987
REMARK  Name = 
REMARK  6 active torsions:
REMARK  status: ('A' for Active; 'I' for Inactive)
REMARK    1  A    between atoms: C_1  and  N_2
REMARK    2  A    between atoms: N_2  and  C_3
REMARK    3  A    between atoms: C_3  and  C_4
REMARK    4  A    between atoms: N_7  and  C_8
REMARK    5  A    between atoms: N_12  and  C_13
REMARK    6  A    between atoms: C_13  and  C_14
REMARK                            x       y       z     vdW  Elec       q    Type
REMARK                         _______ _______ _______ _____ _____    ______ ____
ROOT
ATOM      1  C   UNL     1       3.591   2.194  18.638  0.00  0.00    +0.000 C 
ATOM      2  N   UNL     1       3.822   3.518  19.190  0.00  0.00    +0.000 N 
ATOM      3  C   UNL     1       2.717   4.163  19.698  0.00  0.00    +0.000 C 
ATOM      4  O   UNL     1       1.594   3.659  19.657  0.00  0.00    +0.000 OA
ATOM      5  N   UNL     1       2.911   5.378  20.284  0.00  0.00    +0.000 N 
ATOM      6  H   UNL     1       3.760   5.913  20.151  0.00  0.00    +0.000 HD
ENDROOT
BRANCH   2   7
ATOM      7  C   UNL     1       5.204   3.996  19.245  0.00  0.00    +0.000 C 
BRANCH   7   8
ATOM      8  C   UNL     1       5.492   5.087  18.254  0.00  0.00    +0.000 A 
ATOM      9  C   UNL     1       4.837   5.423  17.042  0.00  0.00    +0.000 A 
ATOM     10  C   UNL     1       5.521   6.510  16.544  0.00  0.00    +0.000 A 
ATOM     11  N   UNL     1       6.512   6.766  17.443  0.00  0.00    +0.000 N 
ATOM     12  C   UNL     1       7.501   7.818  17.374  0.00  0.00    +0.000 C 
ATOM     13  N   UNL     1       6.524   5.918  18.487  0.00  0.00    +0.000 NA
ENDBRANCH   7   8
ENDBRANCH   2   7
BRANCH   5  14
ATOM     14  C   UNL     1       1.758   6.076  20.804  0.00  0.00    +0.000 C 
BRANCH  14  15
ATOM     15  C   UNL     1       1.616   7.461  20.280  0.00  0.00    +0.000 A 
ATOM     16  N   UNL     1       2.137   7.849  19.104  0.00  0.00    +0.000 NA
ATOM     17  O   UNL     1       1.794   9.188  18.967  0.00  0.00    +0.000 OA
ATOM     18  C   UNL     1       1.070   9.588  20.048  0.00  0.00    +0.000 A 
ATOM     19  C   UNL     1       0.544  10.861  20.270  0.00  0.00    +0.000 A 
ATOM     20  C   UNL     1      -0.173  11.033  21.460  0.00  0.00    +0.000 A 
ATOM     21  C   UNL     1      -0.335   9.976  22.354  0.00  0.00    +0.000 A 
ATOM     22  F   UNL     1      -1.028  10.178  23.483  0.00  0.00    +0.000 F 
ATOM     23  C   UNL     1       0.202   8.709  22.110  0.00  0.00    +0.000 A 
ATOM     24  C   UNL     1       0.924   8.524  20.919  0.00  0.00    +0.000 A 
ENDBRANCH  14  15
ENDBRANCH   5  14
TORSDOF 4
ENDMDL
MODEL 9
REMARK VINA RESULT:      -7.0      4.222      7.621
REMARK  Name = 
REMARK  6 active torsions:
REMARK  status: ('A' for Active; 'I' for Inactive)
REMARK    1  A    between atoms: C_1  and  N_2
REMARK    2  A    between atoms: N_2  and  C_3
REMARK    3  A    between atoms: C_3  and  C_4
REMARK    4  A    between atoms: N_7  and  C_8
REMARK    5  A    between atoms: N_12  and  C_13
REMARK    6  A    between atoms: C_13  and  C_14
REMARK                            x       y       z     vdW  Elec       q    Type
REMARK                         _______ _______ _______ _____ _____    ______ ____
ROOT
ATOM      1  C   UNL     1       1.977   2.046  19.436  0.00  0.00    +0.000 C 
ATOM      2  N   UNL     1       2.703   3.281  19.678  0.00  0.00    +0.000 N 
ATOM      3  C   UNL     1       1.957   4.341  20.143  0.00  0.00    +0.000 C 
ATOM      4  O   UNL     1       0.740   4.253  20.314  0.00  0.00    +0.000 OA
ATOM      5  N   UNL     1       2.619   5.493  20.444  0.00  0.00    +0.000 N 
ATOM      6  H   UNL     1       3.562   5.674  20.123  0.00  0.00    +0.000 HD
ENDROOT
BRANCH   2   7
ATOM      7  C   UNL     1       4.155   3.257  19.502  0.00  0.00    +0.000 C 
BRANCH   7   8
ATOM      8  C   UNL     1       4.620   4.048  18.313  0.00  0.00    +0.000 A 
ATOM      9  C   UNL     1       4.548   3.753  16.928  0.00  0.00    +0.000 A 
ATOM     10  C   UNL     1       5.125   4.830  16.292  0.00  0.00    +0.000 A 
ATOM     11  N   UNL     1       5.500   5.686  17.283  0.00  0.00    +0.000 N 
ATOM     12  C   UNL     1       6.147   6.969  17.127  0.00  0.00    +0.000 C 
ATOM     13  N   UNL     1       5.213   5.239  18.518  0.00  0.00    +0.000 NA
ENDBRANCH   7   8
ENDBRANCH   2   7
BRANCH   5  14
ATOM     14  C   UNL     1       1.847   6.620  20.914  0.00  0.00    +0.000 C 
BRANCH  14  15
ATOM     15  C   UNL     1       1.779   7.741  19.940  0.00  0.00    +0.000 A 
ATOM     16  N   UNL     1       2.434   7.725  18.766  0.00  0.00    +0.000 NA
ATOM     17  O   UNL     1       2.122   8.929  18.147  0.00  0.00    +0.000 OA
ATOM     18  C   UNL     1       1.284   9.649  18.942  0.00  0.00    +0.000 A 
ATOM     19  C   UNL     1       0.750  10.906  18.660  0.00  0.00    +0.000 A 
ATOM     20  C   UNL     1      -0.095  11.450  19.635  0.00  0.00    +0.000 A 
ATOM     21  C   UNL     1      -0.368  10.753  20.811  0.00  0.00    +0.000 A 
ATOM     22  F   UNL     1      -1.182  11.304  21.722  0.00  0.00    +0.000 F 
ATOM     23  C   UNL     1       0.180   9.494  21.071  0.00  0.00    +0.000 A 
ATOM     24  C   UNL     1       1.030   8.938  20.100  0.00  0.00    +0.000 A 
ENDBRANCH  14  15
ENDBRANCH   5  14
TORSDOF 4
ENDMDL
