MODEL 1
REMARK VINA RESULT:      -7.5      0.000      0.000
REMARK  Name = 
REMARK  9 active torsions:
REMARK  status: ('A' for Active; 'I' for Inactive)
REMARK    1  A    between atoms: C_1  and  C_2
REMARK    2  A    between atoms: C_5  and  S_6
REMARK    3  A    between atoms: S_6  and  N_9
REMARK    4  A    between atoms: C_11  and  C_12
REMARK    5  A    between atoms: C_15  and  C_16
REMARK    6  A    between atoms: N_18  and  CA_19
REMARK    7  A    between atoms: CA_19  and  C_20
REMARK    8  A    between atoms: CA_19  and  CB_22
REMARK    9  A    between atoms: CB_22  and  CG_23
REMARK                            x       y       z     vdW  Elec       q    Type
REMARK                         _______ _______ _______ _____ _____    ______ ____
ROOT
ATOM      1  N   UNK A   0       0.422   9.364  19.685  0.00  0.00    +0.000 NA
ATOM      2  C   UNK A   0      -0.704   8.979  20.555  0.00  0.00    +0.000 C 
ATOM      3  C   UNK A   0      -0.090   8.269  21.752  0.00  0.00    +0.000 C 
ATOM      4  C   UNK A   0       1.229   7.731  21.229  0.00  0.00    +0.000 C 
ATOM      5  C   UNK A   0       1.669   8.656  20.068  0.00  0.00    +0.000 C 
ENDROOT
BRANCH   5   6
ATOM      6  C   UNK A   0       2.290   7.769  18.962  0.00  0.00    +0.000 C 
ATOM      7  O   UNK A   0       2.694   8.236  17.892  0.00  0.00    +0.000 OA
ATOM      8  N   PHE A   1       2.332   6.413  19.168  0.00  0.00    +0.000 N 
ATOM      9  H   PHE A   1       1.986   6.023  20.047  0.00  0.00    +0.000 HD
BRANCH   8  10
ATOM     10  CA  PHE A   1       2.844   5.519  18.124  0.00  0.00    +0.000 C 
BRANCH  10  11
ATOM     11  C   PHE A   1       1.790   4.494  17.702  0.00  0.00    +0.000 C 
ATOM     12  O   PHE A   1       2.034   3.407  17.182  0.00  0.00    +0.000 OA
ENDBRANCH  10  11
BRANCH  10  13
ATOM     13  CB  PHE A   1       4.077   4.720  18.550  0.00  0.00    +0.000 C 
BRANCH  13  14
ATOM     14  CG  PHE A   1       5.402   5.410  18.357  0.00  0.00    +0.000 A 
ATOM     15  CD1 PHE A   1       5.538   6.349  17.325  0.00  0.00    +0.000 A 
ATOM     16  CE1 PHE A   1       6.705   7.098  17.193  0.00  0.00    +0.000 A 
ATOM     17  CZ  PHE A   1       7.751   6.915  18.093  0.00  0.00    +0.000 A 
ATOM     18  CE2 PHE A   1       7.645   5.959  19.101  0.00  0.00    +0.000 A 
ATOM     19  CD2 PHE A   1       6.479   5.200  19.228  0.00  0.00    +0.000 A 
ENDBRANCH  13  14
ENDBRANCH  10  13
ENDBRANCH   8  10
ENDBRANCH   5   6
BRANCH   1  20
ATOM     20  S   UNK A   0       0.424  10.884  18.975  0.00  0.00    +0.000 S 
ATOM     21  O   UNK A   0       1.279  10.802  17.812  0.00  0.00    +0.000 OA
ATOM     22  O   UNK A   0       0.678  11.846  20.031  0.00  0.00    +0.000 OA
BRANCH  20  27
ATOM     23  C   UNK A   0      -5.474  11.334  17.501  0.00  0.00    +0.000 C 
ATOM     24  C   UNK A   0      -3.991  11.308  17.748  0.00  0.00    +0.000 A 
ATOM     25  C   UNK A   0      -3.126  10.498  16.995  0.00  0.00    +0.000 A 
ATOM     26  C   UNK A   0      -1.756  10.419  17.305  0.00  0.00    +0.000 A 
ATOM     27  C   UNK A   0      -1.239  11.176  18.363  0.00  0.00    +0.000 A 
ATOM     28  C   UNK A   0      -2.098  12.000  19.105  0.00  0.00    +0.000 A 
ATOM     29  C   UNK A   0      -3.462  12.058  18.804  0.00  0.00    +0.000 A 
ENDBRANCH  20  27
ENDBRANCH   1  20
BRANCH   3  30
ATOM     30  C   UNK A   0       0.118   9.135  22.915  0.00  0.00    +0.000 C 
ATOM     31  N   UNK A   0       0.311   9.866  23.789  0.00  0.00    +0.000 NA
ENDBRANCH   3  30
TORSDOF 8
ENDMDL
MODEL 2
REMARK VINA RESULT:      -7.4      4.069      8.792
REMARK  Name = 
REMARK  9 active torsions:
REMARK  status: ('A' for Active; 'I' for Inactive)
REMARK    1  A    between atoms: C_1  and  C_2
REMARK    2  A    between atoms: C_5  and  S_6
REMARK    3  A    between atoms: S_6  and  N_9
REMARK    4  A    between atoms: C_11  and  C_12
REMARK    5  A    between atoms: C_15  and  C_16
REMARK    6  A    between atoms: N_18  and  CA_19
REMARK    7  A    between atoms: CA_19  and  C_20
REMARK    8  A    between atoms: CA_19  and  CB_22
REMARK    9  A    between atoms: CB_22  and  CG_23
REMARK                            x       y       z     vdW  Elec       q    Type
REMARK                         _______ _______ _______ _____ _____    ______ ____
ROOT
ATOM      1  N   UNK A   0       6.233   4.563  16.882  0.00  0.00    +0.000 NA
ATOM      2  C   UNK A   0       6.602   3.650  15.785  0.00  0.00    +0.000 C 
ATOM      3  C   UNK A   0       6.214   4.358  14.497  0.00  0.00    +0.000 C 
ATOM      4  C   UNK A   0       5.106   5.308  14.914  0.00  0.00    +0.000 C 
ATOM      5  C   UNK A   0       5.333   5.642  16.408  0.00  0.00    +0.000 C 
ENDROOT
BRANCH   5   6
ATOM      6  C   UNK A   0       3.948   5.698  17.098  0.00  0.00    +0.000 C 
ATOM      7  O   UNK A   0       3.130   4.776  17.009  0.00  0.00    +0.000 OA
ATOM      8  N   PHE A   1       3.611   6.840  17.780  0.00  0.00    +0.000 N 
ATOM      9  H   PHE A   1       4.282   7.608  17.844  0.00  0.00    +0.000 HD
BRANCH   8  10
ATOM     10  CA  PHE A   1       2.285   6.975  18.392  0.00  0.00    +0.000 C 
BRANCH  10  11
ATOM     11  C   PHE A   1       1.765   8.409  18.287  0.00  0.00    +0.000 C 
ATOM     12  O   PHE A   1       2.111   9.223  17.433  0.00  0.00    +0.000 OA
ENDBRANCH  10  11
BRANCH  10  13
ATOM     13  CB  PHE A   1       2.255   6.613  19.878  0.00  0.00    +0.000 C 
BRANCH  13  14
ATOM     14  CG  PHE A   1       1.984   5.165  20.194  0.00  0.00    +0.000 A 
ATOM     15  CD1 PHE A   1       2.524   4.611  21.363  0.00  0.00    +0.000 A 
ATOM     16  CE1 PHE A   1       2.194   3.315  21.754  0.00  0.00    +0.000 A 
ATOM     17  CZ  PHE A   1       1.321   2.558  20.979  0.00  0.00    +0.000 A 
ATOM     18  CE2 PHE A   1       0.807   3.082  19.794  0.00  0.00    +0.000 A 
ATOM     19  CD2 PHE A   1       1.146   4.378  19.395  0.00  0.00    +0.000 A 
ENDBRANCH  13  14
ENDBRANCH  10  13
ENDBRANCH   8  10
ENDBRANCH   5   6
BRANCH   1  20
ATOM     20  S   UNK A   0       7.289   4.763  18.170  0.00  0.00    +0.000 S 
ATOM     21  O   UNK A   0       8.540   4.150  17.785  0.00  0.00    +0.000 OA
ATOM     22  O   UNK A   0       6.582   4.347  19.367  0.00  0.00    +0.000 OA
BRANCH  20  27
ATOM     23  C   UNK A   0       9.003  10.613  18.101  0.00  0.00    +0.000 C 
ATOM     24  C   UNK A   0       8.484   9.207  18.225  0.00  0.00    +0.000 A 
ATOM     25  C   UNK A   0       8.873   8.361  19.276  0.00  0.00    +0.000 A 
ATOM     26  C   UNK A   0       8.450   7.020  19.318  0.00  0.00    +0.000 A 
ATOM     27  C   UNK A   0       7.609   6.524  18.314  0.00  0.00    +0.000 A 
ATOM     28  C   UNK A   0       7.205   7.373  17.273  0.00  0.00    +0.000 A 
ATOM     29  C   UNK A   0       7.647   8.699  17.226  0.00  0.00    +0.000 A 
ENDBRANCH  20  27
ENDBRANCH   1  20
BRANCH   3  30
ATOM     30  C   UNK A   0       7.317   5.083  13.860  0.00  0.00    +0.000 C 
ATOM     31  N   UNK A   0       8.138   5.687  13.316  0.00  0.00    +0.000 NA
ENDBRANCH   3  30
TORSDOF 8
ENDMDL
MODEL 3
REMARK VINA RESULT:      -7.3      3.293      8.651
REMARK  Name = 
REMARK  9 active torsions:
REMARK  status: ('A' for Active; 'I' for Inactive)
REMARK    1  A    between atoms: C_1  and  C_2
REMARK    2  A    between atoms: C_5  and  S_6
REMARK    3  A    between atoms: S_6  and  N_9
REMARK    4  A    between atoms: C_11  and  C_12
REMARK    5  A    between atoms: C_15  and  C_16
REMARK    6  A    between atoms: N_18  and  CA_19
REMARK    7  A    between atoms: CA_19  and  C_20
REMARK    8  A    between atoms: CA_19  and  CB_22
REMARK    9  A    between atoms: CB_22  and  CG_23
REMARK                            x       y       z     vdW  Elec       q    Type
REMARK                         _______ _______ _______ _____ _____    ______ ____
ROOT
ATOM      1  N   UNK A   0       5.067   5.253  18.621  0.00  0.00    +0.000 NA
ATOM      2  C   UNK A   0       4.899   4.200  19.639  0.00  0.00    +0.000 C 
ATOM      3  C   UNK A   0       3.543   3.566  19.372  0.00  0.00    +0.000 C 
ATOM      4  C   UNK A   0       2.755   4.655  18.667  0.00  0.00    +0.000 C 
ATOM      5  C   UNK A   0       3.781   5.563  17.947  0.00  0.00    +0.000 C 
ENDROOT
BRANCH   5   6
ATOM      6  C   UNK A   0       3.300   7.028  18.088  0.00  0.00    +0.000 C 
ATOM      7  O   UNK A   0       3.796   7.950  17.432  0.00  0.00    +0.000 OA
ATOM      8  N   PHE A   1       2.330   7.304  19.019  0.00  0.00    +0.000 N 
ATOM      9  H   PHE A   1       1.928   6.544  19.571  0.00  0.00    +0.000 HD
BRANCH   8  10
ATOM     10  CA  PHE A   1       1.888   8.684  19.244  0.00  0.00    +0.000 C 
BRANCH  10  11
ATOM     11  C   PHE A   1       1.136   8.820  20.568  0.00  0.00    +0.000 C 
ATOM     12  O   PHE A   1       1.048   7.940  21.422  0.00  0.00    +0.000 OA
ENDBRANCH  10  11
BRANCH  10  13
ATOM     13  CB  PHE A   1       0.950   9.213  18.158  0.00  0.00    +0.000 C 
BRANCH  13  14
ATOM     14  CG  PHE A   1       0.393  10.593  18.390  0.00  0.00    +0.000 A 
ATOM     15  CD1 PHE A   1       1.279  11.659  18.601  0.00  0.00    +0.000 A 
ATOM     16  CE1 PHE A   1       0.809  12.967  18.693  0.00  0.00    +0.000 A 
ATOM     17  CZ  PHE A   1      -0.555  13.224  18.577  0.00  0.00    +0.000 A 
ATOM     18  CE2 PHE A   1      -1.450  12.171  18.406  0.00  0.00    +0.000 A 
ATOM     19  CD2 PHE A   1      -0.981  10.857  18.323  0.00  0.00    +0.000 A 
ENDBRANCH  13  14
ENDBRANCH  10  13
ENDBRANCH   8  10
ENDBRANCH   5   6
BRANCH   1  20
ATOM     20  S   UNK A   0       6.553   5.431  17.865  0.00  0.00    +0.000 S 
ATOM     21  O   UNK A   0       7.428   4.421  18.417  0.00  0.00    +0.000 OA
ATOM     22  O   UNK A   0       6.895   6.839  17.926  0.00  0.00    +0.000 OA
BRANCH  20  27
ATOM     23  C   UNK A   0       6.142   3.264  12.181  0.00  0.00    +0.000 C 
ATOM     24  C   UNK A   0       6.184   3.924  13.532  0.00  0.00    +0.000 A 
ATOM     25  C   UNK A   0       7.164   4.872  13.866  0.00  0.00    +0.000 A 
ATOM     26  C   UNK A   0       7.241   5.405  15.166  0.00  0.00    +0.000 A 
ATOM     27  C   UNK A   0       6.313   5.006  16.136  0.00  0.00    +0.000 A 
ATOM     28  C   UNK A   0       5.322   4.072  15.799  0.00  0.00    +0.000 A 
ATOM     29  C   UNK A   0       5.265   3.531  14.512  0.00  0.00    +0.000 A 
ENDBRANCH  20  27
ENDBRANCH   1  20
BRANCH   3  30
ATOM     30  C   UNK A   0       3.603   2.349  18.559  0.00  0.00    +0.000 C 
ATOM     31  N   UNK A   0       3.593   1.412  17.882  0.00  0.00    +0.000 NA
ENDBRANCH   3  30
TORSDOF 8
ENDMDL
MODEL 4
REMARK VINA RESULT:      -7.2      0.972      1.093
REMARK  Name = 
REMARK  9 active torsions:
REMARK  status: ('A' for Active; 'I' for Inactive)
REMARK    1  A    between atoms: C_1  and  C_2
REMARK    2  A    between atoms: C_5  and  S_6
REMARK    3  A    between atoms: S_6  and  N_9
REMARK    4  A    between atoms: C_11  and  C_12
REMARK    5  A    between atoms: C_15  and  C_16
REMARK    6  A    between atoms: N_18  and  CA_19
REMARK    7  A    between atoms: CA_19  and  C_20
REMARK    8  A    between atoms: CA_19  and  CB_22
REMARK    9  A    between atoms: CB_22  and  CG_23
REMARK                            x       y       z     vdW  Elec       q    Type
REMARK                         _______ _______ _______ _____ _____    ______ ____
ROOT
ATOM      1  N   UNK A   0       0.399   9.357  19.794  0.00  0.00    +0.000 NA
ATOM      2  C   UNK A   0      -0.770   9.003  20.619  0.00  0.00    +0.000 C 
ATOM      3  C   UNK A   0      -0.222   8.301  21.851  0.00  0.00    +0.000 C 
ATOM      4  C   UNK A   0       1.110   7.734  21.395  0.00  0.00    +0.000 C 
ATOM      5  C   UNK A   0       1.615   8.635  20.242  0.00  0.00    +0.000 C 
ENDROOT
BRANCH   5   6
ATOM      6  C   UNK A   0       2.269   7.721  19.176  0.00  0.00    +0.000 C 
ATOM      7  O   UNK A   0       2.674   8.157  18.093  0.00  0.00    +0.000 OA
ATOM      8  N   PHE A   1       2.341   6.375  19.434  0.00  0.00    +0.000 N 
ATOM      9  H   PHE A   1       1.994   6.011  20.324  0.00  0.00    +0.000 HD
BRANCH   8  10
ATOM     10  CA  PHE A   1       2.884   5.455  18.431  0.00  0.00    +0.000 C 
BRANCH  10  11
ATOM     11  C   PHE A   1       2.011   4.207  18.286  0.00  0.00    +0.000 C 
ATOM     12  O   PHE A   1       1.703   3.684  17.218  0.00  0.00    +0.000 OA
ENDBRANCH  10  11
BRANCH  10  13
ATOM     13  CB  PHE A   1       4.295   4.959  18.752  0.00  0.00    +0.000 C 
BRANCH  13  14
ATOM     14  CG  PHE A   1       5.240   4.868  17.582  0.00  0.00    +0.000 A 
ATOM     15  CD1 PHE A   1       4.773   5.199  16.303  0.00  0.00    +0.000 A 
ATOM     16  CE1 PHE A   1       5.645   5.249  15.218  0.00  0.00    +0.000 A 
ATOM     17  CZ  PHE A   1       6.996   4.965  15.400  0.00  0.00    +0.000 A 
ATOM     18  CE2 PHE A   1       7.466   4.596  16.659  0.00  0.00    +0.000 A 
ATOM     19  CD2 PHE A   1       6.590   4.536  17.746  0.00  0.00    +0.000 A 
ENDBRANCH  13  14
ENDBRANCH  10  13
ENDBRANCH   8  10
ENDBRANCH   5   6
BRANCH   1  20
ATOM     20  S   UNK A   0       0.458  10.866  19.064  0.00  0.00    +0.000 S 
ATOM     21  O   UNK A   0       1.340  10.746  17.925  0.00  0.00    +0.000 OA
ATOM     22  O   UNK A   0       0.709  11.836  20.113  0.00  0.00    +0.000 OA
BRANCH  20  27
ATOM     23  C   UNK A   0      -5.390  11.462  17.446  0.00  0.00    +0.000 C 
ATOM     24  C   UNK A   0      -3.914  11.394  17.725  0.00  0.00    +0.000 A 
ATOM     25  C   UNK A   0      -3.063  10.524  17.024  0.00  0.00    +0.000 A 
ATOM     26  C   UNK A   0      -1.704  10.410  17.367  0.00  0.00    +0.000 A 
ATOM     27  C   UNK A   0      -1.181  11.191  18.405  0.00  0.00    +0.000 A 
ATOM     28  C   UNK A   0      -2.025  12.075  19.094  0.00  0.00    +0.000 A 
ATOM     29  C   UNK A   0      -3.380  12.167  18.761  0.00  0.00    +0.000 A 
ENDBRANCH  20  27
ENDBRANCH   1  20
BRANCH   3  30
ATOM     30  C   UNK A   0      -0.050   9.180  23.011  0.00  0.00    +0.000 C 
ATOM     31  N   UNK A   0       0.099   9.927  23.880  0.00  0.00    +0.000 NA
ENDBRANCH   3  30
TORSDOF 8
ENDMDL
MODEL 5
REMARK VINA RESULT:      -7.1      5.621      8.499
REMARK  Name = 
REMARK  9 active torsions:
REMARK  status: ('A' for Active; 'I' for Inactive)
REMARK    1  A    between atoms: C_1  and  C_2
REMARK    2  A    between atoms: C_5  and  S_6
REMARK    3  A    between atoms: S_6  and  N_9
REMARK    4  A    between atoms: C_11  and  C_12
REMARK    5  A    between atoms: C_15  and  C_16
REMARK    6  A    between atoms: N_18  and  CA_19
REMARK    7  A    between atoms: CA_19  and  C_20
REMARK    8  A    between atoms: CA_19  and  CB_22
REMARK    9  A    between atoms: CB_22  and  CG_23
REMARK                            x       y       z     vdW  Elec       q    Type
REMARK                         _______ _______ _______ _____ _____    ______ ____
ROOT
ATOM      1  N   UNK A   0       0.560  13.340  20.253  0.00  0.00    +0.000 NA
ATOM      2  C   UNK A   0       1.986  12.970  20.314  0.00  0.00    +0.000 C 
ATOM      3  C   UNK A   0       2.481  12.954  18.876  0.00  0.00    +0.000 C 
ATOM      4  C   UNK A   0       1.232  12.689  18.055  0.00  0.00    +0.000 C 
ATOM      5  C   UNK A   0       0.031  13.227  18.871  0.00  0.00    +0.000 C 
ENDROOT
BRANCH   5   6
ATOM      6  C   UNK A   0      -1.145  12.234  18.695  0.00  0.00    +0.000 C 
ATOM      7  O   UNK A   0      -1.472  11.437  19.580  0.00  0.00    +0.000 OA
ATOM      8  N   PHE A   1      -1.797  12.212  17.488  0.00  0.00    +0.000 N 
ATOM      9  H   PHE A   1      -1.519  12.862  16.750  0.00  0.00    +0.000 HD
BRANCH   8  10
ATOM     10  CA  PHE A   1      -2.870  11.244  17.242  0.00  0.00    +0.000 C 
BRANCH  10  11
ATOM     11  C   PHE A   1      -2.691  10.542  15.895  0.00  0.00    +0.000 C 
ATOM     12  O   PHE A   1      -3.199  10.907  14.837  0.00  0.00    +0.000 OA
ENDBRANCH  10  11
BRANCH  10  13
ATOM     13  CB  PHE A   1      -4.267  11.866  17.221  0.00  0.00    +0.000 C 
BRANCH  13  14
ATOM     14  CG  PHE A   1      -5.103  11.640  18.454  0.00  0.00    +0.000 A 
ATOM     15  CD1 PHE A   1      -4.888  12.447  19.580  0.00  0.00    +0.000 A 
ATOM     16  CE1 PHE A   1      -5.723  12.354  20.691  0.00  0.00    +0.000 A 
ATOM     17  CZ  PHE A   1      -6.783  11.450  20.689  0.00  0.00    +0.000 A 
ATOM     18  CE2 PHE A   1      -6.985  10.616  19.592  0.00  0.00    +0.000 A 
ATOM     19  CD2 PHE A   1      -6.142  10.701  18.481  0.00  0.00    +0.000 A 
ENDBRANCH  13  14
ENDBRANCH  10  13
ENDBRANCH   8  10
ENDBRANCH   5   6
BRANCH   1  20
ATOM     20  S   UNK A   0      -0.051  14.432  21.371  0.00  0.00    +0.000 S 
ATOM     21  O   UNK A   0      -0.547  15.565  20.623  0.00  0.00    +0.000 OA
ATOM     22  O   UNK A   0       0.957  14.592  22.402  0.00  0.00    +0.000 OA
BRANCH  20  27
ATOM     23  C   UNK A   0      -4.675  12.196  24.655  0.00  0.00    +0.000 C 
ATOM     24  C   UNK A   0      -3.581  12.662  23.734  0.00  0.00    +0.000 A 
ATOM     25  C   UNK A   0      -2.448  11.876  23.468  0.00  0.00    +0.000 A 
ATOM     26  C   UNK A   0      -1.394  12.372  22.678  0.00  0.00    +0.000 A 
ATOM     27  C   UNK A   0      -1.483  13.656  22.128  0.00  0.00    +0.000 A 
ATOM     28  C   UNK A   0      -2.622  14.436  22.378  0.00  0.00    +0.000 A 
ATOM     29  C   UNK A   0      -3.656  13.944  23.180  0.00  0.00    +0.000 A 
ENDBRANCH  20  27
ENDBRANCH   1  20
BRANCH   3  30
ATOM     30  C   UNK A   0       3.133  14.198  18.457  0.00  0.00    +0.000 C 
ATOM     31  N   UNK A   0       3.610  15.212  18.177  0.00  0.00    +0.000 NA
ENDBRANCH   3  30
TORSDOF 8
ENDMDL
MODEL 6
REMARK VINA RESULT:      -7.1      2.124      2.997
REMARK  Name = 
REMARK  9 active torsions:
REMARK  status: ('A' for Active; 'I' for Inactive)
REMARK    1  A    between atoms: C_1  and  C_2
REMARK    2  A    between atoms: C_5  and  S_6
REMARK    3  A    between atoms: S_6  and  N_9
REMARK    4  A    between atoms: C_11  and  C_12
REMARK    5  A    between atoms: C_15  and  C_16
REMARK    6  A    between atoms: N_18  and  CA_19
REMARK    7  A    between atoms: CA_19  and  C_20
REMARK    8  A    between atoms: CA_19  and  CB_22
REMARK    9  A    between atoms: CB_22  and  CG_23
REMARK                            x       y       z     vdW  Elec       q    Type
REMARK                         _______ _______ _______ _____ _____    ______ ____
ROOT
ATOM      1  N   UNK A   0       0.459   9.589  19.579  0.00  0.00    +0.000 NA
ATOM      2  C   UNK A   0      -0.793   9.364  20.325  0.00  0.00    +0.000 C 
ATOM      3  C   UNK A   0      -0.400   8.637  21.601  0.00  0.00    +0.000 C 
ATOM      4  C   UNK A   0       0.898   7.935  21.245  0.00  0.00    +0.000 C 
ATOM      5  C   UNK A   0       1.565   8.762  20.120  0.00  0.00    +0.000 C 
ENDROOT
BRANCH   5   6
ATOM      6  C   UNK A   0       2.199   7.769  19.113  0.00  0.00    +0.000 C 
ATOM      7  O   UNK A   0       2.510   8.104  17.965  0.00  0.00    +0.000 OA
ATOM      8  N   PHE A   1       2.358   6.464  19.505  0.00  0.00    +0.000 N 
ATOM      9  H   PHE A   1       2.089   6.183  20.450  0.00  0.00    +0.000 HD
BRANCH   8  10
ATOM     10  CA  PHE A   1       2.886   5.467  18.569  0.00  0.00    +0.000 C 
BRANCH  10  11
ATOM     11  C   PHE A   1       1.892   4.325  18.351  0.00  0.00    +0.000 C 
ATOM     12  O   PHE A   1       1.422   3.998  17.263  0.00  0.00    +0.000 OA
ENDBRANCH  10  11
BRANCH  10  13
ATOM     13  CB  PHE A   1       4.192   4.820  19.032  0.00  0.00    +0.000 C 
BRANCH  13  14
ATOM     14  CG  PHE A   1       5.456   5.509  18.589  0.00  0.00    +0.000 A 
ATOM     15  CD1 PHE A   1       5.412   6.370  17.483  0.00  0.00    +0.000 A 
ATOM     16  CE1 PHE A   1       6.528   7.121  17.121  0.00  0.00    +0.000 A 
ATOM     17  CZ  PHE A   1       7.703   7.019  17.861  0.00  0.00    +0.000 A 
ATOM     18  CE2 PHE A   1       7.773   6.139  18.939  0.00  0.00    +0.000 A 
ATOM     19  CD2 PHE A   1       6.657   5.377  19.297  0.00  0.00    +0.000 A 
ENDBRANCH  13  14
ENDBRANCH  10  13
ENDBRANCH   8  10
ENDBRANCH   5   6
BRANCH   1  20
ATOM     20  S   UNK A   0       0.713  11.071  18.836  0.00  0.00    +0.000 S 
ATOM     21  O   UNK A   0      -0.476  11.365  18.069  0.00  0.00    +0.000 OA
ATOM     22  O   UNK A   0       2.020  11.012  18.209  0.00  0.00    +0.000 OA
BRANCH  20  27
ATOM     23  C   UNK A   0       0.682  15.796  22.689  0.00  0.00    +0.000 C 
ATOM     24  C   UNK A   0       0.755  14.552  21.847  0.00  0.00    +0.000 A 
ATOM     25  C   UNK A   0       1.948  14.139  21.232  0.00  0.00    +0.000 A 
ATOM     26  C   UNK A   0       1.970  13.026  20.372  0.00  0.00    +0.000 A 
ATOM     27  C   UNK A   0       0.793  12.303  20.141  0.00  0.00    +0.000 A 
ATOM     28  C   UNK A   0      -0.396  12.703  20.769  0.00  0.00    +0.000 A 
ATOM     29  C   UNK A   0      -0.414  13.822  21.606  0.00  0.00    +0.000 A 
ENDBRANCH  20  27
ENDBRANCH   1  20
BRANCH   3  30
ATOM     30  C   UNK A   0      -0.223   9.517  22.759  0.00  0.00    +0.000 C 
ATOM     31  N   UNK A   0      -0.074  10.266  23.626  0.00  0.00    +0.000 NA
ENDBRANCH   3  30
TORSDOF 8
ENDMDL
MODEL 7
REMARK VINA RESULT:      -7.1      3.238      8.535
REMARK  Name = 
REMARK  9 active torsions:
REMARK  status: ('A' for Active; 'I' for Inactive)
REMARK    1  A    between atoms: C_1  and  C_2
REMARK    2  A    between atoms: C_5  and  S_6
REMARK    3  A    between atoms: S_6  and  N_9
REMARK    4  A    between atoms: C_11  and  C_12
REMARK    5  A    between atoms: C_15  and  C_16
REMARK    6  A    between atoms: N_18  and  CA_19
REMARK    7  A    between atoms: CA_19  and  C_20
REMARK    8  A    between atoms: CA_19  and  CB_22
REMARK    9  A    between atoms: CB_22  and  CG_23
REMARK                            x       y       z     vdW  Elec       q    Type
REMARK                         _______ _______ _______ _____ _____    ______ ____
ROOT
ATOM      1  N   UNK A   0       4.868   5.257  18.753  0.00  0.00    +0.000 NA
ATOM      2  C   UNK A   0       4.691   4.173  19.736  0.00  0.00    +0.000 C 
ATOM      3  C   UNK A   0       3.341   3.542  19.432  0.00  0.00    +0.000 C 
ATOM      4  C   UNK A   0       2.558   4.650  18.750  0.00  0.00    +0.000 C 
ATOM      5  C   UNK A   0       3.590   5.583  18.072  0.00  0.00    +0.000 C 
ENDROOT
BRANCH   5   6
ATOM      6  C   UNK A   0       3.101   7.042  18.250  0.00  0.00    +0.000 C 
ATOM      7  O   UNK A   0       3.503   7.964  17.532  0.00  0.00    +0.000 OA
ATOM      8  N   PHE A   1       2.238   7.313  19.282  0.00  0.00    +0.000 N 
ATOM      9  H   PHE A   1       1.915   6.553  19.885  0.00  0.00    +0.000 HD
BRANCH   8  10
ATOM     10  CA  PHE A   1       1.800   8.688  19.541  0.00  0.00    +0.000 C 
BRANCH  10  11
ATOM     11  C   PHE A   1       1.049   8.793  20.869  0.00  0.00    +0.000 C 
ATOM     12  O   PHE A   1       1.210   9.684  21.700  0.00  0.00    +0.000 OA
ENDBRANCH  10  11
BRANCH  10  13
ATOM     13  CB  PHE A   1       0.862   9.246  18.469  0.00  0.00    +0.000 C 
BRANCH  13  14
ATOM     14  CG  PHE A   1       0.699  10.743  18.458  0.00  0.00    +0.000 A 
ATOM     15  CD1 PHE A   1      -0.593  11.287  18.510  0.00  0.00    +0.000 A 
ATOM     16  CE1 PHE A   1      -0.780  12.662  18.628  0.00  0.00    +0.000 A 
ATOM     17  CZ  PHE A   1       0.322  13.510  18.694  0.00  0.00    +0.000 A 
ATOM     18  CE2 PHE A   1       1.610  12.987  18.604  0.00  0.00    +0.000 A 
ATOM     19  CD2 PHE A   1       1.800  11.608  18.475  0.00  0.00    +0.000 A 
ENDBRANCH  13  14
ENDBRANCH  10  13
ENDBRANCH   8  10
ENDBRANCH   5   6
BRANCH   1  20
ATOM     20  S   UNK A   0       6.363   5.463  18.022  0.00  0.00    +0.000 S 
ATOM     21  O   UNK A   0       7.246   4.468  18.586  0.00  0.00    +0.000 OA
ATOM     22  O   UNK A   0       6.678   6.877  18.091  0.00  0.00    +0.000 OA
BRANCH  20  27
ATOM     23  C   UNK A   0       6.079   3.297  12.330  0.00  0.00    +0.000 C 
ATOM     24  C   UNK A   0       6.089   3.956  13.682  0.00  0.00    +0.000 A 
ATOM     25  C   UNK A   0       7.054   4.912  14.035  0.00  0.00    +0.000 A 
ATOM     26  C   UNK A   0       7.102   5.445  15.336  0.00  0.00    +0.000 A 
ATOM     27  C   UNK A   0       6.160   5.037  16.288  0.00  0.00    +0.000 A 
ATOM     28  C   UNK A   0       5.184   4.095  15.932  0.00  0.00    +0.000 A 
ATOM     29  C   UNK A   0       5.156   3.554  14.643  0.00  0.00    +0.000 A 
ENDBRANCH  20  27
ENDBRANCH   1  20
BRANCH   3  30
ATOM     30  C   UNK A   0       3.417   2.351  18.583  0.00  0.00    +0.000 C 
ATOM     31  N   UNK A   0       3.546   1.406  17.930  0.00  0.00    +0.000 NA
ENDBRANCH   3  30
TORSDOF 8
ENDMDL
MODEL 8
REMARK VINA RESULT:      -7.1      3.031      8.833
REMARK  Name = 
REMARK  9 active torsions:
REMARK  status: ('A' for Active; 'I' for Inactive)
REMARK    1  A    between atoms: C_1  and  C_2
REMARK    2  A    between atoms: C_5  and  S_6
REMARK    3  A    between atoms: S_6  and  N_9
REMARK    4  A    between atoms: C_11  and  C_12
REMARK    5  A    between atoms: C_15  and  C_16
REMARK    6  A    between atoms: N_18  and  CA_19
REMARK    7  A    between atoms: CA_19  and  C_20
REMARK    8  A    between atoms: CA_19  and  CB_22
REMARK    9  A    between atoms: CB_22  and  CG_23
REMARK                            x       y       z     vdW  Elec       q    Type
REMARK                         _______ _______ _______ _____ _____    ______ ____
ROOT
ATOM      1  N   UNK A   0       0.398  10.888  19.458  0.00  0.00    +0.000 NA
ATOM      2  C   UNK A   0       1.547  11.660  18.951  0.00  0.00    +0.000 C 
ATOM      3  C   UNK A   0       1.047  13.082  18.753  0.00  0.00    +0.000 C 
ATOM      4  C   UNK A   0      -0.448  12.925  18.543  0.00  0.00    +0.000 C 
ATOM      5  C   UNK A   0      -0.874  11.628  19.273  0.00  0.00    +0.000 C 
ENDROOT
BRANCH   5   6
ATOM      6  C   UNK A   0      -1.931  10.914  18.394  0.00  0.00    +0.000 C 
ATOM      7  O   UNK A   0      -1.849   9.714  18.111  0.00  0.00    +0.000 OA
ATOM      8  N   PHE A   1      -2.953  11.665  17.873  0.00  0.00    +0.000 N 
ATOM      9  H   PHE A   1      -3.015  12.661  18.095  0.00  0.00    +0.000 HD
BRANCH   8  10
ATOM     10  CA  PHE A   1      -3.940  11.055  16.976  0.00  0.00    +0.000 C 
BRANCH  10  11
ATOM     11  C   PHE A   1      -3.498  11.145  15.515  0.00  0.00    +0.000 C 
ATOM     12  O   PHE A   1      -2.835  10.294  14.926  0.00  0.00    +0.000 OA
ENDBRANCH  10  11
BRANCH  10  13
ATOM     13  CB  PHE A   1      -5.322  11.706  17.050  0.00  0.00    +0.000 C 
BRANCH  13  14
ATOM     14  CG  PHE A   1      -6.022  11.609  18.381  0.00  0.00    +0.000 A 
ATOM     15  CD1 PHE A   1      -6.331  12.787  19.076  0.00  0.00    +0.000 A 
ATOM     16  CE1 PHE A   1      -7.087  12.746  20.245  0.00  0.00    +0.000 A 
ATOM     17  CZ  PHE A   1      -7.542  11.524  20.734  0.00  0.00    +0.000 A 
ATOM     18  CE2 PHE A   1      -7.210  10.343  20.075  0.00  0.00    +0.000 A 
ATOM     19  CD2 PHE A   1      -6.443  10.382  18.907  0.00  0.00    +0.000 A 
ENDBRANCH  13  14
ENDBRANCH  10  13
ENDBRANCH   8  10
ENDBRANCH   5   6
BRANCH   1  20
ATOM     20  S   UNK A   0       0.636   9.791  20.704  0.00  0.00    +0.000 S 
ATOM     21  O   UNK A   0      -0.665   9.269  21.057  0.00  0.00    +0.000 OA
ATOM     22  O   UNK A   0       1.480  10.442  21.688  0.00  0.00    +0.000 OA
BRANCH  20  27
ATOM     23  C   UNK A   0       3.068   4.905  17.987  0.00  0.00    +0.000 C 
ATOM     24  C   UNK A   0       2.598   6.127  18.727  0.00  0.00    +0.000 A 
ATOM     25  C   UNK A   0       2.209   6.075  20.076  0.00  0.00    +0.000 A 
ATOM     26  C   UNK A   0       1.682   7.209  20.720  0.00  0.00    +0.000 A 
ATOM     27  C   UNK A   0       1.565   8.415  20.018  0.00  0.00    +0.000 A 
ATOM     28  C   UNK A   0       1.970   8.474  18.677  0.00  0.00    +0.000 A 
ATOM     29  C   UNK A   0       2.473   7.337  18.037  0.00  0.00    +0.000 A 
ENDBRANCH  20  27
ENDBRANCH   1  20
BRANCH   3  30
ATOM     30  C   UNK A   0       1.330  13.976  19.879  0.00  0.00    +0.000 C 
ATOM     31  N   UNK A   0       1.546  14.624  20.811  0.00  0.00    +0.000 NA
ENDBRANCH   3  30
TORSDOF 8
ENDMDL
MODEL 9
REMARK VINA RESULT:      -7.0      2.896      4.546
REMARK  Name = 
REMARK  9 active torsions:
REMARK  status: ('A' for Active; 'I' for Inactive)
REMARK    1  A    between atoms: C_1  and  C_2
REMARK    2  A    between atoms: C_5  and  S_6
REMARK    3  A    between atoms: S_6  and  N_9
REMARK    4  A    between atoms: C_11  and  C_12
REMARK    5  A    between atoms: C_15  and  C_16
REMARK    6  A    between atoms: N_18  and  CA_19
REMARK    7  A    between atoms: CA_19  and  C_20
REMARK    8  A    between atoms: CA_19  and  CB_22
REMARK    9  A    between atoms: CB_22  and  CG_23
REMARK                            x       y       z     vdW  Elec       q    Type
REMARK                         _______ _______ _______ _____ _____    ______ ____
ROOT
ATOM      1  N   UNK A   0       0.881  10.608  20.795  0.00  0.00    +0.000 NA
ATOM      2  C   UNK A   0       1.479  11.947  20.640  0.00  0.00    +0.000 C 
ATOM      3  C   UNK A   0       1.564  12.202  19.143  0.00  0.00    +0.000 C 
ATOM      4  C   UNK A   0       1.615  10.814  18.532  0.00  0.00    +0.000 C 
ATOM      5  C   UNK A   0       0.896   9.858  19.514  0.00  0.00    +0.000 C 
ENDROOT
BRANCH   5   6
ATOM      6  C   UNK A   0       1.682   8.524  19.541  0.00  0.00    +0.000 C 
ATOM      7  O   UNK A   0       1.916   7.918  20.592  0.00  0.00    +0.000 OA
ATOM      8  N   PHE A   1       2.178   8.042  18.356  0.00  0.00    +0.000 N 
ATOM      9  H   PHE A   1       1.996   8.549  17.487  0.00  0.00    +0.000 HD
BRANCH   8  10
ATOM     10  CA  PHE A   1       2.990   6.822  18.333  0.00  0.00    +0.000 C 
BRANCH  10  11
ATOM     11  C   PHE A   1       4.184   6.963  17.387  0.00  0.00    +0.000 C 
ATOM     12  O   PHE A   1       4.608   6.075  16.651  0.00  0.00    +0.000 OA
ENDBRANCH  10  11
BRANCH  10  13
ATOM     13  CB  PHE A   1       2.222   5.581  17.875  0.00  0.00    +0.000 C 
BRANCH  13  14
ATOM     14  CG  PHE A   1       2.067   4.490  18.903  0.00  0.00    +0.000 A 
ATOM     15  CD1 PHE A   1       2.228   4.805  20.260  0.00  0.00    +0.000 A 
ATOM     16  CE1 PHE A   1       1.970   3.855  21.245  0.00  0.00    +0.000 A 
ATOM     17  CZ  PHE A   1       1.550   2.578  20.885  0.00  0.00    +0.000 A 
ATOM     18  CE2 PHE A   1       1.424   2.240  19.539  0.00  0.00    +0.000 A 
ATOM     19  CD2 PHE A   1       1.692   3.189  18.549  0.00  0.00    +0.000 A 
ENDBRANCH  13  14
ENDBRANCH  10  13
ENDBRANCH   8  10
ENDBRANCH   5   6
BRANCH   1  20
ATOM     20  S   UNK A   0      -0.286  10.365  21.975  0.00  0.00    +0.000 S 
ATOM     21  O   UNK A   0       0.397  10.375  23.248  0.00  0.00    +0.000 OA
ATOM     22  O   UNK A   0      -1.083   9.228  21.555  0.00  0.00    +0.000 OA
BRANCH  20  27
ATOM     23  C   UNK A   0      -4.476  14.780  22.319  0.00  0.00    +0.000 C 
ATOM     24  C   UNK A   0      -3.361  13.785  22.154  0.00  0.00    +0.000 A 
ATOM     25  C   UNK A   0      -3.171  13.071  20.960  0.00  0.00    +0.000 A 
ATOM     26  C   UNK A   0      -2.180  12.077  20.862  0.00  0.00    +0.000 A 
ATOM     27  C   UNK A   0      -1.353  11.810  21.959  0.00  0.00    +0.000 A 
ATOM     28  C   UNK A   0      -1.529  12.535  23.147  0.00  0.00    +0.000 A 
ATOM     29  C   UNK A   0      -2.529  13.506  23.244  0.00  0.00    +0.000 A 
ENDBRANCH  20  27
ENDBRANCH   1  20
BRANCH   3  30
ATOM     30  C   UNK A   0       0.440  12.973  18.606  0.00  0.00    +0.000 C 
ATOM     31  N   UNK A   0      -0.399  13.629  18.156  0.00  0.00    +0.000 NA
ENDBRANCH   3  30
TORSDOF 8
ENDMDL
