MODEL 1
REMARK VINA RESULT:      -8.7      0.000      0.000
REMARK  Name = 
REMARK  5 active torsions:
REMARK  status: ('A' for Active; 'I' for Inactive)
REMARK    1  A    between atoms: C_2  and  C_24
REMARK    2  A    between atoms: N_3  and  C_4
REMARK    3  A    between atoms: C_6  and  S_7
REMARK    4  A    between atoms: S_7  and  N_10
REMARK    5  A    between atoms: C_18  and  N_19
REMARK                            x       y       z     vdW  Elec       q    Type
REMARK                         _______ _______ _______ _____ _____    ______ ____
ROOT
ATOM      1  C   UNL     1       3.826   5.813  19.099  0.00  0.00    +0.000 A 
ATOM      2  C   UNL     1       4.977   6.124  18.356  0.00  0.00    +0.000 A 
ATOM      3  C   UNL     1       5.811   5.095  17.927  0.00  0.00    +0.000 A 
ATOM      4  C   UNL     1       5.502   3.773  18.245  0.00  0.00    +0.000 A 
ATOM      5  C   UNL     1       4.330   3.473  18.963  0.00  0.00    +0.000 A 
ATOM      6  C   UNL     1       3.444   4.474  19.397  0.00  0.00    +0.000 A 
ENDROOT
BRANCH   6   7
ATOM      7  N   UNL     1       2.243   4.196  20.070  0.00  0.00    +0.000 N 
ATOM      8  C   UNL     1       2.188   3.843  21.496  0.00  0.00    +0.000 C 
ATOM      9  C   UNL     1       1.388   2.546  21.557  0.00  0.00    +0.000 C 
ATOM     10  C   UNL     1       0.410   2.684  20.410  0.00  0.00    +0.000 C 
ATOM     11  C   UNL     1       1.214   3.416  19.336  0.00  0.00    +0.000 C 
ENDBRANCH   6   7
BRANCH   1  14
ATOM     12  O   UNL     1       2.027   7.679  17.839  0.00  0.00    +0.000 OA
ATOM     13  C   UNL     1       2.244   7.721  19.048  0.00  0.00    +0.000 C 
ATOM     14  N   UNL     1       3.086   6.842  19.698  0.00  0.00    +0.000 N 
ATOM     15  H   UNL     1       2.975   6.754  20.702  0.00  0.00    +0.000 HD
BRANCH  13  16
ATOM     16  C   UNL     1       1.564   8.664  19.929  0.00  0.00    +0.000 A 
ATOM     17  C   UNL     1       1.265   8.483  21.268  0.00  0.00    +0.000 A 
ATOM     18  C   UNL     1       0.487   9.550  21.804  0.00  0.00    +0.000 A 
ATOM     19  C   UNL     1       0.257  10.529  20.857  0.00  0.00    +0.000 A 
ATOM     20  S   UNL     1       0.989  10.181  19.367  0.00  0.00    +0.000 S 
ATOM     21  C   UNL     1      -0.607  11.737  21.050  0.00  0.00    +0.000 C 
ATOM     22  C   UNL     1      -0.984  11.917  22.527  0.00  0.00    +0.000 C 
ATOM     23  C   UNL     1      -1.293  10.579  23.220  0.00  0.00    +0.000 C 
ATOM     24  C   UNL     1      -0.074   9.645  23.189  0.00  0.00    +0.000 C 
ENDBRANCH  13  16
ENDBRANCH   1  14
BRANCH   3  25
ATOM     25  S   UNL     1       7.303   5.475  17.028  0.00  0.00    +0.000 S 
ATOM     26  O   UNL     1       7.892   6.635  17.650  0.00  0.00    +0.000 OA
ATOM     27  O   UNL     1       8.055   4.248  16.885  0.00  0.00    +0.000 OA
BRANCH  25  28
ATOM     28  N   UNL     1       6.754   5.912  15.479  0.00  0.00    +0.000 NA
ATOM     29  C   UNL     1       5.280   5.962  15.242  0.00  0.00    +0.000 C 
ATOM     30  C   UNL     1       4.701   4.588  14.891  0.00  0.00    +0.000 C 
ATOM     31  O   UNL     1       5.369   4.009  13.763  0.00  0.00    +0.000 OA
ATOM     32  C   UNL     1       6.774   3.866  14.013  0.00  0.00    +0.000 C 
ATOM     33  C   UNL     1       7.432   5.213  14.341  0.00  0.00    +0.000 C 
ENDBRANCH  25  28
ENDBRANCH   3  25
TORSDOF 5
ENDMDL
MODEL 2
REMARK VINA RESULT:      -8.6      1.311      2.229
REMARK  Name = 
REMARK  5 active torsions:
REMARK  status: ('A' for Active; 'I' for Inactive)
REMARK    1  A    between atoms: C_2  and  C_24
REMARK    2  A    between atoms: N_3  and  C_4
REMARK    3  A    between atoms: C_6  and  S_7
REMARK    4  A    between atoms: S_7  and  N_10
REMARK    5  A    between atoms: C_18  and  N_19
REMARK                            x       y       z     vdW  Elec       q    Type
REMARK                         _______ _______ _______ _____ _____    ______ ____
ROOT
ATOM      1  C   UNL     1       3.085   5.776  18.414  0.00  0.00    +0.000 A 
ATOM      2  C   UNL     1       3.901   6.086  17.313  0.00  0.00    +0.000 A 
ATOM      3  C   UNL     1       4.627   5.071  16.696  0.00  0.00    +0.000 A 
ATOM      4  C   UNL     1       4.545   3.766  17.179  0.00  0.00    +0.000 A 
ATOM      5  C   UNL     1       3.700   3.464  18.262  0.00  0.00    +0.000 A 
ATOM      6  C   UNL     1       2.928   4.448  18.903  0.00  0.00    +0.000 A 
ENDROOT
BRANCH   6   7
ATOM      7  N   UNL     1       2.039   4.163  19.953  0.00  0.00    +0.000 N 
ATOM      8  C   UNL     1       2.384   4.359  21.369  0.00  0.00    +0.000 C 
ATOM      9  C   UNL     1       2.076   3.027  22.044  0.00  0.00    +0.000 C 
ATOM     10  C   UNL     1       0.902   2.496  21.251  0.00  0.00    +0.000 C 
ATOM     11  C   UNL     1       1.196   2.947  19.822  0.00  0.00    +0.000 C 
ENDBRANCH   6   7
BRANCH   1  14
ATOM     12  O   UNL     1       2.136   8.333  17.479  0.00  0.00    +0.000 OA
ATOM     13  C   UNL     1       2.073   8.025  18.668  0.00  0.00    +0.000 C 
ATOM     14  N   UNL     1       2.501   6.810  19.161  0.00  0.00    +0.000 N 
ATOM     15  H   UNL     1       2.145   6.528  20.067  0.00  0.00    +0.000 HD
BRANCH  13  16
ATOM     16  C   UNL     1       1.461   8.896  19.665  0.00  0.00    +0.000 A 
ATOM     17  C   UNL     1       1.194   8.586  20.987  0.00  0.00    +0.000 A 
ATOM     18  C   UNL     1       0.480   9.621  21.659  0.00  0.00    +0.000 A 
ATOM     19  C   UNL     1       0.264  10.703  20.828  0.00  0.00    +0.000 A 
ATOM     20  S   UNL     1       0.935  10.486  19.285  0.00  0.00    +0.000 S 
ATOM     21  C   UNL     1      -0.541  11.917  21.175  0.00  0.00    +0.000 C 
ATOM     22  C   UNL     1      -0.866  11.955  22.676  0.00  0.00    +0.000 C 
ATOM     23  C   UNL     1      -1.210  10.564  23.234  0.00  0.00    +0.000 C 
ATOM     24  C   UNL     1      -0.035   9.591  23.064  0.00  0.00    +0.000 C 
ENDBRANCH  13  16
ENDBRANCH   1  14
BRANCH   3  25
ATOM     25  S   UNL     1       5.708   5.455  15.331  0.00  0.00    +0.000 S 
ATOM     26  O   UNL     1       5.706   4.312  14.451  0.00  0.00    +0.000 OA
ATOM     27  O   UNL     1       5.349   6.768  14.842  0.00  0.00    +0.000 OA
BRANCH  25  28
ATOM     28  N   UNL     1       7.246   5.588  16.043  0.00  0.00    +0.000 NA
ATOM     29  C   UNL     1       7.615   4.610  17.111  0.00  0.00    +0.000 C 
ATOM     30  C   UNL     1       7.109   5.038  18.491  0.00  0.00    +0.000 C 
ATOM     31  O   UNL     1       7.570   6.351  18.835  0.00  0.00    +0.000 OA
ATOM     32  C   UNL     1       7.140   7.319  17.867  0.00  0.00    +0.000 C 
ATOM     33  C   UNL     1       7.641   6.972  16.458  0.00  0.00    +0.000 C 
ENDBRANCH  25  28
ENDBRANCH   3  25
TORSDOF 5
ENDMDL
MODEL 3
REMARK VINA RESULT:      -8.4      0.663      1.175
REMARK  Name = 
REMARK  5 active torsions:
REMARK  status: ('A' for Active; 'I' for Inactive)
REMARK    1  A    between atoms: C_2  and  C_24
REMARK    2  A    between atoms: N_3  and  C_4
REMARK    3  A    between atoms: C_6  and  S_7
REMARK    4  A    between atoms: S_7  and  N_10
REMARK    5  A    between atoms: C_18  and  N_19
REMARK                            x       y       z     vdW  Elec       q    Type
REMARK                         _______ _______ _______ _____ _____    ______ ____
ROOT
ATOM      1  C   UNL     1       3.715   5.875  19.215  0.00  0.00    +0.000 A 
ATOM      2  C   UNL     1       4.852   6.235  18.472  0.00  0.00    +0.000 A 
ATOM      3  C   UNL     1       5.775   5.253  18.120  0.00  0.00    +0.000 A 
ATOM      4  C   UNL     1       5.567   3.933  18.514  0.00  0.00    +0.000 A 
ATOM      5  C   UNL     1       4.409   3.581  19.230  0.00  0.00    +0.000 A 
ATOM      6  C   UNL     1       3.436   4.529  19.588  0.00  0.00    +0.000 A 
ENDROOT
BRANCH   6   7
ATOM      7  N   UNL     1       2.248   4.195  20.259  0.00  0.00    +0.000 N 
ATOM      8  C   UNL     1       2.218   3.751  21.660  0.00  0.00    +0.000 C 
ATOM      9  C   UNL     1       1.433   2.444  21.649  0.00  0.00    +0.000 C 
ATOM     10  C   UNL     1       0.438   2.643  20.527  0.00  0.00    +0.000 C 
ATOM     11  C   UNL     1       1.217   3.452  19.491  0.00  0.00    +0.000 C 
ENDBRANCH   6   7
BRANCH   1  14
ATOM     12  O   UNL     1       2.278   7.926  17.787  0.00  0.00    +0.000 OA
ATOM     13  C   UNL     1       2.223   7.845  19.012  0.00  0.00    +0.000 C 
ATOM     14  N   UNL     1       2.881   6.875  19.739  0.00  0.00    +0.000 N 
ATOM     15  H   UNL     1       2.550   6.697  20.681  0.00  0.00    +0.000 HD
BRANCH  13  16
ATOM     16  C   UNL     1       1.384   8.730  19.814  0.00  0.00    +0.000 A 
ATOM     17  C   UNL     1       0.914   9.981  19.453  0.00  0.00    +0.000 A 
ATOM     18  C   UNL     1       0.219  10.631  20.514  0.00  0.00    +0.000 A 
ATOM     19  C   UNL     1       0.151   9.828  21.636  0.00  0.00    +0.000 A 
ATOM     20  S   UNL     1       0.881   8.315  21.402  0.00  0.00    +0.000 S 
ATOM     21  C   UNL     1      -0.416  10.234  22.961  0.00  0.00    +0.000 C 
ATOM     22  C   UNL     1      -1.181  11.562  22.851  0.00  0.00    +0.000 C 
ATOM     23  C   UNL     1      -0.477  12.568  21.925  0.00  0.00    +0.000 C 
ATOM     24  C   UNL     1      -0.351  12.014  20.498  0.00  0.00    +0.000 C 
ENDBRANCH  13  16
ENDBRANCH   1  14
BRANCH   3  25
ATOM     25  S   UNL     1       7.249   5.700  17.222  0.00  0.00    +0.000 S 
ATOM     26  O   UNL     1       7.760   6.912  17.816  0.00  0.00    +0.000 OA
ATOM     27  O   UNL     1       8.076   4.518  17.119  0.00  0.00    +0.000 OA
BRANCH  25  28
ATOM     28  N   UNL     1       6.689   6.060  15.658  0.00  0.00    +0.000 NA
ATOM     29  C   UNL     1       5.215   6.040  15.414  0.00  0.00    +0.000 C 
ATOM     30  C   UNL     1       4.695   4.632  15.111  0.00  0.00    +0.000 C 
ATOM     31  O   UNL     1       5.391   4.043  14.005  0.00  0.00    +0.000 OA
ATOM     32  C   UNL     1       6.800   3.967  14.264  0.00  0.00    +0.000 C 
ATOM     33  C   UNL     1       7.400   5.351  14.546  0.00  0.00    +0.000 C 
ENDBRANCH  25  28
ENDBRANCH   3  25
TORSDOF 5
ENDMDL
MODEL 4
REMARK VINA RESULT:      -8.1      4.701      9.077
REMARK  Name = 
REMARK  5 active torsions:
REMARK  status: ('A' for Active; 'I' for Inactive)
REMARK    1  A    between atoms: C_2  and  C_24
REMARK    2  A    between atoms: N_3  and  C_4
REMARK    3  A    between atoms: C_6  and  S_7
REMARK    4  A    between atoms: S_7  and  N_10
REMARK    5  A    between atoms: C_18  and  N_19
REMARK                            x       y       z     vdW  Elec       q    Type
REMARK                         _______ _______ _______ _____ _____    ______ ____
ROOT
ATOM      1  C   UNL     1       0.518  11.248  19.570  0.00  0.00    +0.000 A 
ATOM      2  C   UNL     1       1.364  12.209  20.149  0.00  0.00    +0.000 A 
ATOM      3  C   UNL     1       1.063  13.560  20.002  0.00  0.00    +0.000 A 
ATOM      4  C   UNL     1      -0.064  13.945  19.278  0.00  0.00    +0.000 A 
ATOM      5  C   UNL     1      -0.920  12.972  18.729  0.00  0.00    +0.000 A 
ATOM      6  C   UNL     1      -0.673  11.596  18.871  0.00  0.00    +0.000 A 
ENDROOT
BRANCH   6   7
ATOM      7  N   UNL     1      -1.538  10.606  18.376  0.00  0.00    +0.000 N 
ATOM      8  C   UNL     1      -1.312   9.910  17.101  0.00  0.00    +0.000 C 
ATOM      9  C   UNL     1      -2.617  10.061  16.326  0.00  0.00    +0.000 C 
ATOM     10  C   UNL     1      -3.670  10.072  17.413  0.00  0.00    +0.000 C 
ATOM     11  C   UNL     1      -2.996  10.820  18.562  0.00  0.00    +0.000 C 
ENDBRANCH   6   7
BRANCH   1  14
ATOM     12  O   UNL     1       2.256   9.931  17.684  0.00  0.00    +0.000 OA
ATOM     13  C   UNL     1       1.736   9.313  18.611  0.00  0.00    +0.000 C 
ATOM     14  N   UNL     1       0.909   9.901  19.545  0.00  0.00    +0.000 N 
ATOM     15  H   UNL     1       0.775   9.406  20.420  0.00  0.00    +0.000 HD
BRANCH  13  16
ATOM     16  C   UNL     1       2.012   7.902  18.856  0.00  0.00    +0.000 A 
ATOM     17  C   UNL     1       2.381   6.952  17.919  0.00  0.00    +0.000 A 
ATOM     18  C   UNL     1       2.458   5.640  18.471  0.00  0.00    +0.000 A 
ATOM     19  C   UNL     1       2.182   5.647  19.824  0.00  0.00    +0.000 A 
ATOM     20  S   UNL     1       1.870   7.205  20.419  0.00  0.00    +0.000 S 
ATOM     21  C   UNL     1       2.074   4.434  20.695  0.00  0.00    +0.000 C 
ATOM     22  C   UNL     1       2.591   3.184  19.967  0.00  0.00    +0.000 C 
ATOM     23  C   UNL     1       2.183   3.160  18.485  0.00  0.00    +0.000 C 
ATOM     24  C   UNL     1       2.752   4.372  17.733  0.00  0.00    +0.000 C 
ENDBRANCH  13  16
ENDBRANCH   1  14
BRANCH   3  25
ATOM     25  S   UNL     1       2.153  14.794  20.686  0.00  0.00    +0.000 S 
ATOM     26  O   UNL     1       1.534  16.078  20.468  0.00  0.00    +0.000 OA
ATOM     27  O   UNL     1       2.522  14.365  22.017  0.00  0.00    +0.000 OA
BRANCH  25  28
ATOM     28  N   UNL     1       3.549  14.696  19.721  0.00  0.00    +0.000 NA
ATOM     29  C   UNL     1       4.787  15.381  20.200  0.00  0.00    +0.000 C 
ATOM     30  C   UNL     1       4.815  16.864  19.819  0.00  0.00    +0.000 C 
ATOM     31  O   UNL     1       4.659  17.045  18.406  0.00  0.00    +0.000 OA
ATOM     32  C   UNL     1       3.425  16.475  17.946  0.00  0.00    +0.000 C 
ATOM     33  C   UNL     1       3.340  14.976  18.265  0.00  0.00    +0.000 C 
ENDBRANCH  25  28
ENDBRANCH   3  25
TORSDOF 5
ENDMDL
MODEL 5
REMARK VINA RESULT:      -7.9      1.231      1.878
REMARK  Name = 
REMARK  5 active torsions:
REMARK  status: ('A' for Active; 'I' for Inactive)
REMARK    1  A    between atoms: C_2  and  C_24
REMARK    2  A    between atoms: N_3  and  C_4
REMARK    3  A    between atoms: C_6  and  S_7
REMARK    4  A    between atoms: S_7  and  N_10
REMARK    5  A    between atoms: C_18  and  N_19
REMARK                            x       y       z     vdW  Elec       q    Type
REMARK                         _______ _______ _______ _____ _____    ______ ____
ROOT
ATOM      1  C   UNL     1       3.154   6.218  18.726  0.00  0.00    +0.000 A 
ATOM      2  C   UNL     1       4.016   6.647  17.703  0.00  0.00    +0.000 A 
ATOM      3  C   UNL     1       4.943   5.753  17.174  0.00  0.00    +0.000 A 
ATOM      4  C   UNL     1       5.012   4.451  17.667  0.00  0.00    +0.000 A 
ATOM      5  C   UNL     1       4.122   4.025  18.669  0.00  0.00    +0.000 A 
ATOM      6  C   UNL     1       3.152   4.882  19.219  0.00  0.00    +0.000 A 
ENDROOT
BRANCH   6   7
ATOM      7  N   UNL     1       2.220   4.466  20.184  0.00  0.00    +0.000 N 
ATOM      8  C   UNL     1       2.599   4.093  21.554  0.00  0.00    +0.000 C 
ATOM      9  C   UNL     1       1.983   2.716  21.779  0.00  0.00    +0.000 C 
ATOM     10  C   UNL     1       0.718   2.759  20.950  0.00  0.00    +0.000 C 
ATOM     11  C   UNL     1       1.113   3.587  19.728  0.00  0.00    +0.000 C 
ENDBRANCH   6   7
BRANCH   1  14
ATOM     12  O   UNL     1       2.137   8.729  17.740  0.00  0.00    +0.000 OA
ATOM     13  C   UNL     1       1.900   8.351  18.886  0.00  0.00    +0.000 C 
ATOM     14  N   UNL     1       2.352   7.153  19.398  0.00  0.00    +0.000 N 
ATOM     15  H   UNL     1       1.874   6.789  20.215  0.00  0.00    +0.000 HD
BRANCH  13  16
ATOM     16  C   UNL     1       1.042   9.106  19.792  0.00  0.00    +0.000 A 
ATOM     17  C   UNL     1       0.480  10.350  19.560  0.00  0.00    +0.000 A 
ATOM     18  C   UNL     1      -0.209  10.860  20.700  0.00  0.00    +0.000 A 
ATOM     19  C   UNL     1      -0.178   9.962  21.748  0.00  0.00    +0.000 A 
ATOM     20  S   UNL     1       0.635   8.526  21.356  0.00  0.00    +0.000 S 
ATOM     21  C   UNL     1      -0.711  10.216  23.125  0.00  0.00    +0.000 C 
ATOM     22  C   UNL     1      -1.562  11.494  23.160  0.00  0.00    +0.000 C 
ATOM     23  C   UNL     1      -0.963  12.620  22.301  0.00  0.00    +0.000 C 
ATOM     24  C   UNL     1      -0.865  12.199  20.827  0.00  0.00    +0.000 C 
ENDBRANCH  13  16
ENDBRANCH   1  14
BRANCH   3  25
ATOM     25  S   UNL     1       6.080   6.295  15.912  0.00  0.00    +0.000 S 
ATOM     26  O   UNL     1       5.291   6.832  14.829  0.00  0.00    +0.000 OA
ATOM     27  O   UNL     1       7.101   7.094  16.553  0.00  0.00    +0.000 OA
BRANCH  25  28
ATOM     28  N   UNL     1       6.824   4.862  15.380  0.00  0.00    +0.000 NA
ATOM     29  C   UNL     1       7.966   4.973  14.424  0.00  0.00    +0.000 C 
ATOM     30  C   UNL     1       7.498   5.088  12.970  0.00  0.00    +0.000 C 
ATOM     31  O   UNL     1       6.647   3.994  12.606  0.00  0.00    +0.000 OA
ATOM     32  C   UNL     1       5.494   3.932  13.457  0.00  0.00    +0.000 C 
ATOM     33  C   UNL     1       5.886   3.783  14.933  0.00  0.00    +0.000 C 
ENDBRANCH  25  28
ENDBRANCH   3  25
TORSDOF 5
ENDMDL
MODEL 6
REMARK VINA RESULT:      -7.9      1.463      2.528
REMARK  Name = 
REMARK  5 active torsions:
REMARK  status: ('A' for Active; 'I' for Inactive)
REMARK    1  A    between atoms: C_2  and  C_24
REMARK    2  A    between atoms: N_3  and  C_4
REMARK    3  A    between atoms: C_6  and  S_7
REMARK    4  A    between atoms: S_7  and  N_10
REMARK    5  A    between atoms: C_18  and  N_19
REMARK                            x       y       z     vdW  Elec       q    Type
REMARK                         _______ _______ _______ _____ _____    ______ ____
ROOT
ATOM      1  C   UNL     1       2.999   5.700  18.313  0.00  0.00    +0.000 A 
ATOM      2  C   UNL     1       3.821   6.035  17.224  0.00  0.00    +0.000 A 
ATOM      3  C   UNL     1       4.634   5.058  16.657  0.00  0.00    +0.000 A 
ATOM      4  C   UNL     1       4.631   3.765  17.178  0.00  0.00    +0.000 A 
ATOM      5  C   UNL     1       3.780   3.434  18.248  0.00  0.00    +0.000 A 
ATOM      6  C   UNL     1       2.924   4.378  18.839  0.00  0.00    +0.000 A 
ENDROOT
BRANCH   6   7
ATOM      7  N   UNL     1       2.029   4.061  19.874  0.00  0.00    +0.000 N 
ATOM      8  C   UNL     1       2.263   4.435  21.276  0.00  0.00    +0.000 C 
ATOM      9  C   UNL     1       2.114   3.139  22.067  0.00  0.00    +0.000 C 
ATOM     10  C   UNL     1       1.075   2.368  21.282  0.00  0.00    +0.000 C 
ATOM     11  C   UNL     1       1.380   2.726  19.829  0.00  0.00    +0.000 C 
ENDBRANCH   6   7
BRANCH   1  14
ATOM     12  O   UNL     1       2.492   8.412  17.478  0.00  0.00    +0.000 OA
ATOM     13  C   UNL     1       2.117   8.002  18.575  0.00  0.00    +0.000 C 
ATOM     14  N   UNL     1       2.324   6.711  19.013  0.00  0.00    +0.000 N 
ATOM     15  H   UNL     1       1.737   6.380  19.771  0.00  0.00    +0.000 HD
BRANCH  13  16
ATOM     16  C   UNL     1       1.340   8.830  19.490  0.00  0.00    +0.000 A 
ATOM     17  C   UNL     1       0.845  10.099  19.246  0.00  0.00    +0.000 A 
ATOM     18  C   UNL     1       0.231  10.678  20.395  0.00  0.00    +0.000 A 
ATOM     19  C   UNL     1       0.247   9.806  21.465  0.00  0.00    +0.000 A 
ATOM     20  S   UNL     1       0.957   8.314  21.082  0.00  0.00    +0.000 S 
ATOM     21  C   UNL     1      -0.219  10.125  22.852  0.00  0.00    +0.000 C 
ATOM     22  C   UNL     1      -0.990  11.453  22.884  0.00  0.00    +0.000 C 
ATOM     23  C   UNL     1      -0.357  12.519  21.974  0.00  0.00    +0.000 C 
ATOM     24  C   UNL     1      -0.339  12.057  20.509  0.00  0.00    +0.000 C 
ENDBRANCH  13  16
ENDBRANCH   1  14
BRANCH   3  25
ATOM     25  S   UNL     1       5.722   5.479  15.309  0.00  0.00    +0.000 S 
ATOM     26  O   UNL     1       5.756   4.344  14.418  0.00  0.00    +0.000 OA
ATOM     27  O   UNL     1       5.340   6.788  14.828  0.00  0.00    +0.000 OA
BRANCH  25  28
ATOM     28  N   UNL     1       7.248   5.639  16.040  0.00  0.00    +0.000 NA
ATOM     29  C   UNL     1       7.641   4.638  17.078  0.00  0.00    +0.000 C 
ATOM     30  C   UNL     1       7.108   5.001  18.467  0.00  0.00    +0.000 C 
ATOM     31  O   UNL     1       7.521   6.316  18.860  0.00  0.00    +0.000 OA
ATOM     32  C   UNL     1       7.068   7.302  17.921  0.00  0.00    +0.000 C 
ATOM     33  C   UNL     1       7.592   7.020  16.506  0.00  0.00    +0.000 C 
ENDBRANCH  25  28
ENDBRANCH   3  25
TORSDOF 5
ENDMDL
MODEL 7
REMARK VINA RESULT:      -7.9      4.754      8.960
REMARK  Name = 
REMARK  5 active torsions:
REMARK  status: ('A' for Active; 'I' for Inactive)
REMARK    1  A    between atoms: C_2  and  C_24
REMARK    2  A    between atoms: N_3  and  C_4
REMARK    3  A    between atoms: C_6  and  S_7
REMARK    4  A    between atoms: S_7  and  N_10
REMARK    5  A    between atoms: C_18  and  N_19
REMARK                            x       y       z     vdW  Elec       q    Type
REMARK                         _______ _______ _______ _____ _____    ______ ____
ROOT
ATOM      1  C   UNL     1       0.596  11.367  19.450  0.00  0.00    +0.000 A 
ATOM      2  C   UNL     1       1.488  12.330  19.950  0.00  0.00    +0.000 A 
ATOM      3  C   UNL     1       1.217  13.680  19.747  0.00  0.00    +0.000 A 
ATOM      4  C   UNL     1       0.074  14.061  19.046  0.00  0.00    +0.000 A 
ATOM      5  C   UNL     1      -0.827  13.088  18.578  0.00  0.00    +0.000 A 
ATOM      6  C   UNL     1      -0.611  11.714  18.778  0.00  0.00    +0.000 A 
ENDROOT
BRANCH   6   7
ATOM      7  N   UNL     1      -1.521  10.726  18.365  0.00  0.00    +0.000 N 
ATOM      8  C   UNL     1      -1.337   9.931  17.143  0.00  0.00    +0.000 C 
ATOM      9  C   UNL     1      -2.645  10.078  16.371  0.00  0.00    +0.000 C 
ATOM     10  C   UNL     1      -3.683  10.210  17.463  0.00  0.00    +0.000 C 
ATOM     11  C   UNL     1      -2.967  11.011  18.549  0.00  0.00    +0.000 C 
ENDBRANCH   6   7
BRANCH   1  14
ATOM     12  O   UNL     1       2.283   9.926  17.609  0.00  0.00    +0.000 OA
ATOM     13  C   UNL     1       1.753   9.361  18.563  0.00  0.00    +0.000 C 
ATOM     14  N   UNL     1       0.949  10.009  19.478  0.00  0.00    +0.000 N 
ATOM     15  H   UNL     1       0.807   9.554  20.373  0.00  0.00    +0.000 HD
BRANCH  13  16
ATOM     16  C   UNL     1       1.992   7.954  18.865  0.00  0.00    +0.000 A 
ATOM     17  C   UNL     1       2.347   6.961  17.968  0.00  0.00    +0.000 A 
ATOM     18  C   UNL     1       2.387   5.669  18.570  0.00  0.00    +0.000 A 
ATOM     19  C   UNL     1       2.097   5.734  19.918  0.00  0.00    +0.000 A 
ATOM     20  S   UNL     1       1.816   7.320  20.451  0.00  0.00    +0.000 S 
ATOM     21  C   UNL     1       1.950   4.557  20.832  0.00  0.00    +0.000 C 
ATOM     22  C   UNL     1       2.443   3.269  20.158  0.00  0.00    +0.000 C 
ATOM     23  C   UNL     1       2.051   3.198  18.673  0.00  0.00    +0.000 C 
ATOM     24  C   UNL     1       2.658   4.367  17.883  0.00  0.00    +0.000 C 
ENDBRANCH  13  16
ENDBRANCH   1  14
BRANCH   3  25
ATOM     25  S   UNL     1       2.365  14.914  20.329  0.00  0.00    +0.000 S 
ATOM     26  O   UNL     1       1.614  15.852  21.127  0.00  0.00    +0.000 OA
ATOM     27  O   UNL     1       3.512  14.224  20.878  0.00  0.00    +0.000 OA
BRANCH  25  28
ATOM     28  N   UNL     1       2.882  15.701  18.913  0.00  0.00    +0.000 NA
ATOM     29  C   UNL     1       3.568  14.887  17.865  0.00  0.00    +0.000 C 
ATOM     30  C   UNL     1       5.066  14.728  18.140  0.00  0.00    +0.000 C 
ATOM     31  O   UNL     1       5.711  16.000  18.285  0.00  0.00    +0.000 OA
ATOM     32  C   UNL     1       5.124  16.756  19.355  0.00  0.00    +0.000 C 
ATOM     33  C   UNL     1       3.624  16.985  19.131  0.00  0.00    +0.000 C 
ENDBRANCH  25  28
ENDBRANCH   3  25
TORSDOF 5
ENDMDL
MODEL 8
REMARK VINA RESULT:      -7.9      1.093      1.506
REMARK  Name = 
REMARK  5 active torsions:
REMARK  status: ('A' for Active; 'I' for Inactive)
REMARK    1  A    between atoms: C_2  and  C_24
REMARK    2  A    between atoms: N_3  and  C_4
REMARK    3  A    between atoms: C_6  and  S_7
REMARK    4  A    between atoms: S_7  and  N_10
REMARK    5  A    between atoms: C_18  and  N_19
REMARK                            x       y       z     vdW  Elec       q    Type
REMARK                         _______ _______ _______ _____ _____    ______ ____
ROOT
ATOM      1  C   UNL     1       3.323   6.168  18.571  0.00  0.00    +0.000 A 
ATOM      2  C   UNL     1       4.197   6.537  17.534  0.00  0.00    +0.000 A 
ATOM      3  C   UNL     1       4.999   5.567  16.941  0.00  0.00    +0.000 A 
ATOM      4  C   UNL     1       4.935   4.247  17.385  0.00  0.00    +0.000 A 
ATOM      5  C   UNL     1       4.034   3.885  18.402  0.00  0.00    +0.000 A 
ATOM      6  C   UNL     1       3.185   4.823  19.015  0.00  0.00    +0.000 A 
ENDROOT
BRANCH   6   7
ATOM      7  N   UNL     1       2.242   4.477  19.997  0.00  0.00    +0.000 N 
ATOM      8  C   UNL     1       2.602   4.226  21.400  0.00  0.00    +0.000 C 
ATOM      9  C   UNL     1       2.000   2.864  21.731  0.00  0.00    +0.000 C 
ATOM     10  C   UNL     1       0.748   2.820  20.881  0.00  0.00    +0.000 C 
ATOM     11  C   UNL     1       1.154   3.547  19.600  0.00  0.00    +0.000 C 
ENDBRANCH   6   7
BRANCH   1  14
ATOM     12  O   UNL     1       1.834   8.424  17.568  0.00  0.00    +0.000 OA
ATOM     13  C   UNL     1       1.963   8.231  18.776  0.00  0.00    +0.000 C 
ATOM     14  N   UNL     1       2.654   7.160  19.303  0.00  0.00    +0.000 N 
ATOM     15  H   UNL     1       2.460   6.915  20.268  0.00  0.00    +0.000 HD
BRANCH  13  16
ATOM     16  C   UNL     1       1.323   9.083  19.772  0.00  0.00    +0.000 A 
ATOM     17  C   UNL     1       1.035   8.753  21.086  0.00  0.00    +0.000 A 
ATOM     18  C   UNL     1       0.298   9.772  21.757  0.00  0.00    +0.000 A 
ATOM     19  C   UNL     1       0.086  10.862  20.935  0.00  0.00    +0.000 A 
ATOM     20  S   UNL     1       0.788  10.672  19.403  0.00  0.00    +0.000 S 
ATOM     21  C   UNL     1      -0.738  12.064  21.283  0.00  0.00    +0.000 C 
ATOM     22  C   UNL     1      -1.090  12.079  22.777  0.00  0.00    +0.000 C 
ATOM     23  C   UNL     1      -1.431  10.678  23.312  0.00  0.00    +0.000 C 
ATOM     24  C   UNL     1      -0.242   9.719  23.151  0.00  0.00    +0.000 C 
ENDBRANCH  13  16
ENDBRANCH   1  14
BRANCH   3  25
ATOM     25  S   UNL     1       6.151   6.027  15.660  0.00  0.00    +0.000 S 
ATOM     26  O   UNL     1       5.398   6.708  14.634  0.00  0.00    +0.000 OA
ATOM     27  O   UNL     1       7.284   6.663  16.295  0.00  0.00    +0.000 OA
BRANCH  25  28
ATOM     28  N   UNL     1       6.693   4.541  15.036  0.00  0.00    +0.000 NA
ATOM     29  C   UNL     1       7.826   4.556  14.063  0.00  0.00    +0.000 C 
ATOM     30  C   UNL     1       7.356   4.812  12.628  0.00  0.00    +0.000 C 
ATOM     31  O   UNL     1       6.364   3.860  12.224  0.00  0.00    +0.000 OA
ATOM     32  C   UNL     1       5.225   3.900  13.096  0.00  0.00    +0.000 C 
ATOM     33  C   UNL     1       5.616   3.620  14.552  0.00  0.00    +0.000 C 
ENDBRANCH  25  28
ENDBRANCH   3  25
TORSDOF 5
ENDMDL
MODEL 9
REMARK VINA RESULT:      -7.8      3.218      5.998
REMARK  Name = 
REMARK  5 active torsions:
REMARK  status: ('A' for Active; 'I' for Inactive)
REMARK    1  A    between atoms: C_2  and  C_24
REMARK    2  A    between atoms: N_3  and  C_4
REMARK    3  A    between atoms: C_6  and  S_7
REMARK    4  A    between atoms: S_7  and  N_10
REMARK    5  A    between atoms: C_18  and  N_19
REMARK                            x       y       z     vdW  Elec       q    Type
REMARK                         _______ _______ _______ _____ _____    ______ ____
ROOT
ATOM      1  C   UNL     1       1.144   9.414  19.792  0.00  0.00    +0.000 A 
ATOM      2  C   UNL     1       1.485   8.125  20.236  0.00  0.00    +0.000 A 
ATOM      3  C   UNL     1       2.171   7.269  19.380  0.00  0.00    +0.000 A 
ATOM      4  C   UNL     1       2.507   7.693  18.095  0.00  0.00    +0.000 A 
ATOM      5  C   UNL     1       2.188   8.997  17.675  0.00  0.00    +0.000 A 
ATOM      6  C   UNL     1       1.517   9.907  18.509  0.00  0.00    +0.000 A 
ENDROOT
BRANCH   6   7
ATOM      7  N   UNL     1       1.232  11.230  18.131  0.00  0.00    +0.000 N 
ATOM      8  C   UNL     1       2.171  12.341  18.339  0.00  0.00    +0.000 C 
ATOM      9  C   UNL     1       1.369  13.409  19.075  0.00  0.00    +0.000 C 
ATOM     10  C   UNL     1      -0.033  13.228  18.537  0.00  0.00    +0.000 C 
ATOM     11  C   UNL     1      -0.154  11.717  18.346  0.00  0.00    +0.000 C 
ENDBRANCH   6   7
BRANCH   1  14
ATOM     12  O   UNL     1       1.254   9.910  22.630  0.00  0.00    +0.000 OA
ATOM     13  C   UNL     1       0.377  10.410  21.929  0.00  0.00    +0.000 C 
ATOM     14  N   UNL     1       0.291  10.214  20.566  0.00  0.00    +0.000 N 
ATOM     15  H   UNL     1      -0.257  10.883  20.036  0.00  0.00    +0.000 HD
BRANCH  13  16
ATOM     16  C   UNL     1      -0.618  11.332  22.467  0.00  0.00    +0.000 A 
ATOM     17  C   UNL     1      -1.737  11.004  23.213  0.00  0.00    +0.000 A 
ATOM     18  C   UNL     1      -2.566  12.132  23.481  0.00  0.00    +0.000 A 
ATOM     19  C   UNL     1      -2.023  13.289  22.958  0.00  0.00    +0.000 A 
ATOM     20  S   UNL     1      -0.533  13.025  22.192  0.00  0.00    +0.000 S 
ATOM     21  C   UNL     1      -2.678  14.636  22.965  0.00  0.00    +0.000 C 
ATOM     22  C   UNL     1      -3.911  14.646  23.882  0.00  0.00    +0.000 C 
ATOM     23  C   UNL     1      -4.726  13.346  23.780  0.00  0.00    +0.000 C 
ATOM     24  C   UNL     1      -3.883  12.129  24.191  0.00  0.00    +0.000 C 
ENDBRANCH  13  16
ENDBRANCH   1  14
BRANCH   3  25
ATOM     25  S   UNL     1       2.565   5.612  19.908  0.00  0.00    +0.000 S 
ATOM     26  O   UNL     1       4.000   5.472  19.841  0.00  0.00    +0.000 OA
ATOM     27  O   UNL     1       1.852   5.362  21.142  0.00  0.00    +0.000 OA
BRANCH  25  28
ATOM     28  N   UNL     1       1.869   4.619  18.716  0.00  0.00    +0.000 NA
ATOM     29  C   UNL     1       1.034   3.463  19.160  0.00  0.00    +0.000 C 
ATOM     30  C   UNL     1       1.878   2.225  19.479  0.00  0.00    +0.000 C 
ATOM     31  O   UNL     1       2.699   1.850  18.366  0.00  0.00    +0.000 OA
ATOM     32  C   UNL     1       3.577   2.920  17.988  0.00  0.00    +0.000 C 
ATOM     33  C   UNL     1       2.797   4.190  17.621  0.00  0.00    +0.000 C 
ENDBRANCH  25  28
ENDBRANCH   3  25
TORSDOF 5
ENDMDL
