MODEL 1
REMARK VINA RESULT:      -7.5      0.000      0.000
REMARK  Name = 
REMARK  9 active torsions:
REMARK  status: ('A' for Active; 'I' for Inactive)
REMARK    1  A    between atoms: C_1  and  O_2
REMARK    2  A    between atoms: O_2  and  C_3
REMARK    3  A    between atoms: N_12  and  C_13
REMARK    4  A    between atoms: C_13  and  C_14
REMARK    5  A    between atoms: C_17  and  C_18
REMARK    6  A    between atoms: C_18  and  C_19
REMARK    7  A    between atoms: C_18  and  N_20
REMARK    8  A    between atoms: C_21  and  C_22
REMARK    9  A    between atoms: C_26  and  C_27
REMARK                            x       y       z     vdW  Elec       q    Type
REMARK                         _______ _______ _______ _____ _____    ______ ____
ROOT
ATOM      1  C   UNL     1      -5.910  12.423  19.122  0.00  0.00    +0.000 A 
ATOM      2  C   UNL     1      -5.254  13.094  20.153  0.00  0.00    +0.000 A 
ATOM      3  C   UNL     1      -3.876  12.940  20.325  0.00  0.00    +0.000 A 
ATOM      4  C   UNL     1      -3.126  12.116  19.466  0.00  0.00    +0.000 A 
ATOM      5  C   UNL     1      -3.790  11.417  18.450  0.00  0.00    +0.000 A 
ATOM      6  C   UNL     1      -5.176  11.565  18.299  0.00  0.00    +0.000 A 
ATOM      7  F   UNL     1      -5.801  10.884  17.327  0.00  0.00    +0.000 F 
ATOM      8  C   UNL     1      -3.035  10.460  17.570  0.00  0.00    +0.000 C 
ATOM      9  C   UNL     1      -1.523  10.720  17.572  0.00  0.00    +0.000 C 
ATOM     10  N   UNL     1      -1.013  10.867  18.944  0.00  0.00    +0.000 NA
ATOM     11  C   UNL     1      -1.610  12.046  19.622  0.00  0.00    +0.000 C 
ATOM     12  C   UNL     1      -1.005  13.406  19.215  0.00  0.00    +0.000 C 
ENDROOT
BRANCH   1  14
ATOM     13  C   UNL     1      -7.675  13.748  18.283  0.00  0.00    +0.000 C 
ATOM     14  O   UNL     1      -7.254  12.521  18.872  0.00  0.00    +0.000 OA
ENDBRANCH   1  14
BRANCH  10  15
ATOM     15  C   UNL     1       0.458  10.896  18.994  0.00  0.00    +0.000 C 
BRANCH  15  16
ATOM     16  C   UNL     1       1.110   9.538  19.128  0.00  0.00    +0.000 A 
ATOM     17  C   UNL     1       1.068   8.849  20.347  0.00  0.00    +0.000 A 
ATOM     18  C   UNL     1       1.635   7.578  20.466  0.00  0.00    +0.000 A 
ATOM     19  C   UNL     1       2.260   6.972  19.365  0.00  0.00    +0.000 A 
ATOM     20  C   UNL     1       2.304   7.670  18.148  0.00  0.00    +0.000 A 
ATOM     21  C   UNL     1       1.740   8.940  18.031  0.00  0.00    +0.000 A 
BRANCH  19  22
ATOM     22  C   UNL     1       2.906   5.608  19.518  0.00  0.00    +0.000 C 
ATOM     23  C   UNL     1       2.269   4.843  20.683  0.00  0.00    +0.000 C 
BRANCH  22  24
ATOM     24  N   UNL     1       4.347   5.736  19.688  0.00  0.00    +0.000 N 
ATOM     25  C   UNL     1       5.232   5.247  18.759  0.00  0.00    +0.000 C 
ATOM     26  C   UNL     1       6.684   5.414  19.124  0.00  0.00    +0.000 C 
ATOM     27  O   UNL     1       4.891   4.707  17.711  0.00  0.00    +0.000 OA
ATOM     28  H   UNL     1       4.693   6.141  20.547  0.00  0.00    +0.000 HD
ENDBRANCH  22  24
ENDBRANCH  19  22
ENDBRANCH  15  16
ENDBRANCH  10  15
TORSDOF 5
ENDMDL
MODEL 2
REMARK VINA RESULT:      -7.4      1.207      1.564
REMARK  Name = 
REMARK  9 active torsions:
REMARK  status: ('A' for Active; 'I' for Inactive)
REMARK    1  A    between atoms: C_1  and  O_2
REMARK    2  A    between atoms: O_2  and  C_3
REMARK    3  A    between atoms: N_12  and  C_13
REMARK    4  A    between atoms: C_13  and  C_14
REMARK    5  A    between atoms: C_17  and  C_18
REMARK    6  A    between atoms: C_18  and  C_19
REMARK    7  A    between atoms: C_18  and  N_20
REMARK    8  A    between atoms: C_21  and  C_22
REMARK    9  A    between atoms: C_26  and  C_27
REMARK                            x       y       z     vdW  Elec       q    Type
REMARK                         _______ _______ _______ _____ _____    ______ ____
ROOT
ATOM      1  C   UNL     1      -5.457  12.305  18.376  0.00  0.00    +0.000 A 
ATOM      2  C   UNL     1      -5.058  12.924  19.559  0.00  0.00    +0.000 A 
ATOM      3  C   UNL     1      -3.786  12.680  20.084  0.00  0.00    +0.000 A 
ATOM      4  C   UNL     1      -2.887  11.817  19.433  0.00  0.00    +0.000 A 
ATOM      5  C   UNL     1      -3.300  11.170  18.261  0.00  0.00    +0.000 A 
ATOM      6  C   UNL     1      -4.585  11.408  17.754  0.00  0.00    +0.000 A 
ATOM      7  F   UNL     1      -4.970  10.776  16.635  0.00  0.00    +0.000 F 
ATOM      8  C   UNL     1      -2.397  10.173  17.587  0.00  0.00    +0.000 C 
ATOM      9  C   UNL     1      -0.927  10.336  17.994  0.00  0.00    +0.000 C 
ATOM     10  N   UNL     1      -0.789  10.438  19.454  0.00  0.00    +0.000 NA
ATOM     11  C   UNL     1      -1.473  11.648  19.981  0.00  0.00    +0.000 C 
ATOM     12  C   UNL     1      -0.701  12.970  19.781  0.00  0.00    +0.000 C 
ENDROOT
BRANCH   1  14
ATOM     13  C   UNL     1      -6.919  13.803  17.284  0.00  0.00    +0.000 C 
ATOM     14  O   UNL     1      -6.679  12.491  17.783  0.00  0.00    +0.000 OA
ENDBRANCH   1  14
BRANCH  10  15
ATOM     15  C   UNL     1       0.615  10.373  19.890  0.00  0.00    +0.000 C 
BRANCH  15  16
ATOM     16  C   UNL     1       1.393   9.203  19.331  0.00  0.00    +0.000 A 
ATOM     17  C   UNL     1       1.932   9.263  18.038  0.00  0.00    +0.000 A 
ATOM     18  C   UNL     1       2.683   8.200  17.532  0.00  0.00    +0.000 A 
ATOM     19  C   UNL     1       2.909   7.053  18.308  0.00  0.00    +0.000 A 
ATOM     20  C   UNL     1       2.362   6.998  19.599  0.00  0.00    +0.000 A 
ATOM     21  C   UNL     1       1.609   8.057  20.104  0.00  0.00    +0.000 A 
BRANCH  19  22
ATOM     22  C   UNL     1       3.695   5.891  17.731  0.00  0.00    +0.000 C 
ATOM     23  C   UNL     1       3.083   4.559  18.178  0.00  0.00    +0.000 C 
BRANCH  22  24
ATOM     24  N   UNL     1       5.100   5.983  18.105  0.00  0.00    +0.000 N 
ATOM     25  C   UNL     1       6.056   6.428  17.224  0.00  0.00    +0.000 C 
ATOM     26  C   UNL     1       7.464   6.403  17.757  0.00  0.00    +0.000 C 
ATOM     27  O   UNL     1       5.807   6.811  16.085  0.00  0.00    +0.000 OA
ATOM     28  H   UNL     1       5.376   5.651  19.018  0.00  0.00    +0.000 HD
ENDBRANCH  22  24
ENDBRANCH  19  22
ENDBRANCH  15  16
ENDBRANCH  10  15
TORSDOF 5
ENDMDL
MODEL 3
REMARK VINA RESULT:      -7.4      1.345      1.969
REMARK  Name = 
REMARK  9 active torsions:
REMARK  status: ('A' for Active; 'I' for Inactive)
REMARK    1  A    between atoms: C_1  and  O_2
REMARK    2  A    between atoms: O_2  and  C_3
REMARK    3  A    between atoms: N_12  and  C_13
REMARK    4  A    between atoms: C_13  and  C_14
REMARK    5  A    between atoms: C_17  and  C_18
REMARK    6  A    between atoms: C_18  and  C_19
REMARK    7  A    between atoms: C_18  and  N_20
REMARK    8  A    between atoms: C_21  and  C_22
REMARK    9  A    between atoms: C_26  and  C_27
REMARK                            x       y       z     vdW  Elec       q    Type
REMARK                         _______ _______ _______ _____ _____    ______ ____
ROOT
ATOM      1  C   UNL     1      -5.745  12.227  18.320  0.00  0.00    +0.000 A 
ATOM      2  C   UNL     1      -5.367  12.819  19.524  0.00  0.00    +0.000 A 
ATOM      3  C   UNL     1      -4.067  12.653  20.008  0.00  0.00    +0.000 A 
ATOM      4  C   UNL     1      -3.118  11.898  19.297  0.00  0.00    +0.000 A 
ATOM      5  C   UNL     1      -3.508  11.276  18.103  0.00  0.00    +0.000 A 
ATOM      6  C   UNL     1      -4.820  11.433  17.636  0.00  0.00    +0.000 A 
ATOM      7  F   UNL     1      -5.182  10.827  16.495  0.00  0.00    +0.000 F 
ATOM      8  C   UNL     1      -2.546  10.388  17.361  0.00  0.00    +0.000 C 
ATOM      9  C   UNL     1      -1.084  10.649  17.744  0.00  0.00    +0.000 C 
ATOM     10  N   UNL     1      -0.918  10.693  19.205  0.00  0.00    +0.000 NA
ATOM     11  C   UNL     1      -1.681  11.817  19.805  0.00  0.00    +0.000 C 
ATOM     12  C   UNL     1      -1.023  13.205  19.655  0.00  0.00    +0.000 C 
ENDROOT
BRANCH   1  14
ATOM     13  C   UNL     1      -7.512  13.667  17.705  0.00  0.00    +0.000 C 
ATOM     14  O   UNL     1      -6.992  12.343  17.763  0.00  0.00    +0.000 OA
ENDBRANCH   1  14
BRANCH  10  15
ATOM     15  C   UNL     1       0.498  10.720  19.607  0.00  0.00    +0.000 C 
BRANCH  15  16
ATOM     16  C   UNL     1       1.211   9.391  19.486  0.00  0.00    +0.000 A 
ATOM     17  C   UNL     1       1.296   8.529  20.588  0.00  0.00    +0.000 A 
ATOM     18  C   UNL     1       1.920   7.286  20.470  0.00  0.00    +0.000 A 
ATOM     19  C   UNL     1       2.476   6.880  19.247  0.00  0.00    +0.000 A 
ATOM     20  C   UNL     1       2.393   7.751  18.150  0.00  0.00    +0.000 A 
ATOM     21  C   UNL     1       1.772   8.994  18.268  0.00  0.00    +0.000 A 
BRANCH  19  22
ATOM     22  C   UNL     1       3.185   5.543  19.144  0.00  0.00    +0.000 C 
ATOM     23  C   UNL     1       4.400   5.653  18.216  0.00  0.00    +0.000 C 
BRANCH  22  24
ATOM     24  N   UNL     1       2.265   4.505  18.696  0.00  0.00    +0.000 N 
ATOM     25  C   UNL     1       1.637   3.664  19.581  0.00  0.00    +0.000 C 
ATOM     26  C   UNL     1       0.767   2.614  18.942  0.00  0.00    +0.000 C 
ATOM     27  O   UNL     1       1.765   3.737  20.800  0.00  0.00    +0.000 OA
ATOM     28  H   UNL     1       2.142   4.371  17.702  0.00  0.00    +0.000 HD
ENDBRANCH  22  24
ENDBRANCH  19  22
ENDBRANCH  15  16
ENDBRANCH  10  15
TORSDOF 5
ENDMDL
MODEL 4
REMARK VINA RESULT:      -7.2      1.140      1.259
REMARK  Name = 
REMARK  9 active torsions:
REMARK  status: ('A' for Active; 'I' for Inactive)
REMARK    1  A    between atoms: C_1  and  O_2
REMARK    2  A    between atoms: O_2  and  C_3
REMARK    3  A    between atoms: N_12  and  C_13
REMARK    4  A    between atoms: C_13  and  C_14
REMARK    5  A    between atoms: C_17  and  C_18
REMARK    6  A    between atoms: C_18  and  C_19
REMARK    7  A    between atoms: C_18  and  N_20
REMARK    8  A    between atoms: C_21  and  C_22
REMARK    9  A    between atoms: C_26  and  C_27
REMARK                            x       y       z     vdW  Elec       q    Type
REMARK                         _______ _______ _______ _____ _____    ______ ____
ROOT
ATOM      1  C   UNL     1      -5.303  12.068  17.762  0.00  0.00    +0.000 A 
ATOM      2  C   UNL     1      -5.043  12.633  19.009  0.00  0.00    +0.000 A 
ATOM      3  C   UNL     1      -3.818  12.404  19.641  0.00  0.00    +0.000 A 
ATOM      4  C   UNL     1      -2.827  11.610  19.037  0.00  0.00    +0.000 A 
ATOM      5  C   UNL     1      -3.100  11.016  17.798  0.00  0.00    +0.000 A 
ATOM      6  C   UNL     1      -4.340  11.237  17.181  0.00  0.00    +0.000 A 
ATOM      7  F   UNL     1      -4.591  10.656  15.999  0.00  0.00    +0.000 F 
ATOM      8  C   UNL     1      -2.099  10.090  17.163  0.00  0.00    +0.000 C 
ATOM      9  C   UNL     1      -0.682  10.281  17.719  0.00  0.00    +0.000 C 
ATOM     10  N   UNL     1      -0.688  10.306  19.190  0.00  0.00    +0.000 NA
ATOM     11  C   UNL     1      -1.466  11.460  19.710  0.00  0.00    +0.000 C 
ATOM     12  C   UNL     1      -0.732  12.817  19.656  0.00  0.00    +0.000 C 
ENDROOT
BRANCH   1  14
ATOM     13  C   UNL     1      -7.185  13.437  17.367  0.00  0.00    +0.000 C 
ATOM     14  O   UNL     1      -6.469  12.244  17.063  0.00  0.00    +0.000 OA
ENDBRANCH   1  14
BRANCH  10  15
ATOM     15  C   UNL     1       0.670  10.265  19.756  0.00  0.00    +0.000 C 
BRANCH  15  16
ATOM     16  C   UNL     1       1.487   9.061  19.344  0.00  0.00    +0.000 A 
ATOM     17  C   UNL     1       1.569   7.940  20.181  0.00  0.00    +0.000 A 
ATOM     18  C   UNL     1       2.292   6.811  19.788  0.00  0.00    +0.000 A 
ATOM     19  C   UNL     1       2.949   6.782  18.548  0.00  0.00    +0.000 A 
ATOM     20  C   UNL     1       2.867   7.910  17.718  0.00  0.00    +0.000 A 
ATOM     21  C   UNL     1       2.148   9.038  18.112  0.00  0.00    +0.000 A 
BRANCH  19  22
ATOM     22  C   UNL     1       3.761   5.564  18.150  0.00  0.00    +0.000 C 
ATOM     23  C   UNL     1       3.011   4.279  18.517  0.00  0.00    +0.000 C 
BRANCH  22  24
ATOM     24  N   UNL     1       5.083   5.603  18.763  0.00  0.00    +0.000 N 
ATOM     25  C   UNL     1       6.219   5.803  18.019  0.00  0.00    +0.000 C 
ATOM     26  C   UNL     1       7.503   5.755  18.805  0.00  0.00    +0.000 C 
ATOM     27  O   UNL     1       6.216   5.999  16.807  0.00  0.00    +0.000 OA
ATOM     28  H   UNL     1       5.157   5.415  19.753  0.00  0.00    +0.000 HD
ENDBRANCH  22  24
ENDBRANCH  19  22
ENDBRANCH  15  16
ENDBRANCH  10  15
TORSDOF 5
ENDMDL
MODEL 5
REMARK VINA RESULT:      -7.2      1.341      1.988
REMARK  Name = 
REMARK  9 active torsions:
REMARK  status: ('A' for Active; 'I' for Inactive)
REMARK    1  A    between atoms: C_1  and  O_2
REMARK    2  A    between atoms: O_2  and  C_3
REMARK    3  A    between atoms: N_12  and  C_13
REMARK    4  A    between atoms: C_13  and  C_14
REMARK    5  A    between atoms: C_17  and  C_18
REMARK    6  A    between atoms: C_18  and  C_19
REMARK    7  A    between atoms: C_18  and  N_20
REMARK    8  A    between atoms: C_21  and  C_22
REMARK    9  A    between atoms: C_26  and  C_27
REMARK                            x       y       z     vdW  Elec       q    Type
REMARK                         _______ _______ _______ _____ _____    ______ ____
ROOT
ATOM      1  C   UNL     1      -5.370  12.243  19.344  0.00  0.00    +0.000 A 
ATOM      2  C   UNL     1      -4.584  13.033  20.180  0.00  0.00    +0.000 A 
ATOM      3  C   UNL     1      -3.196  12.871  20.197  0.00  0.00    +0.000 A 
ATOM      4  C   UNL     1      -2.566  11.921  19.373  0.00  0.00    +0.000 A 
ATOM      5  C   UNL     1      -3.359  11.105  18.556  0.00  0.00    +0.000 A 
ATOM      6  C   UNL     1      -4.752  11.263  18.562  0.00  0.00    +0.000 A 
ATOM      7  F   UNL     1      -5.501  10.470  17.780  0.00  0.00    +0.000 F 
ATOM      8  C   UNL     1      -2.729  10.019  17.728  0.00  0.00    +0.000 C 
ATOM      9  C   UNL     1      -1.228  10.241  17.504  0.00  0.00    +0.000 C 
ATOM     10  N   UNL     1      -0.545  10.563  18.766  0.00  0.00    +0.000 NA
ATOM     11  C   UNL     1      -1.043  11.837  19.344  0.00  0.00    +0.000 C 
ATOM     12  C   UNL     1      -0.488  13.115  18.679  0.00  0.00    +0.000 C 
ENDROOT
BRANCH   1  14
ATOM     13  C   UNL     1      -7.461  11.600  20.233  0.00  0.00    +0.000 C 
ATOM     14  O   UNL     1      -6.734  12.337  19.254  0.00  0.00    +0.000 OA
ENDBRANCH   1  14
BRANCH  10  15
ATOM     15  C   UNL     1       0.920  10.565  18.625  0.00  0.00    +0.000 C 
BRANCH  15  16
ATOM     16  C   UNL     1       1.569   9.207  18.784  0.00  0.00    +0.000 A 
ATOM     17  C   UNL     1       1.407   8.479  19.970  0.00  0.00    +0.000 A 
ATOM     18  C   UNL     1       1.973   7.210  20.107  0.00  0.00    +0.000 A 
ATOM     19  C   UNL     1       2.715   6.643  19.059  0.00  0.00    +0.000 A 
ATOM     20  C   UNL     1       2.877   7.380  17.876  0.00  0.00    +0.000 A 
ATOM     21  C   UNL     1       2.315   8.649  17.741  0.00  0.00    +0.000 A 
BRANCH  19  22
ATOM     22  C   UNL     1       3.355   5.280  19.236  0.00  0.00    +0.000 C 
ATOM     23  C   UNL     1       4.155   4.900  17.985  0.00  0.00    +0.000 C 
BRANCH  22  24
ATOM     24  N   UNL     1       2.349   4.274  19.550  0.00  0.00    +0.000 N 
ATOM     25  C   UNL     1       1.531   3.742  18.584  0.00  0.00    +0.000 C 
ATOM     26  C   UNL     1       0.510   2.759  19.094  0.00  0.00    +0.000 C 
ATOM     27  O   UNL     1       1.602   4.034  17.394  0.00  0.00    +0.000 OA
ATOM     28  H   UNL     1       2.217   4.015  20.518  0.00  0.00    +0.000 HD
ENDBRANCH  22  24
ENDBRANCH  19  22
ENDBRANCH  15  16
ENDBRANCH  10  15
TORSDOF 5
ENDMDL
MODEL 6
REMARK VINA RESULT:      -7.2      2.817      9.540
REMARK  Name = 
REMARK  9 active torsions:
REMARK  status: ('A' for Active; 'I' for Inactive)
REMARK    1  A    between atoms: C_1  and  O_2
REMARK    2  A    between atoms: O_2  and  C_3
REMARK    3  A    between atoms: N_12  and  C_13
REMARK    4  A    between atoms: C_13  and  C_14
REMARK    5  A    between atoms: C_17  and  C_18
REMARK    6  A    between atoms: C_18  and  C_19
REMARK    7  A    between atoms: C_18  and  N_20
REMARK    8  A    between atoms: C_21  and  C_22
REMARK    9  A    between atoms: C_26  and  C_27
REMARK                            x       y       z     vdW  Elec       q    Type
REMARK                         _______ _______ _______ _____ _____    ______ ____
ROOT
ATOM      1  C   UNL     1       3.444   4.714  19.137  0.00  0.00    +0.000 A 
ATOM      2  C   UNL     1       3.547   5.214  17.840  0.00  0.00    +0.000 A 
ATOM      3  C   UNL     1       2.980   6.450  17.518  0.00  0.00    +0.000 A 
ATOM      4  C   UNL     1       2.305   7.213  18.486  0.00  0.00    +0.000 A 
ATOM      5  C   UNL     1       2.174   6.697  19.782  0.00  0.00    +0.000 A 
ATOM      6  C   UNL     1       2.730   5.447  20.090  0.00  0.00    +0.000 A 
ATOM      7  F   UNL     1       2.591   4.961  21.332  0.00  0.00    +0.000 F 
ATOM      8  C   UNL     1       1.383   7.444  20.820  0.00  0.00    +0.000 C 
ATOM      9  C   UNL     1       1.211   8.930  20.477  0.00  0.00    +0.000 C 
ATOM     10  N   UNL     1       0.768   9.105  19.086  0.00  0.00    +0.000 NA
ATOM     11  C   UNL     1       1.782   8.601  18.125  0.00  0.00    +0.000 C 
ATOM     12  C   UNL     1       2.986   9.540  17.896  0.00  0.00    +0.000 C 
ENDROOT
BRANCH   1  14
ATOM     13  C   UNL     1       3.284   2.359  19.095  0.00  0.00    +0.000 C 
ATOM     14  O   UNL     1       3.975   3.519  19.547  0.00  0.00    +0.000 OA
ENDBRANCH   1  14
BRANCH  10  15
ATOM     15  C   UNL     1       0.383  10.494  18.792  0.00  0.00    +0.000 C 
BRANCH  15  16
ATOM     16  C   UNL     1      -1.096  10.698  18.544  0.00  0.00    +0.000 A 
ATOM     17  C   UNL     1      -1.774   9.904  17.609  0.00  0.00    +0.000 A 
ATOM     18  C   UNL     1      -3.146  10.063  17.403  0.00  0.00    +0.000 A 
ATOM     19  C   UNL     1      -3.868  11.022  18.129  0.00  0.00    +0.000 A 
ATOM     20  C   UNL     1      -3.182  11.818  19.059  0.00  0.00    +0.000 A 
ATOM     21  C   UNL     1      -1.811  11.661  19.262  0.00  0.00    +0.000 A 
BRANCH  19  22
ATOM     22  C   UNL     1      -5.351  11.210  17.869  0.00  0.00    +0.000 C 
ATOM     23  C   UNL     1      -5.576  12.336  16.853  0.00  0.00    +0.000 C 
BRANCH  22  24
ATOM     24  N   UNL     1      -6.064  11.464  19.113  0.00  0.00    +0.000 N 
ATOM     25  C   UNL     1      -6.934  10.547  19.650  0.00  0.00    +0.000 C 
ATOM     26  C   UNL     1      -7.628  10.998  20.907  0.00  0.00    +0.000 C 
ATOM     27  O   UNL     1      -7.150   9.444  19.156  0.00  0.00    +0.000 OA
ATOM     28  H   UNL     1      -5.955  12.368  19.552  0.00  0.00    +0.000 HD
ENDBRANCH  22  24
ENDBRANCH  19  22
ENDBRANCH  15  16
ENDBRANCH  10  15
TORSDOF 5
ENDMDL
MODEL 7
REMARK VINA RESULT:      -7.1      2.317      3.178
REMARK  Name = 
REMARK  9 active torsions:
REMARK  status: ('A' for Active; 'I' for Inactive)
REMARK    1  A    between atoms: C_1  and  O_2
REMARK    2  A    between atoms: O_2  and  C_3
REMARK    3  A    between atoms: N_12  and  C_13
REMARK    4  A    between atoms: C_13  and  C_14
REMARK    5  A    between atoms: C_17  and  C_18
REMARK    6  A    between atoms: C_18  and  C_19
REMARK    7  A    between atoms: C_18  and  N_20
REMARK    8  A    between atoms: C_21  and  C_22
REMARK    9  A    between atoms: C_26  and  C_27
REMARK                            x       y       z     vdW  Elec       q    Type
REMARK                         _______ _______ _______ _____ _____    ______ ____
ROOT
ATOM      1  C   UNL     1      -3.777  13.488  22.553  0.00  0.00    +0.000 A 
ATOM      2  C   UNL     1      -2.613  13.458  23.318  0.00  0.00    +0.000 A 
ATOM      3  C   UNL     1      -1.422  12.981  22.764  0.00  0.00    +0.000 A 
ATOM      4  C   UNL     1      -1.370  12.530  21.433  0.00  0.00    +0.000 A 
ATOM      5  C   UNL     1      -2.548  12.529  20.674  0.00  0.00    +0.000 A 
ATOM      6  C   UNL     1      -3.741  12.993  21.246  0.00  0.00    +0.000 A 
ATOM      7  F   UNL     1      -4.864  12.980  20.511  0.00  0.00    +0.000 F 
ATOM      8  C   UNL     1      -2.550  11.972  19.277  0.00  0.00    +0.000 C 
ATOM      9  C   UNL     1      -1.146  11.907  18.664  0.00  0.00    +0.000 C 
ATOM     10  N   UNL     1      -0.188  11.293  19.596  0.00  0.00    +0.000 NA
ATOM     11  C   UNL     1      -0.034  12.106  20.830  0.00  0.00    +0.000 C 
ATOM     12  C   UNL     1       0.861  13.355  20.679  0.00  0.00    +0.000 C 
ENDROOT
BRANCH   1  14
ATOM     13  C   UNL     1      -5.773  12.991  23.711  0.00  0.00    +0.000 C 
ATOM     14  O   UNL     1      -4.986  13.946  23.008  0.00  0.00    +0.000 OA
ENDBRANCH   1  14
BRANCH  10  15
ATOM     15  C   UNL     1       1.110  11.015  18.962  0.00  0.00    +0.000 C 
BRANCH  15  16
ATOM     16  C   UNL     1       1.537   9.564  19.012  0.00  0.00    +0.000 A 
ATOM     17  C   UNL     1       2.155   8.968  17.905  0.00  0.00    +0.000 A 
ATOM     18  C   UNL     1       2.585   7.640  17.960  0.00  0.00    +0.000 A 
ATOM     19  C   UNL     1       2.401   6.880  19.125  0.00  0.00    +0.000 A 
ATOM     20  C   UNL     1       1.776   7.482  20.228  0.00  0.00    +0.000 A 
ATOM     21  C   UNL     1       1.344   8.806  20.172  0.00  0.00    +0.000 A 
BRANCH  19  22
ATOM     22  C   UNL     1       2.838   5.428  19.159  0.00  0.00    +0.000 C 
ATOM     23  C   UNL     1       2.768   4.817  17.754  0.00  0.00    +0.000 C 
BRANCH  22  24
ATOM     24  N   UNL     1       2.036   4.670  20.110  0.00  0.00    +0.000 N 
ATOM     25  C   UNL     1       2.441   3.447  20.585  0.00  0.00    +0.000 C 
ATOM     26  C   UNL     1       1.463   2.777  21.514  0.00  0.00    +0.000 C 
ATOM     27  O   UNL     1       3.506   2.917  20.283  0.00  0.00    +0.000 OA
ATOM     28  H   UNL     1       1.132   5.037  20.373  0.00  0.00    +0.000 HD
ENDBRANCH  22  24
ENDBRANCH  19  22
ENDBRANCH  15  16
ENDBRANCH  10  15
TORSDOF 5
ENDMDL
MODEL 8
REMARK VINA RESULT:      -7.1      3.733      9.879
REMARK  Name = 
REMARK  9 active torsions:
REMARK  status: ('A' for Active; 'I' for Inactive)
REMARK    1  A    between atoms: C_1  and  O_2
REMARK    2  A    between atoms: O_2  and  C_3
REMARK    3  A    between atoms: N_12  and  C_13
REMARK    4  A    between atoms: C_13  and  C_14
REMARK    5  A    between atoms: C_17  and  C_18
REMARK    6  A    between atoms: C_18  and  C_19
REMARK    7  A    between atoms: C_18  and  N_20
REMARK    8  A    between atoms: C_21  and  C_22
REMARK    9  A    between atoms: C_26  and  C_27
REMARK                            x       y       z     vdW  Elec       q    Type
REMARK                         _______ _______ _______ _____ _____    ______ ____
ROOT
ATOM      1  C   UNL     1       5.821   5.294  16.485  0.00  0.00    +0.000 A 
ATOM      2  C   UNL     1       5.914   4.485  17.616  0.00  0.00    +0.000 A 
ATOM      3  C   UNL     1       5.058   4.695  18.701  0.00  0.00    +0.000 A 
ATOM      4  C   UNL     1       4.089   5.714  18.674  0.00  0.00    +0.000 A 
ATOM      5  C   UNL     1       4.017   6.548  17.550  0.00  0.00    +0.000 A 
ATOM      6  C   UNL     1       4.894   6.340  16.476  0.00  0.00    +0.000 A 
ATOM      7  F   UNL     1       4.819   7.150  15.409  0.00  0.00    +0.000 F 
ATOM      8  C   UNL     1       3.053   7.702  17.522  0.00  0.00    +0.000 C 
ATOM      9  C   UNL     1       1.914   7.547  18.538  0.00  0.00    +0.000 C 
ATOM     10  N   UNL     1       2.432   7.176  19.864  0.00  0.00    +0.000 NA
ATOM     11  C   UNL     1       3.107   5.853  19.833  0.00  0.00    +0.000 C 
ATOM     12  C   UNL     1       2.156   4.637  19.828  0.00  0.00    +0.000 C 
ENDROOT
BRANCH   1  14
ATOM     13  C   UNL     1       6.165   4.189  14.427  0.00  0.00    +0.000 C 
ATOM     14  O   UNL     1       6.610   5.157  15.373  0.00  0.00    +0.000 OA
ENDBRANCH   1  14
BRANCH  10  15
ATOM     15  C   UNL     1       1.395   7.235  20.906  0.00  0.00    +0.000 C 
BRANCH  15  16
ATOM     16  C   UNL     1       0.818   8.613  21.142  0.00  0.00    +0.000 A 
ATOM     17  C   UNL     1       0.885   9.591  20.140  0.00  0.00    +0.000 A 
ATOM     18  C   UNL     1       0.319  10.852  20.339  0.00  0.00    +0.000 A 
ATOM     19  C   UNL     1      -0.323  11.162  21.547  0.00  0.00    +0.000 A 
ATOM     20  C   UNL     1      -0.382  10.180  22.548  0.00  0.00    +0.000 A 
ATOM     21  C   UNL     1       0.185   8.922  22.350  0.00  0.00    +0.000 A 
BRANCH  19  22
ATOM     22  C   UNL     1      -0.900  12.548  21.764  0.00  0.00    +0.000 C 
ATOM     23  C   UNL     1       0.226  13.577  21.916  0.00  0.00    +0.000 C 
BRANCH  22  24
ATOM     24  N   UNL     1      -1.792  12.561  22.915  0.00  0.00    +0.000 N 
ATOM     25  C   UNL     1      -3.158  12.576  22.773  0.00  0.00    +0.000 C 
ATOM     26  C   UNL     1      -3.925  12.648  24.067  0.00  0.00    +0.000 C 
ATOM     27  O   UNL     1      -3.730  12.543  21.687  0.00  0.00    +0.000 OA
ATOM     28  H   UNL     1      -1.383  12.622  23.838  0.00  0.00    +0.000 HD
ENDBRANCH  22  24
ENDBRANCH  19  22
ENDBRANCH  15  16
ENDBRANCH  10  15
TORSDOF 5
ENDMDL
MODEL 9
REMARK VINA RESULT:      -7.0      2.348      3.187
REMARK  Name = 
REMARK  9 active torsions:
REMARK  status: ('A' for Active; 'I' for Inactive)
REMARK    1  A    between atoms: C_1  and  O_2
REMARK    2  A    between atoms: O_2  and  C_3
REMARK    3  A    between atoms: N_12  and  C_13
REMARK    4  A    between atoms: C_13  and  C_14
REMARK    5  A    between atoms: C_17  and  C_18
REMARK    6  A    between atoms: C_18  and  C_19
REMARK    7  A    between atoms: C_18  and  N_20
REMARK    8  A    between atoms: C_21  and  C_22
REMARK    9  A    between atoms: C_26  and  C_27
REMARK                            x       y       z     vdW  Elec       q    Type
REMARK                         _______ _______ _______ _____ _____    ______ ____
ROOT
ATOM      1  C   UNL     1      -3.321  13.422  22.599  0.00  0.00    +0.000 A 
ATOM      2  C   UNL     1      -2.102  13.256  23.253  0.00  0.00    +0.000 A 
ATOM      3  C   UNL     1      -1.009  12.711  22.573  0.00  0.00    +0.000 A 
ATOM      4  C   UNL     1      -1.112  12.328  21.224  0.00  0.00    +0.000 A 
ATOM      5  C   UNL     1      -2.347  12.464  20.575  0.00  0.00    +0.000 A 
ATOM      6  C   UNL     1      -3.441  12.994  21.273  0.00  0.00    +0.000 A 
ATOM      7  F   UNL     1      -4.619  13.114  20.643  0.00  0.00    +0.000 F 
ATOM      8  C   UNL     1      -2.518  11.983  19.160  0.00  0.00    +0.000 C 
ATOM      9  C   UNL     1      -1.182  11.834  18.421  0.00  0.00    +0.000 C 
ATOM     10  N   UNL     1      -0.205  11.095  19.235  0.00  0.00    +0.000 NA
ATOM     11  C   UNL     1       0.125  11.827  20.485  0.00  0.00    +0.000 C 
ATOM     12  C   UNL     1       1.109  13.004  20.309  0.00  0.00    +0.000 C 
ENDROOT
BRANCH   1  14
ATOM     13  C   UNL     1      -5.164  13.070  24.031  0.00  0.00    +0.000 C 
ATOM     14  O   UNL     1      -4.442  13.954  23.181  0.00  0.00    +0.000 OA
ENDBRANCH   1  14
BRANCH  10  15
ATOM     15  C   UNL     1       1.005  10.743  18.474  0.00  0.00    +0.000 C 
BRANCH  15  16
ATOM     16  C   UNL     1       1.563   9.371  18.779  0.00  0.00    +0.000 A 
ATOM     17  C   UNL     1       1.328   8.771  20.024  0.00  0.00    +0.000 A 
ATOM     18  C   UNL     1       1.809   7.488  20.296  0.00  0.00    +0.000 A 
ATOM     19  C   UNL     1       2.537   6.780  19.329  0.00  0.00    +0.000 A 
ATOM     20  C   UNL     1       2.773   7.389  18.086  0.00  0.00    +0.000 A 
ATOM     21  C   UNL     1       2.296   8.671  17.815  0.00  0.00    +0.000 A 
BRANCH  19  22
ATOM     22  C   UNL     1       3.086   5.403  19.651  0.00  0.00    +0.000 C 
ATOM     23  C   UNL     1       4.556   5.301  19.227  0.00  0.00    +0.000 C 
BRANCH  22  24
ATOM     24  N   UNL     1       2.277   4.366  19.024  0.00  0.00    +0.000 N 
ATOM     25  C   UNL     1       2.082   3.143  19.618  0.00  0.00    +0.000 C 
ATOM     26  C   UNL     1       1.268   2.171  18.804  0.00  0.00    +0.000 C 
ATOM     27  O   UNL     1       2.531   2.840  20.719  0.00  0.00    +0.000 OA
ATOM     28  H   UNL     1       1.907   4.541  18.101  0.00  0.00    +0.000 HD
ENDBRANCH  22  24
ENDBRANCH  19  22
ENDBRANCH  15  16
ENDBRANCH  10  15
TORSDOF 5
ENDMDL
