MODEL 1
REMARK VINA RESULT:      -6.0      0.000      0.000
REMARK  Name = 
REMARK  9 active torsions:
REMARK  status: ('A' for Active; 'I' for Inactive)
REMARK    1  A    between atoms: C_1  and  O_2
REMARK    2  A    between atoms: O_2  and  C_3
REMARK    3  A    between atoms: C_3  and  C_4
REMARK    4  A    between atoms: C_4  and  C_5
REMARK    5  A    between atoms: C_4  and  N_8
REMARK    6  A    between atoms: C_10  and  C_11
REMARK    7  A    between atoms: N_14  and  C_15
REMARK    8  A    between atoms: C_19  and  O_20
REMARK    9  A    between atoms: O_20  and  C_21
REMARK                            x       y       z     vdW  Elec       q    Type
REMARK                         _______ _______ _______ _____ _____    ______ ____
ROOT
ATOM      1  N   UNL     1       0.892  10.510  19.426  0.00  0.00    +0.000 N 
ATOM      2  N   UNL     1       0.876  10.361  20.794  0.00  0.00    +0.000 NA
ATOM      3  C   UNL     1       1.243   9.228  21.306  0.00  0.00    +0.000 A 
ATOM      4  C   UNL     1       1.337   9.073  22.796  0.00  0.00    +0.000 C 
ATOM      5  N   UNL     1       1.594   8.112  20.604  0.00  0.00    +0.000 NA
ATOM      6  C   UNL     1       1.723   8.215  19.315  0.00  0.00    +0.000 A 
ATOM      7  N   UNL     1       2.125   7.172  18.500  0.00  0.00    +0.000 N 
ATOM      8  C   UNL     1       1.399   9.528  18.601  0.00  0.00    +0.000 A 
ATOM      9  O   UNL     1       1.589   9.579  17.391  0.00  0.00    +0.000 OA
ATOM     10  H   UNL     1       2.214   7.428  17.516  0.00  0.00    +0.000 HD
ENDROOT
BRANCH   7  11
ATOM     11  C   UNL     1       3.004   6.125  18.869  0.00  0.00    +0.000 A 
ATOM     12  C   UNL     1       2.498   5.051  19.634  0.00  0.00    +0.000 A 
ATOM     13 CL   UNL     1       0.864   5.066  20.218  0.00  0.00    +0.000 Cl
ATOM     14  C   UNL     1       3.278   3.930  19.940  0.00  0.00    +0.000 A 
ATOM     15  C   UNL     1       4.585   3.839  19.468  0.00  0.00    +0.000 A 
ATOM     16  C   UNL     1       5.118   4.890  18.731  0.00  0.00    +0.000 A 
ATOM     17  C   UNL     1       4.336   6.011  18.417  0.00  0.00    +0.000 A 
ATOM     18 CL   UNL     1       5.083   7.159  17.353  0.00  0.00    +0.000 Cl
BRANCH  15  19
ATOM     19  O   UNL     1       5.261   2.697  19.799  0.00  0.00    +0.000 OA
ATOM     20  C   UNL     1       4.507   1.735  20.533  0.00  0.00    +0.000 C 
ENDBRANCH  15  19
ENDBRANCH   7  11
BRANCH   1  21
ATOM     21  C   UNL     1       0.450  11.797  18.873  0.00  0.00    +0.000 C 
BRANCH  21  22
ATOM     22  C   UNL     1       1.453  12.889  19.200  0.00  0.00    +0.000 C 
ATOM     23  C   UNL     1       2.705  13.104  18.380  0.00  0.00    +0.000 C 
ATOM     24  C   UNL     1       1.577  14.088  18.287  0.00  0.00    +0.000 C 
ENDBRANCH  21  22
BRANCH  21  25
ATOM     25  C   UNL     1      -0.958  12.150  19.403  0.00  0.00    +0.000 C 
BRANCH  25  27
ATOM     26  C   UNL     1      -2.086  11.452  17.456  0.00  0.00    +0.000 C 
ATOM     27  O   UNL     1      -1.950  11.270  18.861  0.00  0.00    +0.000 OA
ENDBRANCH  25  27
ENDBRANCH  21  25
ENDBRANCH   1  21
TORSDOF 6
ENDMDL
MODEL 2
REMARK VINA RESULT:      -5.7      6.054      8.377
REMARK  Name = 
REMARK  9 active torsions:
REMARK  status: ('A' for Active; 'I' for Inactive)
REMARK    1  A    between atoms: C_1  and  O_2
REMARK    2  A    between atoms: O_2  and  C_3
REMARK    3  A    between atoms: C_3  and  C_4
REMARK    4  A    between atoms: C_4  and  C_5
REMARK    5  A    between atoms: C_4  and  N_8
REMARK    6  A    between atoms: C_10  and  C_11
REMARK    7  A    between atoms: N_14  and  C_15
REMARK    8  A    between atoms: C_19  and  O_20
REMARK    9  A    between atoms: O_20  and  C_21
REMARK                            x       y       z     vdW  Elec       q    Type
REMARK                         _______ _______ _______ _____ _____    ______ ____
ROOT
ATOM      1  N   UNL     1       0.371  13.525  20.745  0.00  0.00    +0.000 N 
ATOM      2  N   UNL     1       0.379  12.537  21.703  0.00  0.00    +0.000 NA
ATOM      3  C   UNL     1      -0.730  11.928  21.985  0.00  0.00    +0.000 A 
ATOM      4  C   UNL     1      -0.729  10.775  22.945  0.00  0.00    +0.000 C 
ATOM      5  N   UNL     1      -1.956  12.221  21.462  0.00  0.00    +0.000 NA
ATOM      6  C   UNL     1      -2.016  13.075  20.486  0.00  0.00    +0.000 A 
ATOM      7  N   UNL     1      -3.190  13.415  19.837  0.00  0.00    +0.000 N 
ATOM      8  C   UNL     1      -0.759  13.800  20.003  0.00  0.00    +0.000 A 
ATOM      9  O   UNL     1      -0.870  14.556  19.046  0.00  0.00    +0.000 OA
ATOM     10  H   UNL     1      -3.061  14.072  19.066  0.00  0.00    +0.000 HD
ENDROOT
BRANCH   7  11
ATOM     11  C   UNL     1      -4.304  12.562  19.640  0.00  0.00    +0.000 A 
ATOM     12  C   UNL     1      -4.276  11.648  18.564  0.00  0.00    +0.000 A 
ATOM     13 CL   UNL     1      -2.963  11.647  17.429  0.00  0.00    +0.000 Cl
ATOM     14  C   UNL     1      -5.287  10.700  18.374  0.00  0.00    +0.000 A 
ATOM     15  C   UNL     1      -6.349  10.622  19.272  0.00  0.00    +0.000 A 
ATOM     16  C   UNL     1      -6.415  11.523  20.328  0.00  0.00    +0.000 A 
ATOM     17  C   UNL     1      -5.399  12.470  20.524  0.00  0.00    +0.000 A 
ATOM     18 CL   UNL     1      -5.534  13.410  21.976  0.00  0.00    +0.000 Cl
BRANCH  15  19
ATOM     19  O   UNL     1      -7.276   9.650  19.018  0.00  0.00    +0.000 OA
ATOM     20  C   UNL     1      -7.336   8.599  19.981  0.00  0.00    +0.000 C 
ENDBRANCH  15  19
ENDBRANCH   7  11
BRANCH   1  21
ATOM     21  C   UNL     1       1.638  14.212  20.461  0.00  0.00    +0.000 C 
BRANCH  21  22
ATOM     22  C   UNL     1       2.582  13.296  19.704  0.00  0.00    +0.000 C 
ATOM     23  C   UNL     1       2.140  12.508  18.492  0.00  0.00    +0.000 C 
ATOM     24  C   UNL     1       3.055  13.685  18.321  0.00  0.00    +0.000 C 
ENDBRANCH  21  22
BRANCH  21  25
ATOM     25  C   UNL     1       2.277  14.718  21.774  0.00  0.00    +0.000 C 
BRANCH  25  27
ATOM     26  C   UNL     1       4.517  14.954  22.463  0.00  0.00    +0.000 C 
ATOM     27  O   UNL     1       3.510  14.041  22.044  0.00  0.00    +0.000 OA
ENDBRANCH  25  27
ENDBRANCH  21  25
ENDBRANCH   1  21
TORSDOF 6
ENDMDL
MODEL 3
REMARK VINA RESULT:      -5.7      0.398      1.837
REMARK  Name = 
REMARK  9 active torsions:
REMARK  status: ('A' for Active; 'I' for Inactive)
REMARK    1  A    between atoms: C_1  and  O_2
REMARK    2  A    between atoms: O_2  and  C_3
REMARK    3  A    between atoms: C_3  and  C_4
REMARK    4  A    between atoms: C_4  and  C_5
REMARK    5  A    between atoms: C_4  and  N_8
REMARK    6  A    between atoms: C_10  and  C_11
REMARK    7  A    between atoms: N_14  and  C_15
REMARK    8  A    between atoms: C_19  and  O_20
REMARK    9  A    between atoms: O_20  and  C_21
REMARK                            x       y       z     vdW  Elec       q    Type
REMARK                         _______ _______ _______ _____ _____    ______ ____
ROOT
ATOM      1  N   UNL     1       1.050  10.738  19.458  0.00  0.00    +0.000 N 
ATOM      2  N   UNL     1       0.981  10.521  20.816  0.00  0.00    +0.000 NA
ATOM      3  C   UNL     1       1.213   9.331  21.273  0.00  0.00    +0.000 A 
ATOM      4  C   UNL     1       1.249   9.091  22.754  0.00  0.00    +0.000 C 
ATOM      5  N   UNL     1       1.462   8.221  20.519  0.00  0.00    +0.000 NA
ATOM      6  C   UNL     1       1.636   8.376  19.241  0.00  0.00    +0.000 A 
ATOM      7  N   UNL     1       1.947   7.339  18.379  0.00  0.00    +0.000 N 
ATOM      8  C   UNL     1       1.472   9.751  18.592  0.00  0.00    +0.000 A 
ATOM      9  O   UNL     1       1.699   9.845  17.392  0.00  0.00    +0.000 OA
ATOM     10  H   UNL     1       2.089   7.635  17.413  0.00  0.00    +0.000 HD
ENDROOT
BRANCH   7  11
ATOM     11  C   UNL     1       2.701   6.186  18.710  0.00  0.00    +0.000 A 
ATOM     12  C   UNL     1       4.026   6.082  18.234  0.00  0.00    +0.000 A 
ATOM     13 CL   UNL     1       4.685   7.280  17.165  0.00  0.00    +0.000 Cl
ATOM     14  C   UNL     1       4.866   5.029  18.611  0.00  0.00    +0.000 A 
ATOM     15  C   UNL     1       4.411   4.056  19.497  0.00  0.00    +0.000 A 
ATOM     16  C   UNL     1       3.103   4.120  19.966  0.00  0.00    +0.000 A 
ATOM     17  C   UNL     1       2.262   5.179  19.594  0.00  0.00    +0.000 A 
ATOM     18 CL   UNL     1       0.721   5.212  20.389  0.00  0.00    +0.000 Cl
BRANCH  15  19
ATOM     19  O   UNL     1       5.309   3.079  19.825  0.00  0.00    +0.000 OA
ATOM     20  C   UNL     1       4.739   1.813  20.150  0.00  0.00    +0.000 C 
ENDBRANCH  15  19
ENDBRANCH   7  11
BRANCH   1  21
ATOM     21  C   UNL     1       0.762  12.092  18.966  0.00  0.00    +0.000 C 
BRANCH  21  22
ATOM     22  C   UNL     1       1.951  13.007  19.200  0.00  0.00    +0.000 C 
ATOM     23  C   UNL     1       3.034  13.200  18.163  0.00  0.00    +0.000 C 
ATOM     24  C   UNL     1       2.057  14.306  18.433  0.00  0.00    +0.000 C 
ENDBRANCH  21  22
BRANCH  21  25
ATOM     25  C   UNL     1      -0.514  12.645  19.641  0.00  0.00    +0.000 C 
BRANCH  25  27
ATOM     26  C   UNL     1      -1.731  11.899  17.767  0.00  0.00    +0.000 C 
ATOM     27  O   UNL     1      -1.681  11.948  19.188  0.00  0.00    +0.000 OA
ENDBRANCH  25  27
ENDBRANCH  21  25
ENDBRANCH   1  21
TORSDOF 6
ENDMDL
MODEL 4
REMARK VINA RESULT:      -5.7      2.831      7.834
REMARK  Name = 
REMARK  9 active torsions:
REMARK  status: ('A' for Active; 'I' for Inactive)
REMARK    1  A    between atoms: C_1  and  O_2
REMARK    2  A    between atoms: O_2  and  C_3
REMARK    3  A    between atoms: C_3  and  C_4
REMARK    4  A    between atoms: C_4  and  C_5
REMARK    5  A    between atoms: C_4  and  N_8
REMARK    6  A    between atoms: C_10  and  C_11
REMARK    7  A    between atoms: N_14  and  C_15
REMARK    8  A    between atoms: C_19  and  O_20
REMARK    9  A    between atoms: O_20  and  C_21
REMARK                            x       y       z     vdW  Elec       q    Type
REMARK                         _______ _______ _______ _____ _____    ______ ____
ROOT
ATOM      1  N   UNL     1       2.431   7.620  18.647  0.00  0.00    +0.000 N 
ATOM      2  N   UNL     1       2.135   7.290  19.950  0.00  0.00    +0.000 NA
ATOM      3  C   UNL     1       1.432   8.114  20.661  0.00  0.00    +0.000 A 
ATOM      4  C   UNL     1       1.005   7.731  22.048  0.00  0.00    +0.000 C 
ATOM      5  N   UNL     1       0.997   9.343  20.260  0.00  0.00    +0.000 NA
ATOM      6  C   UNL     1       1.160   9.674  19.015  0.00  0.00    +0.000 A 
ATOM      7  N   UNL     1       0.715  10.868  18.475  0.00  0.00    +0.000 N 
ATOM      8  C   UNL     1       1.902   8.746  18.051  0.00  0.00    +0.000 A 
ATOM      9  O   UNL     1       1.979   9.089  16.877  0.00  0.00    +0.000 OA
ATOM     10  H   UNL     1       0.887  10.956  17.473  0.00  0.00    +0.000 HD
ENDROOT
BRANCH   7  11
ATOM     11  C   UNL     1      -0.429  11.590  18.894  0.00  0.00    +0.000 A 
ATOM     12  C   UNL     1      -1.693  11.212  18.392  0.00  0.00    +0.000 A 
ATOM     13 CL   UNL     1      -1.838   9.967  17.192  0.00  0.00    +0.000 Cl
ATOM     14  C   UNL     1      -2.876  11.805  18.845  0.00  0.00    +0.000 A 
ATOM     15  C   UNL     1      -2.831  12.783  19.836  0.00  0.00    +0.000 A 
ATOM     16  C   UNL     1      -1.600  13.192  20.335  0.00  0.00    +0.000 A 
ATOM     17  C   UNL     1      -0.413  12.594  19.886  0.00  0.00    +0.000 A 
ATOM     18 CL   UNL     1       1.026  13.089  20.719  0.00  0.00    +0.000 Cl
BRANCH  15  19
ATOM     19  O   UNL     1      -4.038  13.288  20.232  0.00  0.00    +0.000 OA
ATOM     20  C   UNL     1      -4.490  12.852  21.513  0.00  0.00    +0.000 C 
ENDBRANCH  15  19
ENDBRANCH   7  11
BRANCH   1  21
ATOM     21  C   UNL     1       3.247   6.677  17.870  0.00  0.00    +0.000 C 
BRANCH  21  22
ATOM     22  C   UNL     1       3.020   5.256  18.351  0.00  0.00    +0.000 C 
ATOM     23  C   UNL     1       1.824   4.440  17.916  0.00  0.00    +0.000 C 
ATOM     24  C   UNL     1       3.186   4.103  17.386  0.00  0.00    +0.000 C 
ENDBRANCH  21  22
BRANCH  21  25
ATOM     25  C   UNL     1       4.741   7.068  17.956  0.00  0.00    +0.000 C 
BRANCH  25  27
ATOM     26  C   UNL     1       6.630   6.124  16.913  0.00  0.00    +0.000 C 
ATOM     27  O   UNL     1       5.410   6.827  16.712  0.00  0.00    +0.000 OA
ENDBRANCH  25  27
ENDBRANCH  21  25
ENDBRANCH   1  21
TORSDOF 6
ENDMDL
MODEL 5
REMARK VINA RESULT:      -5.6      6.754      9.092
REMARK  Name = 
REMARK  9 active torsions:
REMARK  status: ('A' for Active; 'I' for Inactive)
REMARK    1  A    between atoms: C_1  and  O_2
REMARK    2  A    between atoms: O_2  and  C_3
REMARK    3  A    between atoms: C_3  and  C_4
REMARK    4  A    between atoms: C_4  and  C_5
REMARK    5  A    between atoms: C_4  and  N_8
REMARK    6  A    between atoms: C_10  and  C_11
REMARK    7  A    between atoms: N_14  and  C_15
REMARK    8  A    between atoms: C_19  and  O_20
REMARK    9  A    between atoms: O_20  and  C_21
REMARK                            x       y       z     vdW  Elec       q    Type
REMARK                         _______ _______ _______ _____ _____    ______ ____
ROOT
ATOM      1  N   UNL     1      -5.759  13.222  22.285  0.00  0.00    +0.000 N 
ATOM      2  N   UNL     1      -6.767  12.297  22.132  0.00  0.00    +0.000 NA
ATOM      3  C   UNL     1      -6.822  11.607  21.036  0.00  0.00    +0.000 A 
ATOM      4  C   UNL     1      -7.844  10.518  20.887  0.00  0.00    +0.000 C 
ATOM      5  N   UNL     1      -5.999  11.754  19.958  0.00  0.00    +0.000 NA
ATOM      6  C   UNL     1      -4.972  12.540  20.075  0.00  0.00    +0.000 A 
ATOM      7  N   UNL     1      -4.036  12.732  19.075  0.00  0.00    +0.000 N 
ATOM      8  C   UNL     1      -4.749  13.348  21.355  0.00  0.00    +0.000 A 
ATOM      9  O   UNL     1      -3.735  14.032  21.426  0.00  0.00    +0.000 OA
ATOM     10  H   UNL     1      -3.269  13.351  19.340  0.00  0.00    +0.000 HD
ENDROOT
BRANCH   7  11
ATOM     11  C   UNL     1      -3.647  11.770  18.111  0.00  0.00    +0.000 A 
ATOM     12  C   UNL     1      -4.410  11.646  16.928  0.00  0.00    +0.000 A 
ATOM     13 CL   UNL     1      -5.865  12.565  16.708  0.00  0.00    +0.000 Cl
ATOM     14  C   UNL     1      -4.023  10.799  15.885  0.00  0.00    +0.000 A 
ATOM     15  C   UNL     1      -2.844  10.063  15.983  0.00  0.00    +0.000 A 
ATOM     16  C   UNL     1      -2.083  10.147  17.144  0.00  0.00    +0.000 A 
ATOM     17  C   UNL     1      -2.466  11.002  18.188  0.00  0.00    +0.000 A 
ATOM     18 CL   UNL     1      -1.332  11.125  19.495  0.00  0.00    +0.000 Cl
BRANCH  15  19
ATOM     19  O   UNL     1      -2.537   9.281  14.905  0.00  0.00    +0.000 OA
ATOM     20  C   UNL     1      -2.933   9.806  13.639  0.00  0.00    +0.000 C 
ENDBRANCH  15  19
ENDBRANCH   7  11
BRANCH   1  21
ATOM     21  C   UNL     1      -5.733  14.005  23.528  0.00  0.00    +0.000 C 
BRANCH  21  22
ATOM     22  C   UNL     1      -5.077  13.210  24.643  0.00  0.00    +0.000 C 
ATOM     23  C   UNL     1      -3.925  12.265  24.389  0.00  0.00    +0.000 C 
ATOM     24  C   UNL     1      -3.678  13.565  25.093  0.00  0.00    +0.000 C 
ENDBRANCH  21  22
BRANCH  21  25
ATOM     25  C   UNL     1      -7.164  14.441  23.915  0.00  0.00    +0.000 C 
BRANCH  25  27
ATOM     26  C   UNL     1      -7.512  16.679  23.268  0.00  0.00    +0.000 C 
ATOM     27  O   UNL     1      -7.724  15.314  22.927  0.00  0.00    +0.000 OA
ENDBRANCH  25  27
ENDBRANCH  21  25
ENDBRANCH   1  21
TORSDOF 6
ENDMDL
MODEL 6
REMARK VINA RESULT:      -5.5      5.375      7.997
REMARK  Name = 
REMARK  9 active torsions:
REMARK  status: ('A' for Active; 'I' for Inactive)
REMARK    1  A    between atoms: C_1  and  O_2
REMARK    2  A    between atoms: O_2  and  C_3
REMARK    3  A    between atoms: C_3  and  C_4
REMARK    4  A    between atoms: C_4  and  C_5
REMARK    5  A    between atoms: C_4  and  N_8
REMARK    6  A    between atoms: C_10  and  C_11
REMARK    7  A    between atoms: N_14  and  C_15
REMARK    8  A    between atoms: C_19  and  O_20
REMARK    9  A    between atoms: O_20  and  C_21
REMARK                            x       y       z     vdW  Elec       q    Type
REMARK                         _______ _______ _______ _____ _____    ______ ____
ROOT
ATOM      1  N   UNL     1      -5.300  13.887  21.377  0.00  0.00    +0.000 N 
ATOM      2  N   UNL     1      -5.932  13.161  20.393  0.00  0.00    +0.000 NA
ATOM      3  C   UNL     1      -5.222  12.392  19.628  0.00  0.00    +0.000 A 
ATOM      4  C   UNL     1      -5.897  11.510  18.619  0.00  0.00    +0.000 C 
ATOM      5  N   UNL     1      -3.863  12.274  19.656  0.00  0.00    +0.000 NA
ATOM      6  C   UNL     1      -3.218  12.857  20.621  0.00  0.00    +0.000 A 
ATOM      7  N   UNL     1      -1.847  12.768  20.789  0.00  0.00    +0.000 N 
ATOM      8  C   UNL     1      -3.956  13.726  21.640  0.00  0.00    +0.000 A 
ATOM      9  O   UNL     1      -3.301  14.208  22.557  0.00  0.00    +0.000 OA
ATOM     10  H   UNL     1      -1.501  13.252  21.619  0.00  0.00    +0.000 HD
ENDROOT
BRANCH   7  11
ATOM     11  C   UNL     1      -1.040  11.661  20.431  0.00  0.00    +0.000 A 
ATOM     12  C   UNL     1      -0.487  11.616  19.132  0.00  0.00    +0.000 A 
ATOM     13 CL   UNL     1      -0.882  12.826  17.954  0.00  0.00    +0.000 Cl
ATOM     14  C   UNL     1       0.408  10.613  18.745  0.00  0.00    +0.000 A 
ATOM     15  C   UNL     1       0.797   9.634  19.656  0.00  0.00    +0.000 A 
ATOM     16  C   UNL     1       0.253   9.639  20.936  0.00  0.00    +0.000 A 
ATOM     17  C   UNL     1      -0.640  10.648  21.328  0.00  0.00    +0.000 A 
ATOM     18 CL   UNL     1      -1.102  10.617  23.000  0.00  0.00    +0.000 Cl
BRANCH  15  19
ATOM     19  O   UNL     1       1.692   8.710  19.195  0.00  0.00    +0.000 OA
ATOM     20  C   UNL     1       2.113   8.892  17.844  0.00  0.00    +0.000 C 
ENDBRANCH  15  19
ENDBRANCH   7  11
BRANCH   1  21
ATOM     21  C   UNL     1      -6.126  14.766  22.215  0.00  0.00    +0.000 C 
BRANCH  21  22
ATOM     22  C   UNL     1      -7.345  14.021  22.728  0.00  0.00    +0.000 C 
ATOM     23  C   UNL     1      -7.235  12.868  23.700  0.00  0.00    +0.000 C 
ATOM     24  C   UNL     1      -7.773  14.187  24.169  0.00  0.00    +0.000 C 
ENDBRANCH  21  22
BRANCH  21  25
ATOM     25  C   UNL     1      -6.532  16.031  21.424  0.00  0.00    +0.000 C 
BRANCH  25  27
ATOM     26  C   UNL     1      -7.907  16.212  19.520  0.00  0.00    +0.000 C 
ATOM     27  O   UNL     1      -7.864  15.915  20.911  0.00  0.00    +0.000 OA
ENDBRANCH  25  27
ENDBRANCH  21  25
ENDBRANCH   1  21
TORSDOF 6
ENDMDL
MODEL 7
REMARK VINA RESULT:      -5.4      1.011      2.017
REMARK  Name = 
REMARK  9 active torsions:
REMARK  status: ('A' for Active; 'I' for Inactive)
REMARK    1  A    between atoms: C_1  and  O_2
REMARK    2  A    between atoms: O_2  and  C_3
REMARK    3  A    between atoms: C_3  and  C_4
REMARK    4  A    between atoms: C_4  and  C_5
REMARK    5  A    between atoms: C_4  and  N_8
REMARK    6  A    between atoms: C_10  and  C_11
REMARK    7  A    between atoms: N_14  and  C_15
REMARK    8  A    between atoms: C_19  and  O_20
REMARK    9  A    between atoms: O_20  and  C_21
REMARK                            x       y       z     vdW  Elec       q    Type
REMARK                         _______ _______ _______ _____ _____    ______ ____
ROOT
ATOM      1  N   UNL     1       0.948  10.448  19.526  0.00  0.00    +0.000 N 
ATOM      2  N   UNL     1       0.941  10.289  20.893  0.00  0.00    +0.000 NA
ATOM      3  C   UNL     1       1.303   9.149  21.393  0.00  0.00    +0.000 A 
ATOM      4  C   UNL     1       1.407   8.983  22.881  0.00  0.00    +0.000 C 
ATOM      5  N   UNL     1       1.638   8.035  20.680  0.00  0.00    +0.000 NA
ATOM      6  C   UNL     1       1.757   8.146  19.392  0.00  0.00    +0.000 A 
ATOM      7  N   UNL     1       2.143   7.105  18.566  0.00  0.00    +0.000 N 
ATOM      8  C   UNL     1       1.439   9.467  18.689  0.00  0.00    +0.000 A 
ATOM      9  O   UNL     1       1.620   9.526  17.479  0.00  0.00    +0.000 OA
ATOM     10  H   UNL     1       2.226   7.368  17.583  0.00  0.00    +0.000 HD
ENDROOT
BRANCH   7  11
ATOM     11  C   UNL     1       3.016   6.048  18.920  0.00  0.00    +0.000 A 
ATOM     12  C   UNL     1       2.504   4.967  19.671  0.00  0.00    +0.000 A 
ATOM     13 CL   UNL     1       0.870   4.984  20.255  0.00  0.00    +0.000 Cl
ATOM     14  C   UNL     1       3.276   3.838  19.961  0.00  0.00    +0.000 A 
ATOM     15  C   UNL     1       4.583   3.744  19.488  0.00  0.00    +0.000 A 
ATOM     16  C   UNL     1       5.122   4.802  18.765  0.00  0.00    +0.000 A 
ATOM     17  C   UNL     1       4.347   5.933  18.467  0.00  0.00    +0.000 A 
ATOM     18 CL   UNL     1       5.101   7.090  17.417  0.00  0.00    +0.000 Cl
BRANCH  15  19
ATOM     19  O   UNL     1       5.252   2.594  19.803  0.00  0.00    +0.000 OA
ATOM     20  C   UNL     1       4.582   1.732  20.721  0.00  0.00    +0.000 C 
ENDBRANCH  15  19
ENDBRANCH   7  11
BRANCH   1  21
ATOM     21  C   UNL     1       0.513  11.742  18.985  0.00  0.00    +0.000 C 
BRANCH  21  22
ATOM     22  C   UNL     1      -0.687  11.563  18.073  0.00  0.00    +0.000 C 
ATOM     23  C   UNL     1      -1.837  10.648  18.427  0.00  0.00    +0.000 C 
ATOM     24  C   UNL     1      -2.027  12.135  18.477  0.00  0.00    +0.000 C 
ENDBRANCH  21  22
BRANCH  21  25
ATOM     25  C   UNL     1       1.683  12.432  18.246  0.00  0.00    +0.000 C 
BRANCH  25  27
ATOM     26  C   UNL     1       1.213  14.425  19.411  0.00  0.00    +0.000 C 
ATOM     27  O   UNL     1       2.227  13.504  19.026  0.00  0.00    +0.000 OA
ENDBRANCH  25  27
ENDBRANCH  21  25
ENDBRANCH   1  21
TORSDOF 6
ENDMDL
MODEL 8
REMARK VINA RESULT:      -5.4      2.439      3.754
REMARK  Name = 
REMARK  9 active torsions:
REMARK  status: ('A' for Active; 'I' for Inactive)
REMARK    1  A    between atoms: C_1  and  O_2
REMARK    2  A    between atoms: O_2  and  C_3
REMARK    3  A    between atoms: C_3  and  C_4
REMARK    4  A    between atoms: C_4  and  C_5
REMARK    5  A    between atoms: C_4  and  N_8
REMARK    6  A    between atoms: C_10  and  C_11
REMARK    7  A    between atoms: N_14  and  C_15
REMARK    8  A    between atoms: C_19  and  O_20
REMARK    9  A    between atoms: O_20  and  C_21
REMARK                            x       y       z     vdW  Elec       q    Type
REMARK                         _______ _______ _______ _____ _____    ______ ____
ROOT
ATOM      1  N   UNL     1      -0.454  12.271  19.487  0.00  0.00    +0.000 N 
ATOM      2  N   UNL     1      -1.335  11.747  18.568  0.00  0.00    +0.000 NA
ATOM      3  C   UNL     1      -1.119  10.558  18.100  0.00  0.00    +0.000 A 
ATOM      4  C   UNL     1      -2.120   9.922  17.180  0.00  0.00    +0.000 C 
ATOM      5  N   UNL     1      -0.040   9.773  18.383  0.00  0.00    +0.000 NA
ATOM      6  C   UNL     1       0.776  10.167  19.313  0.00  0.00    +0.000 A 
ATOM      7  N   UNL     1       1.875   9.436  19.728  0.00  0.00    +0.000 N 
ATOM      8  C   UNL     1       0.580  11.518  20.003  0.00  0.00    +0.000 A 
ATOM      9  O   UNL     1       1.352  11.812  20.908  0.00  0.00    +0.000 OA
ATOM     10  H   UNL     1       2.392   9.867  20.496  0.00  0.00    +0.000 HD
ENDROOT
BRANCH   7  11
ATOM     11  C   UNL     1       1.974   8.023  19.735  0.00  0.00    +0.000 A 
ATOM     12  C   UNL     1       1.342   7.303  20.773  0.00  0.00    +0.000 A 
ATOM     13 CL   UNL     1       0.562   8.131  22.084  0.00  0.00    +0.000 Cl
ATOM     14  C   UNL     1       1.302   5.905  20.785  0.00  0.00    +0.000 A 
ATOM     15  C   UNL     1       1.876   5.182  19.742  0.00  0.00    +0.000 A 
ATOM     16  C   UNL     1       2.524   5.861  18.717  0.00  0.00    +0.000 A 
ATOM     17  C   UNL     1       2.559   7.264  18.701  0.00  0.00    +0.000 A 
ATOM     18 CL   UNL     1       3.255   7.969  17.277  0.00  0.00    +0.000 Cl
BRANCH  15  19
ATOM     19  O   UNL     1       1.768   3.822  19.828  0.00  0.00    +0.000 OA
ATOM     20  C   UNL     1       1.504   3.314  21.135  0.00  0.00    +0.000 C 
ENDBRANCH  15  19
ENDBRANCH   7  11
BRANCH   1  21
ATOM     21  C   UNL     1      -0.712  13.628  19.985  0.00  0.00    +0.000 C 
BRANCH  21  22
ATOM     22  C   UNL     1      -2.118  13.732  20.547  0.00  0.00    +0.000 C 
ATOM     23  C   UNL     1      -2.568  12.928  21.746  0.00  0.00    +0.000 C 
ATOM     24  C   UNL     1      -2.344  14.405  21.882  0.00  0.00    +0.000 C 
ENDBRANCH  21  22
BRANCH  21  25
ATOM     25  C   UNL     1      -0.478  14.663  18.860  0.00  0.00    +0.000 C 
BRANCH  25  27
ATOM     26  C   UNL     1      -0.014  16.929  18.417  0.00  0.00    +0.000 C 
ATOM     27  O   UNL     1       0.046  15.888  19.385  0.00  0.00    +0.000 OA
ENDBRANCH  25  27
ENDBRANCH  21  25
ENDBRANCH   1  21
TORSDOF 6
ENDMDL
MODEL 9
REMARK VINA RESULT:      -5.4      2.532      4.162
REMARK  Name = 
REMARK  9 active torsions:
REMARK  status: ('A' for Active; 'I' for Inactive)
REMARK    1  A    between atoms: C_1  and  O_2
REMARK    2  A    between atoms: O_2  and  C_3
REMARK    3  A    between atoms: C_3  and  C_4
REMARK    4  A    between atoms: C_4  and  C_5
REMARK    5  A    between atoms: C_4  and  N_8
REMARK    6  A    between atoms: C_10  and  C_11
REMARK    7  A    between atoms: N_14  and  C_15
REMARK    8  A    between atoms: C_19  and  O_20
REMARK    9  A    between atoms: O_20  and  C_21
REMARK                            x       y       z     vdW  Elec       q    Type
REMARK                         _______ _______ _______ _____ _____    ______ ____
ROOT
ATOM      1  N   UNL     1      -0.399  12.614  19.463  0.00  0.00    +0.000 N 
ATOM      2  N   UNL     1      -1.373  12.108  18.632  0.00  0.00    +0.000 NA
ATOM      3  C   UNL     1      -1.271  10.883  18.221  0.00  0.00    +0.000 A 
ATOM      4  C   UNL     1      -2.372  10.274  17.402  0.00  0.00    +0.000 C 
ATOM      5  N   UNL     1      -0.234  10.037  18.483  0.00  0.00    +0.000 NA
ATOM      6  C   UNL     1       0.666  10.419  19.338  0.00  0.00    +0.000 A 
ATOM      7  N   UNL     1       1.736   9.632  19.727  0.00  0.00    +0.000 N 
ATOM      8  C   UNL     1       0.611  11.815  19.959  0.00  0.00    +0.000 A 
ATOM      9  O   UNL     1       1.458  12.100  20.797  0.00  0.00    +0.000 OA
ATOM     10  H   UNL     1       2.330  10.064  20.435  0.00  0.00    +0.000 HD
ENDROOT
BRANCH   7  11
ATOM     11  C   UNL     1       1.736   8.218  19.810  0.00  0.00    +0.000 A 
ATOM     12  C   UNL     1       2.413   7.479  18.815  0.00  0.00    +0.000 A 
ATOM     13 CL   UNL     1       3.130   8.274  17.449  0.00  0.00    +0.000 Cl
ATOM     14  C   UNL     1       2.550   6.089  18.892  0.00  0.00    +0.000 A 
ATOM     15  C   UNL     1       2.032   5.395  19.982  0.00  0.00    +0.000 A 
ATOM     16  C   UNL     1       1.340   6.092  20.967  0.00  0.00    +0.000 A 
ATOM     17  C   UNL     1       1.208   7.487  20.895  0.00  0.00    +0.000 A 
ATOM     18 CL   UNL     1       0.469   8.231  22.277  0.00  0.00    +0.000 Cl
BRANCH  15  19
ATOM     19  O   UNL     1       2.234   4.043  19.982  0.00  0.00    +0.000 OA
ATOM     20  C   UNL     1       1.504   3.319  20.970  0.00  0.00    +0.000 C 
ENDBRANCH  15  19
ENDBRANCH   7  11
BRANCH   1  21
ATOM     21  C   UNL     1      -0.528  14.011  19.896  0.00  0.00    +0.000 C 
BRANCH  21  22
ATOM     22  C   UNL     1      -1.870  14.239  20.568  0.00  0.00    +0.000 C 
ATOM     23  C   UNL     1      -2.322  13.426  21.760  0.00  0.00    +0.000 C 
ATOM     24  C   UNL     1      -1.922  14.859  21.946  0.00  0.00    +0.000 C 
ENDBRANCH  21  22
BRANCH  21  25
ATOM     25  C   UNL     1      -0.333  14.963  18.693  0.00  0.00    +0.000 C 
BRANCH  25  27
ATOM     26  C   UNL     1      -0.578  17.204  18.013  0.00  0.00    +0.000 C 
ATOM     27  O   UNL     1      -0.338  16.333  19.111  0.00  0.00    +0.000 OA
ENDBRANCH  25  27
ENDBRANCH  21  25
ENDBRANCH   1  21
TORSDOF 6
ENDMDL
