MODEL 1
REMARK VINA RESULT:      -5.5      0.000      0.000
REMARK  Name = 
REMARK  12 active torsions:
REMARK  status: ('A' for Active; 'I' for Inactive)
REMARK    1  A    between atoms: C_2  and  C_3
REMARK    2  A    between atoms: C_3  and  C_4
REMARK    3  A    between atoms: C_4  and  C_5
REMARK    4  A    between atoms: C_5  and  C_6
REMARK    5  A    between atoms: C_6  and  C_7
REMARK    6  A    between atoms: C_7  and  C_8
REMARK    7  A    between atoms: C_9  and  C_10
REMARK    8  A    between atoms: C_10  and  C_11
REMARK    9  A    between atoms: C_11  and  C_12
REMARK   10  A    between atoms: C_12  and  C_13
REMARK   11  A    between atoms: C_13  and  C_14
REMARK   12  A    between atoms: C_14  and  C_15
REMARK                            x       y       z     vdW  Elec       q    Type
REMARK                         _______ _______ _______ _____ _____    ______ ____
ROOT
ATOM      1  C   UNL     1       7.000   4.309  14.362  0.00  0.00    +0.000 C 
ATOM      2  C   UNL     1       6.096   3.857  13.479  0.00  0.00    +0.000 C 
ENDROOT
BRANCH   1   3
ATOM      3  C   UNL     1       6.618   4.789  15.723  0.00  0.00    +0.000 C 
BRANCH   3   4
ATOM      4  C   UNL     1       5.210   5.363  15.710  0.00  0.00    +0.000 C 
BRANCH   4   5
ATOM      5  C   UNL     1       4.459   4.943  16.968  0.00  0.00    +0.000 C 
BRANCH   5   6
ATOM      6  C   UNL     1       5.419   4.301  17.964  0.00  0.00    +0.000 C 
BRANCH   6   7
ATOM      7  C   UNL     1       5.677   5.245  19.129  0.00  0.00    +0.000 C 
BRANCH   7   9
ATOM      8  C   UNL     1       7.807   6.423  18.670  0.00  0.00    +0.000 C 
ATOM      9  C   UNL     1       7.142   5.471  19.325  0.00  0.00    +0.000 C 
ENDBRANCH   7   9
ENDBRANCH   6   7
ENDBRANCH   5   6
ENDBRANCH   4   5
ENDBRANCH   3   4
ENDBRANCH   1   3
BRANCH   2  10
ATOM     10  C   UNL     1       6.477   3.385  12.116  0.00  0.00    +0.000 C 
BRANCH  10  11
ATOM     11  C   UNL     1       5.331   2.613  11.477  0.00  0.00    +0.000 C 
BRANCH  11  12
ATOM     12  C   UNL     1       4.017   3.350  11.701  0.00  0.00    +0.000 C 
BRANCH  12  13
ATOM     13  C   UNL     1       3.076   3.111  10.530  0.00  0.00    +0.000 C 
BRANCH  13  14
ATOM     14  C   UNL     1       3.391   4.063   9.384  0.00  0.00    +0.000 C 
ATOM     15  C   UNL     1       2.181   4.915   9.059  0.00  0.00    +0.000 C 
ENDBRANCH  13  14
ENDBRANCH  12  13
ENDBRANCH  11  12
ENDBRANCH  10  11
ENDBRANCH   2  10
TORSDOF 11
ENDMDL
MODEL 2
REMARK VINA RESULT:      -5.5      2.881      5.221
REMARK  Name = 
REMARK  12 active torsions:
REMARK  status: ('A' for Active; 'I' for Inactive)
REMARK    1  A    between atoms: C_2  and  C_3
REMARK    2  A    between atoms: C_3  and  C_4
REMARK    3  A    between atoms: C_4  and  C_5
REMARK    4  A    between atoms: C_5  and  C_6
REMARK    5  A    between atoms: C_6  and  C_7
REMARK    6  A    between atoms: C_7  and  C_8
REMARK    7  A    between atoms: C_9  and  C_10
REMARK    8  A    between atoms: C_10  and  C_11
REMARK    9  A    between atoms: C_11  and  C_12
REMARK   10  A    between atoms: C_12  and  C_13
REMARK   11  A    between atoms: C_13  and  C_14
REMARK   12  A    between atoms: C_14  and  C_15
REMARK                            x       y       z     vdW  Elec       q    Type
REMARK                         _______ _______ _______ _____ _____    ______ ____
ROOT
ATOM      1  C   UNL     1       3.773   5.434  18.230  0.00  0.00    +0.000 C 
ATOM      2  C   UNL     1       4.633   6.221  17.565  0.00  0.00    +0.000 C 
ENDROOT
BRANCH   1   3
ATOM      3  C   UNL     1       2.296   5.634  18.169  0.00  0.00    +0.000 C 
BRANCH   3   4
ATOM      4  C   UNL     1       1.610   4.388  17.631  0.00  0.00    +0.000 C 
BRANCH   4   5
ATOM      5  C   UNL     1       2.569   3.205  17.660  0.00  0.00    +0.000 C 
BRANCH   5   6
ATOM      6  C   UNL     1       2.154   2.217  18.744  0.00  0.00    +0.000 C 
BRANCH   6   7
ATOM      7  C   UNL     1       0.881   2.692  19.429  0.00  0.00    +0.000 C 
BRANCH   7   9
ATOM      8  C   UNL     1       2.321   2.829  21.441  0.00  0.00    +0.000 C 
ATOM      9  C   UNL     1       1.132   3.014  20.869  0.00  0.00    +0.000 C 
ENDBRANCH   7   9
ENDBRANCH   6   7
ENDBRANCH   5   6
ENDBRANCH   4   5
ENDBRANCH   3   4
ENDBRANCH   1   3
BRANCH   2  10
ATOM     10  C   UNL     1       6.111   6.027  17.632  0.00  0.00    +0.000 C 
BRANCH  10  11
ATOM     11  C   UNL     1       6.670   5.693  16.256  0.00  0.00    +0.000 C 
BRANCH  11  12
ATOM     12  C   UNL     1       6.279   4.274  15.864  0.00  0.00    +0.000 C 
BRANCH  12  13
ATOM     13  C   UNL     1       5.498   4.286  14.559  0.00  0.00    +0.000 C 
BRANCH  13  14
ATOM     14  C   UNL     1       6.391   3.875  13.396  0.00  0.00    +0.000 C 
ATOM     15  C   UNL     1       5.551   3.380  12.236  0.00  0.00    +0.000 C 
ENDBRANCH  13  14
ENDBRANCH  12  13
ENDBRANCH  11  12
ENDBRANCH  10  11
ENDBRANCH   2  10
TORSDOF 11
ENDMDL
MODEL 3
REMARK VINA RESULT:      -5.5      3.872      6.542
REMARK  Name = 
REMARK  12 active torsions:
REMARK  status: ('A' for Active; 'I' for Inactive)
REMARK    1  A    between atoms: C_2  and  C_3
REMARK    2  A    between atoms: C_3  and  C_4
REMARK    3  A    between atoms: C_4  and  C_5
REMARK    4  A    between atoms: C_5  and  C_6
REMARK    5  A    between atoms: C_6  and  C_7
REMARK    6  A    between atoms: C_7  and  C_8
REMARK    7  A    between atoms: C_9  and  C_10
REMARK    8  A    between atoms: C_10  and  C_11
REMARK    9  A    between atoms: C_11  and  C_12
REMARK   10  A    between atoms: C_12  and  C_13
REMARK   11  A    between atoms: C_13  and  C_14
REMARK   12  A    between atoms: C_14  and  C_15
REMARK                            x       y       z     vdW  Elec       q    Type
REMARK                         _______ _______ _______ _____ _____    ______ ____
ROOT
ATOM      1  C   UNL     1       3.552   5.955  17.362  0.00  0.00    +0.000 C 
ATOM      2  C   UNL     1       4.412   4.952  17.126  0.00  0.00    +0.000 C 
ENDROOT
BRANCH   1   3
ATOM      3  C   UNL     1       2.685   5.995  18.577  0.00  0.00    +0.000 C 
BRANCH   3   4
ATOM      4  C   UNL     1       3.389   5.343  19.757  0.00  0.00    +0.000 C 
BRANCH   4   5
ATOM      5  C   UNL     1       2.365   4.779  20.734  0.00  0.00    +0.000 C 
BRANCH   5   6
ATOM      6  C   UNL     1       1.186   4.181  19.975  0.00  0.00    +0.000 C 
BRANCH   6   7
ATOM      7  C   UNL     1       1.361   2.677  19.832  0.00  0.00    +0.000 C 
BRANCH   7   9
ATOM      8  C   UNL     1       2.909   1.861  18.078  0.00  0.00    +0.000 C 
ATOM      9  C   UNL     1       1.701   2.305  18.423  0.00  0.00    +0.000 C 
ENDBRANCH   7   9
ENDBRANCH   6   7
ENDBRANCH   5   6
ENDBRANCH   4   5
ENDBRANCH   3   4
ENDBRANCH   1   3
BRANCH   2  10
ATOM     10  C   UNL     1       5.273   4.907  15.908  0.00  0.00    +0.000 C 
BRANCH  10  11
ATOM     11  C   UNL     1       6.744   4.993  16.289  0.00  0.00    +0.000 C 
BRANCH  11  12
ATOM     12  C   UNL     1       6.902   4.844  17.796  0.00  0.00    +0.000 C 
BRANCH  12  13
ATOM     13  C   UNL     1       7.482   6.117  18.392  0.00  0.00    +0.000 C 
BRANCH  13  14
ATOM     14  C   UNL     1       7.581   7.208  17.334  0.00  0.00    +0.000 C 
ATOM     15  C   UNL     1       8.097   8.494  17.948  0.00  0.00    +0.000 C 
ENDBRANCH  13  14
ENDBRANCH  12  13
ENDBRANCH  11  12
ENDBRANCH  10  11
ENDBRANCH   2  10
TORSDOF 11
ENDMDL
MODEL 4
REMARK VINA RESULT:      -5.5      4.596      7.027
REMARK  Name = 
REMARK  12 active torsions:
REMARK  status: ('A' for Active; 'I' for Inactive)
REMARK    1  A    between atoms: C_2  and  C_3
REMARK    2  A    between atoms: C_3  and  C_4
REMARK    3  A    between atoms: C_4  and  C_5
REMARK    4  A    between atoms: C_5  and  C_6
REMARK    5  A    between atoms: C_6  and  C_7
REMARK    6  A    between atoms: C_7  and  C_8
REMARK    7  A    between atoms: C_9  and  C_10
REMARK    8  A    between atoms: C_10  and  C_11
REMARK    9  A    between atoms: C_11  and  C_12
REMARK   10  A    between atoms: C_12  and  C_13
REMARK   11  A    between atoms: C_13  and  C_14
REMARK   12  A    between atoms: C_14  and  C_15
REMARK                            x       y       z     vdW  Elec       q    Type
REMARK                         _______ _______ _______ _____ _____    ______ ____
ROOT
ATOM      1  C   UNL     1       2.878   5.989  19.404  0.00  0.00    +0.000 C 
ATOM      2  C   UNL     1       2.896   6.959  18.477  0.00  0.00    +0.000 C 
ENDROOT
BRANCH   1   3
ATOM      3  C   UNL     1       1.855   5.938  20.489  0.00  0.00    +0.000 C 
BRANCH   3   4
ATOM      4  C   UNL     1       0.968   4.713  20.330  0.00  0.00    +0.000 C 
BRANCH   4   5
ATOM      5  C   UNL     1       1.577   3.525  21.064  0.00  0.00    +0.000 C 
BRANCH   5   6
ATOM      6  C   UNL     1       1.799   2.366  20.098  0.00  0.00    +0.000 C 
BRANCH   6   7
ATOM      7  C   UNL     1       1.305   2.739  18.708  0.00  0.00    +0.000 C 
BRANCH   7   9
ATOM      8  C   UNL     1       3.556   1.994  17.990  0.00  0.00    +0.000 C 
ATOM      9  C   UNL     1       2.354   2.476  17.674  0.00  0.00    +0.000 C 
ENDBRANCH   7   9
ENDBRANCH   6   7
ENDBRANCH   5   6
ENDBRANCH   4   5
ENDBRANCH   3   4
ENDBRANCH   1   3
BRANCH   2  10
ATOM     10  C   UNL     1       3.924   7.015  17.397  0.00  0.00    +0.000 C 
BRANCH  10  11
ATOM     11  C   UNL     1       4.405   5.615  17.043  0.00  0.00    +0.000 C 
BRANCH  11  12
ATOM     12  C   UNL     1       5.921   5.604  16.904  0.00  0.00    +0.000 C 
BRANCH  12  13
ATOM     13  C   UNL     1       6.568   5.244  18.233  0.00  0.00    +0.000 C 
BRANCH  13  14
ATOM     14  C   UNL     1       7.648   6.254  18.595  0.00  0.00    +0.000 C 
ATOM     15  C   UNL     1       7.650   7.401  17.605  0.00  0.00    +0.000 C 
ENDBRANCH  13  14
ENDBRANCH  12  13
ENDBRANCH  11  12
ENDBRANCH  10  11
ENDBRANCH   2  10
TORSDOF 11
ENDMDL
MODEL 5
REMARK VINA RESULT:      -5.4      3.539      6.556
REMARK  Name = 
REMARK  12 active torsions:
REMARK  status: ('A' for Active; 'I' for Inactive)
REMARK    1  A    between atoms: C_2  and  C_3
REMARK    2  A    between atoms: C_3  and  C_4
REMARK    3  A    between atoms: C_4  and  C_5
REMARK    4  A    between atoms: C_5  and  C_6
REMARK    5  A    between atoms: C_6  and  C_7
REMARK    6  A    between atoms: C_7  and  C_8
REMARK    7  A    between atoms: C_9  and  C_10
REMARK    8  A    between atoms: C_10  and  C_11
REMARK    9  A    between atoms: C_11  and  C_12
REMARK   10  A    between atoms: C_12  and  C_13
REMARK   11  A    between atoms: C_13  and  C_14
REMARK   12  A    between atoms: C_14  and  C_15
REMARK                            x       y       z     vdW  Elec       q    Type
REMARK                         _______ _______ _______ _____ _____    ______ ____
ROOT
ATOM      1  C   UNL     1       4.025   6.454  16.856  0.00  0.00    +0.000 C 
ATOM      2  C   UNL     1       3.760   5.435  17.689  0.00  0.00    +0.000 C 
ENDROOT
BRANCH   1   3
ATOM      3  C   UNL     1       5.298   6.544  16.083  0.00  0.00    +0.000 C 
BRANCH   3   4
ATOM      4  C   UNL     1       5.417   5.380  15.112  0.00  0.00    +0.000 C 
BRANCH   4   5
ATOM      5  C   UNL     1       6.420   4.359  15.635  0.00  0.00    +0.000 C 
BRANCH   5   6
ATOM      6  C   UNL     1       7.505   5.057  16.448  0.00  0.00    +0.000 C 
BRANCH   6   7
ATOM      7  C   UNL     1       7.478   4.569  17.889  0.00  0.00    +0.000 C 
BRANCH   7   9
ATOM      8  C   UNL     1       7.966   6.937  18.428  0.00  0.00    +0.000 C 
ATOM      9  C   UNL     1       7.723   5.694  18.843  0.00  0.00    +0.000 C 
ENDBRANCH   7   9
ENDBRANCH   6   7
ENDBRANCH   5   6
ENDBRANCH   4   5
ENDBRANCH   3   4
ENDBRANCH   1   3
BRANCH   2  10
ATOM     10  C   UNL     1       2.491   5.348  18.469  0.00  0.00    +0.000 C 
BRANCH  10  11
ATOM     11  C   UNL     1       1.555   4.317  17.854  0.00  0.00    +0.000 C 
BRANCH  11  12
ATOM     12  C   UNL     1       1.226   3.236  18.876  0.00  0.00    +0.000 C 
BRANCH  12  13
ATOM     13  C   UNL     1       0.895   3.868  20.220  0.00  0.00    +0.000 C 
BRANCH  13  14
ATOM     14  C   UNL     1       1.456   3.029  21.360  0.00  0.00    +0.000 C 
ATOM     15  C   UNL     1       2.889   2.632  21.067  0.00  0.00    +0.000 C 
ENDBRANCH  13  14
ENDBRANCH  12  13
ENDBRANCH  11  12
ENDBRANCH  10  11
ENDBRANCH   2  10
TORSDOF 11
ENDMDL
MODEL 6
REMARK VINA RESULT:      -5.4      2.577      3.886
REMARK  Name = 
REMARK  12 active torsions:
REMARK  status: ('A' for Active; 'I' for Inactive)
REMARK    1  A    between atoms: C_2  and  C_3
REMARK    2  A    between atoms: C_3  and  C_4
REMARK    3  A    between atoms: C_4  and  C_5
REMARK    4  A    between atoms: C_5  and  C_6
REMARK    5  A    between atoms: C_6  and  C_7
REMARK    6  A    between atoms: C_7  and  C_8
REMARK    7  A    between atoms: C_9  and  C_10
REMARK    8  A    between atoms: C_10  and  C_11
REMARK    9  A    between atoms: C_11  and  C_12
REMARK   10  A    between atoms: C_12  and  C_13
REMARK   11  A    between atoms: C_13  and  C_14
REMARK   12  A    between atoms: C_14  and  C_15
REMARK                            x       y       z     vdW  Elec       q    Type
REMARK                         _______ _______ _______ _____ _____    ______ ____
ROOT
ATOM      1  C   UNL     1       5.160   5.360  16.412  0.00  0.00    +0.000 C 
ATOM      2  C   UNL     1       5.974   4.376  16.000  0.00  0.00    +0.000 C 
ENDROOT
BRANCH   1   3
ATOM      3  C   UNL     1       3.926   5.095  17.209  0.00  0.00    +0.000 C 
BRANCH   3   4
ATOM      4  C   UNL     1       3.883   3.643  17.660  0.00  0.00    +0.000 C 
BRANCH   4   5
ATOM      5  C   UNL     1       2.517   3.040  17.362  0.00  0.00    +0.000 C 
BRANCH   5   6
ATOM      6  C   UNL     1       2.055   2.179  18.534  0.00  0.00    +0.000 C 
BRANCH   6   7
ATOM      7  C   UNL     1       0.819   2.789  19.179  0.00  0.00    +0.000 C 
BRANCH   7   9
ATOM      8  C   UNL     1       1.467   4.727  20.579  0.00  0.00    +0.000 C 
ATOM      9  C   UNL     1       1.156   3.435  20.485  0.00  0.00    +0.000 C 
ENDBRANCH   7   9
ENDBRANCH   6   7
ENDBRANCH   5   6
ENDBRANCH   4   5
ENDBRANCH   3   4
ENDBRANCH   1   3
BRANCH   2  10
ATOM     10  C   UNL     1       7.203   4.640  15.196  0.00  0.00    +0.000 C 
BRANCH  10  11
ATOM     11  C   UNL     1       6.854   4.816  13.725  0.00  0.00    +0.000 C 
BRANCH  11  12
ATOM     12  C   UNL     1       6.229   3.537  13.181  0.00  0.00    +0.000 C 
BRANCH  12  13
ATOM     13  C   UNL     1       4.887   3.843  12.534  0.00  0.00    +0.000 C 
BRANCH  13  14
ATOM     14  C   UNL     1       4.621   2.892  11.375  0.00  0.00    +0.000 C 
ATOM     15  C   UNL     1       3.456   3.389  10.542  0.00  0.00    +0.000 C 
ENDBRANCH  13  14
ENDBRANCH  12  13
ENDBRANCH  11  12
ENDBRANCH  10  11
ENDBRANCH   2  10
TORSDOF 11
ENDMDL
MODEL 7
REMARK VINA RESULT:      -5.4      4.325      6.769
REMARK  Name = 
REMARK  12 active torsions:
REMARK  status: ('A' for Active; 'I' for Inactive)
REMARK    1  A    between atoms: C_2  and  C_3
REMARK    2  A    between atoms: C_3  and  C_4
REMARK    3  A    between atoms: C_4  and  C_5
REMARK    4  A    between atoms: C_5  and  C_6
REMARK    5  A    between atoms: C_6  and  C_7
REMARK    6  A    between atoms: C_7  and  C_8
REMARK    7  A    between atoms: C_9  and  C_10
REMARK    8  A    between atoms: C_10  and  C_11
REMARK    9  A    between atoms: C_11  and  C_12
REMARK   10  A    between atoms: C_12  and  C_13
REMARK   11  A    between atoms: C_13  and  C_14
REMARK   12  A    between atoms: C_14  and  C_15
REMARK                            x       y       z     vdW  Elec       q    Type
REMARK                         _______ _______ _______ _____ _____    ______ ____
ROOT
ATOM      1  C   UNL     1       3.307   5.407  17.661  0.00  0.00    +0.000 C 
ATOM      2  C   UNL     1       3.547   5.507  18.977  0.00  0.00    +0.000 C 
ENDROOT
BRANCH   1   3
ATOM      3  C   UNL     1       4.295   4.817  16.711  0.00  0.00    +0.000 C 
BRANCH   3   4
ATOM      4  C   UNL     1       5.499   4.272  17.462  0.00  0.00    +0.000 C 
BRANCH   4   5
ATOM      5  C   UNL     1       6.760   5.019  17.048  0.00  0.00    +0.000 C 
BRANCH   5   6
ATOM      6  C   UNL     1       7.789   4.980  18.173  0.00  0.00    +0.000 C 
BRANCH   6   7
ATOM      7  C   UNL     1       7.975   6.369  18.764  0.00  0.00    +0.000 C 
BRANCH   7   9
ATOM      8  C   UNL     1       8.074   8.687  17.894  0.00  0.00    +0.000 C 
ATOM      9  C   UNL     1       7.653   7.430  17.759  0.00  0.00    +0.000 C 
ENDBRANCH   7   9
ENDBRANCH   6   7
ENDBRANCH   5   6
ENDBRANCH   4   5
ENDBRANCH   3   4
ENDBRANCH   1   3
BRANCH   2  10
ATOM     10  C   UNL     1       2.563   6.105  19.926  0.00  0.00    +0.000 C 
BRANCH  10  11
ATOM     11  C   UNL     1       2.003   5.039  20.858  0.00  0.00    +0.000 C 
BRANCH  11  12
ATOM     12  C   UNL     1       1.084   4.102  20.086  0.00  0.00    +0.000 C 
BRANCH  12  13
ATOM     13  C   UNL     1       1.461   2.654  20.360  0.00  0.00    +0.000 C 
BRANCH  13  14
ATOM     14  C   UNL     1       2.026   2.000  19.107  0.00  0.00    +0.000 C 
ATOM     15  C   UNL     1       3.540   1.967  19.167  0.00  0.00    +0.000 C 
ENDBRANCH  13  14
ENDBRANCH  12  13
ENDBRANCH  11  12
ENDBRANCH  10  11
ENDBRANCH   2  10
TORSDOF 11
ENDMDL
MODEL 8
REMARK VINA RESULT:      -5.3      3.041      4.948
REMARK  Name = 
REMARK  12 active torsions:
REMARK  status: ('A' for Active; 'I' for Inactive)
REMARK    1  A    between atoms: C_2  and  C_3
REMARK    2  A    between atoms: C_3  and  C_4
REMARK    3  A    between atoms: C_4  and  C_5
REMARK    4  A    between atoms: C_5  and  C_6
REMARK    5  A    between atoms: C_6  and  C_7
REMARK    6  A    between atoms: C_7  and  C_8
REMARK    7  A    between atoms: C_9  and  C_10
REMARK    8  A    between atoms: C_10  and  C_11
REMARK    9  A    between atoms: C_11  and  C_12
REMARK   10  A    between atoms: C_12  and  C_13
REMARK   11  A    between atoms: C_13  and  C_14
REMARK   12  A    between atoms: C_14  and  C_15
REMARK                            x       y       z     vdW  Elec       q    Type
REMARK                         _______ _______ _______ _____ _____    ______ ____
ROOT
ATOM      1  C   UNL     1       4.052   3.385  17.946  0.00  0.00    +0.000 C 
ATOM      2  C   UNL     1       4.740   3.869  16.901  0.00  0.00    +0.000 C 
ENDROOT
BRANCH   1   3
ATOM      3  C   UNL     1       3.548   1.981  17.990  0.00  0.00    +0.000 C 
BRANCH   3   4
ATOM      4  C   UNL     1       2.047   1.960  18.235  0.00  0.00    +0.000 C 
BRANCH   4   5
ATOM      5  C   UNL     1       1.504   3.382  18.296  0.00  0.00    +0.000 C 
BRANCH   5   6
ATOM      6  C   UNL     1       0.627   3.558  19.531  0.00  0.00    +0.000 C 
BRANCH   6   7
ATOM      7  C   UNL     1       1.284   4.519  20.510  0.00  0.00    +0.000 C 
BRANCH   7   9
ATOM      8  C   UNL     1       1.896   2.533  21.858  0.00  0.00    +0.000 C 
ATOM      9  C   UNL     1       2.151   3.787  21.485  0.00  0.00    +0.000 C 
ENDBRANCH   7   9
ENDBRANCH   6   7
ENDBRANCH   5   6
ENDBRANCH   4   5
ENDBRANCH   3   4
ENDBRANCH   1   3
BRANCH   2  10
ATOM     10  C   UNL     1       5.237   5.275  16.852  0.00  0.00    +0.000 C 
BRANCH  10  11
ATOM     11  C   UNL     1       5.405   5.734  15.411  0.00  0.00    +0.000 C 
BRANCH  11  12
ATOM     12  C   UNL     1       6.274   4.745  14.646  0.00  0.00    +0.000 C 
BRANCH  12  13
ATOM     13  C   UNL     1       5.457   4.055  13.565  0.00  0.00    +0.000 C 
BRANCH  13  14
ATOM     14  C   UNL     1       6.363   3.536  12.456  0.00  0.00    +0.000 C 
ATOM     15  C   UNL     1       5.656   2.457  11.660  0.00  0.00    +0.000 C 
ENDBRANCH  13  14
ENDBRANCH  12  13
ENDBRANCH  11  12
ENDBRANCH  10  11
ENDBRANCH   2  10
TORSDOF 11
ENDMDL
MODEL 9
REMARK VINA RESULT:      -5.3      3.108      5.909
REMARK  Name = 
REMARK  12 active torsions:
REMARK  status: ('A' for Active; 'I' for Inactive)
REMARK    1  A    between atoms: C_2  and  C_3
REMARK    2  A    between atoms: C_3  and  C_4
REMARK    3  A    between atoms: C_4  and  C_5
REMARK    4  A    between atoms: C_5  and  C_6
REMARK    5  A    between atoms: C_6  and  C_7
REMARK    6  A    between atoms: C_7  and  C_8
REMARK    7  A    between atoms: C_9  and  C_10
REMARK    8  A    between atoms: C_10  and  C_11
REMARK    9  A    between atoms: C_11  and  C_12
REMARK   10  A    between atoms: C_12  and  C_13
REMARK   11  A    between atoms: C_13  and  C_14
REMARK   12  A    between atoms: C_14  and  C_15
REMARK                            x       y       z     vdW  Elec       q    Type
REMARK                         _______ _______ _______ _____ _____    ______ ____
ROOT
ATOM      1  C   UNL     1       4.224   5.201  18.103  0.00  0.00    +0.000 C 
ATOM      2  C   UNL     1       5.290   4.698  18.745  0.00  0.00    +0.000 C 
ENDROOT
BRANCH   1   3
ATOM      3  C   UNL     1       3.146   4.334  17.545  0.00  0.00    +0.000 C 
BRANCH   3   4
ATOM      4  C   UNL     1       3.466   2.866  17.780  0.00  0.00    +0.000 C 
BRANCH   4   5
ATOM      5  C   UNL     1       2.190   2.035  17.733  0.00  0.00    +0.000 C 
BRANCH   5   6
ATOM      6  C   UNL     1       1.117   2.668  18.612  0.00  0.00    +0.000 C 
BRANCH   6   7
ATOM      7  C   UNL     1       1.497   2.540  20.080  0.00  0.00    +0.000 C 
BRANCH   7   9
ATOM      8  C   UNL     1       2.157   4.744  20.998  0.00  0.00    +0.000 C 
ATOM      9  C   UNL     1       1.223   3.810  20.821  0.00  0.00    +0.000 C 
ENDBRANCH   7   9
ENDBRANCH   6   7
ENDBRANCH   5   6
ENDBRANCH   4   5
ENDBRANCH   3   4
ENDBRANCH   1   3
BRANCH   2  10
ATOM     10  C   UNL     1       6.374   5.565  19.296  0.00  0.00    +0.000 C 
BRANCH  10  11
ATOM     11  C   UNL     1       7.661   5.380  18.505  0.00  0.00    +0.000 C 
BRANCH  11  12
ATOM     12  C   UNL     1       7.391   4.550  17.256  0.00  0.00    +0.000 C 
BRANCH  12  13
ATOM     13  C   UNL     1       7.289   5.454  16.037  0.00  0.00    +0.000 C 
BRANCH  13  14
ATOM     14  C   UNL     1       6.961   4.641  14.792  0.00  0.00    +0.000 C 
ATOM     15  C   UNL     1       5.469   4.396  14.701  0.00  0.00    +0.000 C 
ENDBRANCH  13  14
ENDBRANCH  12  13
ENDBRANCH  11  12
ENDBRANCH  10  11
ENDBRANCH   2  10
TORSDOF 11
ENDMDL
