MODEL 1
REMARK VINA RESULT:      -7.8      0.000      0.000
REMARK  Name = 
REMARK  8 active torsions:
REMARK  status: ('A' for Active; 'I' for Inactive)
REMARK    1  A    between atoms: C_1  and  C_2
REMARK    2  A    between atoms: C_2  and  O_3
REMARK    3  A    between atoms: O_3  and  C_4
REMARK    4  A    between atoms: C_4  and  C_6
REMARK    5  A    between atoms: N_12  and  C_13
REMARK    6  A    between atoms: N_20  and  C_21
REMARK    7  A    between atoms: C_21  and  C_22
REMARK    8  A    between atoms: C_28  and  C_30
REMARK                            x       y       z     vdW  Elec       q    Type
REMARK                         _______ _______ _______ _____ _____    ______ ____
ROOT
ATOM      1  C   UNL     1       0.653   8.803  20.986  0.00  0.00    +0.000 A 
ATOM      2  C   UNL     1       1.437   7.654  20.968  0.00  0.00    +0.000 A 
ATOM      3  C   UNL     1       2.018   7.591  19.677  0.00  0.00    +0.000 A 
ATOM      4  C   UNL     1       1.660   8.711  18.993  0.00  0.00    +0.000 A 
ATOM      5  C   UNL     1       2.277   8.677  17.716  0.00  0.00    +0.000 A 
ATOM      6  C   UNL     1       3.025   7.515  17.714  0.00  0.00    +0.000 A 
ATOM      7  N   UNL     1       2.854   6.812  18.899  0.00  0.00    +0.000 N 
ATOM      8  N   UNL     1       0.848   9.482  19.790  0.00  0.00    +0.000 N 
ENDROOT
BRANCH   7   9
ATOM      9  C   UNL     1       3.409   5.547  19.228  0.00  0.00    +0.000 A 
ATOM     10  C   UNL     1       4.748   5.266  18.919  0.00  0.00    +0.000 A 
ATOM     11  C   UNL     1       5.285   4.015  19.232  0.00  0.00    +0.000 A 
ATOM     12  C   UNL     1       4.480   3.045  19.820  0.00  0.00    +0.000 A 
ATOM     13  F   UNL     1       4.992   1.838  20.093  0.00  0.00    +0.000 F 
ATOM     14  C   UNL     1       3.150   3.309  20.123  0.00  0.00    +0.000 A 
ATOM     15  C   UNL     1       2.614   4.568  19.840  0.00  0.00    +0.000 A 
ENDBRANCH   7   9
BRANCH   1  16
ATOM     16  C   UNL     1      -0.160   9.296  22.078  0.00  0.00    +0.000 C 
ATOM     17  O   UNL     1      -1.030   8.662  22.659  0.00  0.00    +0.000 OA
BRANCH  16  18
ATOM     18  O   UNL     1       0.152  10.601  22.321  0.00  0.00    +0.000 OA
BRANCH  18  20
ATOM     19  C   UNL     1      -0.588  12.847  22.577  0.00  0.00    +0.000 C 
ATOM     20  C   UNL     1      -0.917  11.389  22.851  0.00  0.00    +0.000 C 
ENDBRANCH  18  20
ENDBRANCH  16  18
ENDBRANCH   1  16
BRANCH   8  21
ATOM     21  C   UNL     1       0.319  10.793  19.404  0.00  0.00    +0.000 C 
BRANCH  21  22
ATOM     22  C   UNL     1      -0.826  10.717  18.394  0.00  0.00    +0.000 C 
ATOM     23  O   UNL     1      -0.922   9.754  17.625  0.00  0.00    +0.000 OA
ATOM     24  N   UNL     1      -1.775  11.738  18.371  0.00  0.00    +0.000 N 
ATOM     25  C   UNL     1      -2.874  11.639  17.401  0.00  0.00    +0.000 C 
ATOM     26  C   UNL     1      -4.164  11.241  18.124  0.00  0.00    +0.000 C 
ATOM     27  N   UNL     1      -4.467  12.232  19.168  0.00  0.00    +0.000 N 
ATOM     28  C   UNL     1      -5.775  12.723  19.262  0.00  0.00    +0.000 C 
ATOM     29  O   UNL     1      -6.673  12.259  18.558  0.00  0.00    +0.000 OA
ATOM     30  C   UNL     1      -3.371  12.435  20.138  0.00  0.00    +0.000 C 
ATOM     31  C   UNL     1      -2.026  12.726  19.432  0.00  0.00    +0.000 C 
BRANCH  28  32
ATOM     32  C   UNL     1      -6.055  13.787  20.213  0.00  0.00    +0.000 A 
ATOM     33  C   UNL     1      -6.552  13.733  21.503  0.00  0.00    +0.000 A 
ATOM     34  C   UNL     1      -6.626  15.066  21.972  0.00  0.00    +0.000 A 
ATOM     35  C   UNL     1      -6.223  15.860  20.928  0.00  0.00    +0.000 A 
ATOM     36  O   UNL     1      -5.913  15.100  19.848  0.00  0.00    +0.000 OA
ENDBRANCH  28  32
ENDBRANCH  21  22
ENDBRANCH   8  21
TORSDOF 7
ENDMDL
MODEL 2
REMARK VINA RESULT:      -7.7      3.695      5.797
REMARK  Name = 
REMARK  8 active torsions:
REMARK  status: ('A' for Active; 'I' for Inactive)
REMARK    1  A    between atoms: C_1  and  C_2
REMARK    2  A    between atoms: C_2  and  O_3
REMARK    3  A    between atoms: O_3  and  C_4
REMARK    4  A    between atoms: C_4  and  C_6
REMARK    5  A    between atoms: N_12  and  C_13
REMARK    6  A    between atoms: N_20  and  C_21
REMARK    7  A    between atoms: C_21  and  C_22
REMARK    8  A    between atoms: C_28  and  C_30
REMARK                            x       y       z     vdW  Elec       q    Type
REMARK                         _______ _______ _______ _____ _____    ______ ____
ROOT
ATOM      1  C   UNL     1      -1.022  11.084  19.269  0.00  0.00    +0.000 A 
ATOM      2  C   UNL     1      -0.238   9.994  18.903  0.00  0.00    +0.000 A 
ATOM      3  C   UNL     1       0.339   9.501  20.099  0.00  0.00    +0.000 A 
ATOM      4  C   UNL     1      -0.159  10.219  21.141  0.00  0.00    +0.000 A 
ATOM      5  C   UNL     1       0.378   9.699  22.347  0.00  0.00    +0.000 A 
ATOM      6  C   UNL     1       1.172   8.638  21.952  0.00  0.00    +0.000 A 
ATOM      7  N   UNL     1       1.190   8.518  20.570  0.00  0.00    +0.000 N 
ATOM      8  N   UNL     1      -1.019  11.175  20.655  0.00  0.00    +0.000 N 
ENDROOT
BRANCH   7   9
ATOM      9  C   UNL     1       1.944   7.590  19.804  0.00  0.00    +0.000 A 
ATOM     10  C   UNL     1       2.122   6.278  20.267  0.00  0.00    +0.000 A 
ATOM     11  C   UNL     1       2.877   5.373  19.517  0.00  0.00    +0.000 A 
ATOM     12  C   UNL     1       3.472   5.787  18.331  0.00  0.00    +0.000 A 
ATOM     13  F   UNL     1       4.218   4.924  17.629  0.00  0.00    +0.000 F 
ATOM     14  C   UNL     1       3.310   7.086  17.865  0.00  0.00    +0.000 A 
ATOM     15  C   UNL     1       2.532   7.989  18.595  0.00  0.00    +0.000 A 
ENDBRANCH   7   9
BRANCH   1  16
ATOM     16  C   UNL     1      -1.800  11.940  18.400  0.00  0.00    +0.000 C 
ATOM     17  O   UNL     1      -1.345  12.769  17.623  0.00  0.00    +0.000 OA
BRANCH  16  18
ATOM     18  O   UNL     1      -3.128  11.722  18.621  0.00  0.00    +0.000 OA
BRANCH  18  20
ATOM     19  C   UNL     1      -5.239  11.923  17.543  0.00  0.00    +0.000 C 
ATOM     20  C   UNL     1      -3.865  11.276  17.480  0.00  0.00    +0.000 C 
ENDBRANCH  18  20
ENDBRANCH  16  18
ENDBRANCH   1  16
BRANCH   8  21
ATOM     21  C   UNL     1      -1.788  12.096  21.497  0.00  0.00    +0.000 C 
BRANCH  21  22
ATOM     22  C   UNL     1      -0.927  13.147  22.198  0.00  0.00    +0.000 C 
ATOM     23  O   UNL     1      -0.258  12.848  23.193  0.00  0.00    +0.000 OA
ATOM     24  N   UNL     1      -0.891  14.442  21.683  0.00  0.00    +0.000 N 
ATOM     25  C   UNL     1      -0.047  15.434  22.364  0.00  0.00    +0.000 C 
ATOM     26  C   UNL     1       1.218  15.688  21.539  0.00  0.00    +0.000 C 
ATOM     27  N   UNL     1       0.842  16.147  20.193  0.00  0.00    +0.000 N 
ATOM     28  C   UNL     1       1.504  17.260  19.660  0.00  0.00    +0.000 C 
ATOM     29  O   UNL     1       2.449  17.776  20.257  0.00  0.00    +0.000 OA
ATOM     30  C   UNL     1      -0.067  15.228  19.478  0.00  0.00    +0.000 C 
ATOM     31  C   UNL     1      -1.302  14.861  20.334  0.00  0.00    +0.000 C 
BRANCH  28  32
ATOM     32  C   UNL     1       1.058  17.791  18.382  0.00  0.00    +0.000 A 
ATOM     33  C   UNL     1      -0.202  18.179  17.959  0.00  0.00    +0.000 A 
ATOM     34  C   UNL     1      -0.069  18.620  16.621  0.00  0.00    +0.000 A 
ATOM     35  C   UNL     1       1.248  18.427  16.285  0.00  0.00    +0.000 A 
ATOM     36  O   UNL     1       1.928  17.890  17.328  0.00  0.00    +0.000 OA
ENDBRANCH  28  32
ENDBRANCH  21  22
ENDBRANCH   8  21
TORSDOF 7
ENDMDL
MODEL 3
REMARK VINA RESULT:      -7.5      5.196     10.992
REMARK  Name = 
REMARK  8 active torsions:
REMARK  status: ('A' for Active; 'I' for Inactive)
REMARK    1  A    between atoms: C_1  and  C_2
REMARK    2  A    between atoms: C_2  and  O_3
REMARK    3  A    between atoms: O_3  and  C_4
REMARK    4  A    between atoms: C_4  and  C_6
REMARK    5  A    between atoms: N_12  and  C_13
REMARK    6  A    between atoms: N_20  and  C_21
REMARK    7  A    between atoms: C_21  and  C_22
REMARK    8  A    between atoms: C_28  and  C_30
REMARK                            x       y       z     vdW  Elec       q    Type
REMARK                         _______ _______ _______ _____ _____    ______ ____
ROOT
ATOM      1  C   UNL     1       2.211   5.122  20.636  0.00  0.00    +0.000 A 
ATOM      2  C   UNL     1       1.357   6.221  20.641  0.00  0.00    +0.000 A 
ATOM      3  C   UNL     1       1.927   7.170  19.756  0.00  0.00    +0.000 A 
ATOM      4  C   UNL     1       3.028   6.613  19.183  0.00  0.00    +0.000 A 
ATOM      5  C   UNL     1       3.577   7.540  18.261  0.00  0.00    +0.000 A 
ATOM      6  C   UNL     1       2.728   8.629  18.306  0.00  0.00    +0.000 A 
ATOM      7  N   UNL     1       1.723   8.438  19.245  0.00  0.00    +0.000 N 
ATOM      8  N   UNL     1       3.201   5.345  19.687  0.00  0.00    +0.000 N 
ENDROOT
BRANCH   7   9
ATOM      9  C   UNL     1       0.713   9.365  19.613  0.00  0.00    +0.000 A 
ATOM     10  C   UNL     1      -0.040  10.013  18.623  0.00  0.00    +0.000 A 
ATOM     11  C   UNL     1      -1.024  10.935  18.991  0.00  0.00    +0.000 A 
ATOM     12  C   UNL     1      -1.229  11.227  20.334  0.00  0.00    +0.000 A 
ATOM     13  F   UNL     1      -2.154  12.131  20.680  0.00  0.00    +0.000 F 
ATOM     14  C   UNL     1      -0.484  10.598  21.324  0.00  0.00    +0.000 A 
ATOM     15  C   UNL     1       0.481   9.652  20.966  0.00  0.00    +0.000 A 
ENDBRANCH   7   9
BRANCH   1  16
ATOM     16  C   UNL     1       2.074   3.898  21.397  0.00  0.00    +0.000 C 
ATOM     17  O   UNL     1       2.772   3.568  22.345  0.00  0.00    +0.000 OA
BRANCH  16  18
ATOM     18  O   UNL     1       1.079   3.139  20.856  0.00  0.00    +0.000 OA
BRANCH  18  20
ATOM     19  C   UNL     1       0.907   2.553  18.557  0.00  0.00    +0.000 C 
ATOM     20  C   UNL     1       1.512   2.170  19.897  0.00  0.00    +0.000 C 
ENDBRANCH  18  20
ENDBRANCH  16  18
ENDBRANCH   1  16
BRANCH   8  21
ATOM     21  C   UNL     1       4.254   4.423  19.254  0.00  0.00    +0.000 C 
BRANCH  21  22
ATOM     22  C   UNL     1       5.389   5.106  18.491  0.00  0.00    +0.000 C 
ATOM     23  O   UNL     1       6.402   5.491  19.085  0.00  0.00    +0.000 OA
ATOM     24  N   UNL     1       5.274   5.266  17.111  0.00  0.00    +0.000 N 
ATOM     25  C   UNL     1       6.381   5.914  16.395  0.00  0.00    +0.000 C 
ATOM     26  C   UNL     1       7.184   4.860  15.626  0.00  0.00    +0.000 C 
ATOM     27  N   UNL     1       6.295   4.150  14.694  0.00  0.00    +0.000 N 
ATOM     28  C   UNL     1       6.725   3.960  13.375  0.00  0.00    +0.000 C 
ATOM     29  O   UNL     1       7.863   4.284  13.032  0.00  0.00    +0.000 OA
ATOM     30  C   UNL     1       5.117   3.534  15.341  0.00  0.00    +0.000 C 
ATOM     31  C   UNL     1       4.349   4.549  16.219  0.00  0.00    +0.000 C 
BRANCH  28  32
ATOM     32  C   UNL     1       5.805   3.364  12.419  0.00  0.00    +0.000 A 
ATOM     33  C   UNL     1       5.924   2.220  11.650  0.00  0.00    +0.000 A 
ATOM     34  C   UNL     1       4.733   2.108  10.893  0.00  0.00    +0.000 A 
ATOM     35  C   UNL     1       3.981   3.214  11.202  0.00  0.00    +0.000 A 
ATOM     36  O   UNL     1       4.636   3.999  12.092  0.00  0.00    +0.000 OA
ENDBRANCH  28  32
ENDBRANCH  21  22
ENDBRANCH   8  21
TORSDOF 7
ENDMDL
MODEL 4
REMARK VINA RESULT:      -7.5      3.590      5.663
REMARK  Name = 
REMARK  8 active torsions:
REMARK  status: ('A' for Active; 'I' for Inactive)
REMARK    1  A    between atoms: C_1  and  C_2
REMARK    2  A    between atoms: C_2  and  O_3
REMARK    3  A    between atoms: O_3  and  C_4
REMARK    4  A    between atoms: C_4  and  C_6
REMARK    5  A    between atoms: N_12  and  C_13
REMARK    6  A    between atoms: N_20  and  C_21
REMARK    7  A    between atoms: C_21  and  C_22
REMARK    8  A    between atoms: C_28  and  C_30
REMARK                            x       y       z     vdW  Elec       q    Type
REMARK                         _______ _______ _______ _____ _____    ______ ____
ROOT
ATOM      1  C   UNL     1      -0.645  10.458  18.485  0.00  0.00    +0.000 A 
ATOM      2  C   UNL     1       0.191   9.425  18.070  0.00  0.00    +0.000 A 
ATOM      3  C   UNL     1       0.846   8.954  19.235  0.00  0.00    +0.000 A 
ATOM      4  C   UNL     1       0.346   9.624  20.307  0.00  0.00    +0.000 A 
ATOM      5  C   UNL     1       0.962   9.124  21.483  0.00  0.00    +0.000 A 
ATOM      6  C   UNL     1       1.806   8.122  21.040  0.00  0.00    +0.000 A 
ATOM      7  N   UNL     1       1.775   8.021  19.656  0.00  0.00    +0.000 N 
ATOM      8  N   UNL     1      -0.593  10.530  19.871  0.00  0.00    +0.000 N 
ENDROOT
BRANCH   7   9
ATOM      9  C   UNL     1       2.555   7.154  18.847  0.00  0.00    +0.000 A 
ATOM     10  C   UNL     1       2.438   5.764  18.992  0.00  0.00    +0.000 A 
ATOM     11  C   UNL     1       3.219   4.915  18.203  0.00  0.00    +0.000 A 
ATOM     12  C   UNL     1       4.129   5.454  17.301  0.00  0.00    +0.000 A 
ATOM     13  F   UNL     1       4.895   4.636  16.567  0.00  0.00    +0.000 F 
ATOM     14  C   UNL     1       4.261   6.829  17.155  0.00  0.00    +0.000 A 
ATOM     15  C   UNL     1       3.463   7.684  17.918  0.00  0.00    +0.000 A 
ENDBRANCH   7   9
BRANCH   1  16
ATOM     16  C   UNL     1      -1.510  11.274  17.660  0.00  0.00    +0.000 C 
ATOM     17  O   UNL     1      -1.397  12.480  17.485  0.00  0.00    +0.000 OA
BRANCH  16  18
ATOM     18  O   UNL     1      -2.511  10.500  17.151  0.00  0.00    +0.000 OA
BRANCH  18  20
ATOM     19  C   UNL     1      -3.236  10.390  14.889  0.00  0.00    +0.000 C 
ATOM     20  C   UNL     1      -3.353  11.153  16.197  0.00  0.00    +0.000 C 
ENDBRANCH  18  20
ENDBRANCH  16  18
ENDBRANCH   1  16
BRANCH   8  21
ATOM     21  C   UNL     1      -1.384  11.388  20.757  0.00  0.00    +0.000 C 
BRANCH  21  22
ATOM     22  C   UNL     1      -0.541  12.377  21.563  0.00  0.00    +0.000 C 
ATOM     23  O   UNL     1       0.190  11.980  22.476  0.00  0.00    +0.000 OA
ATOM     24  N   UNL     1      -0.594  13.732  21.235  0.00  0.00    +0.000 N 
ATOM     25  C   UNL     1       0.233  14.664  22.014  0.00  0.00    +0.000 C 
ATOM     26  C   UNL     1       1.442  15.100  21.181  0.00  0.00    +0.000 C 
ATOM     27  N   UNL     1       0.977  15.721  19.931  0.00  0.00    +0.000 N 
ATOM     28  C   UNL     1       1.557  16.933  19.534  0.00  0.00    +0.000 C 
ATOM     29  O   UNL     1       2.505  17.411  20.158  0.00  0.00    +0.000 OA
ATOM     30  C   UNL     1       0.079  14.862  19.132  0.00  0.00    +0.000 C 
ATOM     31  C   UNL     1      -1.092  14.311  19.979  0.00  0.00    +0.000 C 
BRANCH  28  32
ATOM     32  C   UNL     1       1.022  17.612  18.364  0.00  0.00    +0.000 A 
ATOM     33  C   UNL     1      -0.269  18.013  18.069  0.00  0.00    +0.000 A 
ATOM     34  C   UNL     1      -0.228  18.628  16.795  0.00  0.00    +0.000 A 
ATOM     35  C   UNL     1       1.070  18.520  16.363  0.00  0.00    +0.000 A 
ATOM     36  O   UNL     1       1.824  17.873  17.285  0.00  0.00    +0.000 OA
ENDBRANCH  28  32
ENDBRANCH  21  22
ENDBRANCH   8  21
TORSDOF 7
ENDMDL
MODEL 5
REMARK VINA RESULT:      -7.4      5.233     11.041
REMARK  Name = 
REMARK  8 active torsions:
REMARK  status: ('A' for Active; 'I' for Inactive)
REMARK    1  A    between atoms: C_1  and  C_2
REMARK    2  A    between atoms: C_2  and  O_3
REMARK    3  A    between atoms: O_3  and  C_4
REMARK    4  A    between atoms: C_4  and  C_6
REMARK    5  A    between atoms: N_12  and  C_13
REMARK    6  A    between atoms: N_20  and  C_21
REMARK    7  A    between atoms: C_21  and  C_22
REMARK    8  A    between atoms: C_28  and  C_30
REMARK                            x       y       z     vdW  Elec       q    Type
REMARK                         _______ _______ _______ _____ _____    ______ ____
ROOT
ATOM      1  C   UNL     1       2.134   5.325  20.537  0.00  0.00    +0.000 A 
ATOM      2  C   UNL     1       1.288   6.430  20.524  0.00  0.00    +0.000 A 
ATOM      3  C   UNL     1       1.860   7.356  19.618  0.00  0.00    +0.000 A 
ATOM      4  C   UNL     1       2.954   6.780  19.051  0.00  0.00    +0.000 A 
ATOM      5  C   UNL     1       3.505   7.685  18.108  0.00  0.00    +0.000 A 
ATOM      6  C   UNL     1       2.664   8.781  18.136  0.00  0.00    +0.000 A 
ATOM      7  N   UNL     1       1.663   8.615  19.083  0.00  0.00    +0.000 N 
ATOM      8  N   UNL     1       3.121   5.521  19.579  0.00  0.00    +0.000 N 
ENDROOT
BRANCH   7   9
ATOM      9  C   UNL     1       0.661   9.556  19.437  0.00  0.00    +0.000 A 
ATOM     10  C   UNL     1       0.584  10.040  20.752  0.00  0.00    +0.000 A 
ATOM     11  C   UNL     1      -0.413  10.955  21.098  0.00  0.00    +0.000 A 
ATOM     12  C   UNL     1      -1.342  11.358  20.146  0.00  0.00    +0.000 A 
ATOM     13  F   UNL     1      -2.313  12.214  20.490  0.00  0.00    +0.000 F 
ATOM     14  C   UNL     1      -1.282  10.880  18.843  0.00  0.00    +0.000 A 
ATOM     15  C   UNL     1      -0.270   9.988  18.480  0.00  0.00    +0.000 A 
ENDBRANCH   7   9
BRANCH   1  16
ATOM     16  C   UNL     1       1.992   4.117  21.322  0.00  0.00    +0.000 C 
ATOM     17  O   UNL     1       2.722   3.777  22.243  0.00  0.00    +0.000 OA
BRANCH  16  18
ATOM     18  O   UNL     1       0.949   3.383  20.839  0.00  0.00    +0.000 OA
BRANCH  18  20
ATOM     19  C   UNL     1       0.998   2.432  18.659  0.00  0.00    +0.000 C 
ATOM     20  C   UNL     1       1.323   2.201  20.126  0.00  0.00    +0.000 C 
ENDBRANCH  18  20
ENDBRANCH  16  18
ENDBRANCH   1  16
BRANCH   8  21
ATOM     21  C   UNL     1       4.166   4.583  19.159  0.00  0.00    +0.000 C 
BRANCH  21  22
ATOM     22  C   UNL     1       5.323   5.250  18.416  0.00  0.00    +0.000 C 
ATOM     23  O   UNL     1       6.323   5.637  19.031  0.00  0.00    +0.000 OA
ATOM     24  N   UNL     1       5.243   5.392  17.032  0.00  0.00    +0.000 N 
ATOM     25  C   UNL     1       6.372   6.024  16.335  0.00  0.00    +0.000 C 
ATOM     26  C   UNL     1       7.187   4.956  15.600  0.00  0.00    +0.000 C 
ATOM     27  N   UNL     1       6.318   4.239  14.656  0.00  0.00    +0.000 N 
ATOM     28  C   UNL     1       6.780   4.029  13.351  0.00  0.00    +0.000 C 
ATOM     29  O   UNL     1       7.927   4.343  13.032  0.00  0.00    +0.000 OA
ATOM     30  C   UNL     1       5.120   3.638  15.281  0.00  0.00    +0.000 C 
ATOM     31  C   UNL     1       4.336   4.669  16.127  0.00  0.00    +0.000 C 
BRANCH  28  32
ATOM     32  C   UNL     1       5.881   3.426  12.380  0.00  0.00    +0.000 A 
ATOM     33  C   UNL     1       4.648   3.848  11.912  0.00  0.00    +0.000 A 
ATOM     34  C   UNL     1       4.211   2.881  10.975  0.00  0.00    +0.000 A 
ATOM     35  C   UNL     1       5.172   1.900  10.964  0.00  0.00    +0.000 A 
ATOM     36  O   UNL     1       6.164   2.200  11.838  0.00  0.00    +0.000 OA
ENDBRANCH  28  32
ENDBRANCH  21  22
ENDBRANCH   8  21
TORSDOF 7
ENDMDL
MODEL 6
REMARK VINA RESULT:      -7.4      4.117     10.635
REMARK  Name = 
REMARK  8 active torsions:
REMARK  status: ('A' for Active; 'I' for Inactive)
REMARK    1  A    between atoms: C_1  and  C_2
REMARK    2  A    between atoms: C_2  and  O_3
REMARK    3  A    between atoms: O_3  and  C_4
REMARK    4  A    between atoms: C_4  and  C_6
REMARK    5  A    between atoms: N_12  and  C_13
REMARK    6  A    between atoms: N_20  and  C_21
REMARK    7  A    between atoms: C_21  and  C_22
REMARK    8  A    between atoms: C_28  and  C_30
REMARK                            x       y       z     vdW  Elec       q    Type
REMARK                         _______ _______ _______ _____ _____    ______ ____
ROOT
ATOM      1  C   UNL     1      -2.355  11.253  18.781  0.00  0.00    +0.000 A 
ATOM      2  C   UNL     1      -2.998  12.334  19.375  0.00  0.00    +0.000 A 
ATOM      3  C   UNL     1      -2.132  12.798  20.396  0.00  0.00    +0.000 A 
ATOM      4  C   UNL     1      -0.982  12.073  20.343  0.00  0.00    +0.000 A 
ATOM      5  C   UNL     1      -0.091  12.564  21.331  0.00  0.00    +0.000 A 
ATOM      6  C   UNL     1      -0.764  13.616  21.923  0.00  0.00    +0.000 A 
ATOM      7  N   UNL     1      -2.036  13.758  21.386  0.00  0.00    +0.000 N 
ATOM      8  N   UNL     1      -1.088  11.139  19.339  0.00  0.00    +0.000 N 
ENDROOT
BRANCH   7   9
ATOM      9  C   UNL     1      -3.033  14.684  21.789  0.00  0.00    +0.000 A 
ATOM     10  C   UNL     1      -4.187  14.233  22.446  0.00  0.00    +0.000 A 
ATOM     11  C   UNL     1      -5.172  15.147  22.828  0.00  0.00    +0.000 A 
ATOM     12  C   UNL     1      -5.016  16.496  22.528  0.00  0.00    +0.000 A 
ATOM     13  F   UNL     1      -5.975  17.365  22.872  0.00  0.00    +0.000 F 
ATOM     14  C   UNL     1      -3.881  16.955  21.871  0.00  0.00    +0.000 A 
ATOM     15  C   UNL     1      -2.878  16.051  21.512  0.00  0.00    +0.000 A 
ENDBRANCH   7   9
BRANCH   1  16
ATOM     16  C   UNL     1      -2.845  10.424  17.699  0.00  0.00    +0.000 C 
ATOM     17  O   UNL     1      -3.372   9.328  17.825  0.00  0.00    +0.000 OA
BRANCH  16  18
ATOM     18  O   UNL     1      -2.574  11.030  16.508  0.00  0.00    +0.000 OA
BRANCH  18  20
ATOM     19  C   UNL     1      -2.969  10.088  14.360  0.00  0.00    +0.000 C 
ATOM     20  C   UNL     1      -3.583  10.872  15.507  0.00  0.00    +0.000 C 
ENDBRANCH  18  20
ENDBRANCH  16  18
ENDBRANCH   1  16
BRANCH   8  21
ATOM     21  C   UNL     1      -0.015  10.219  18.953  0.00  0.00    +0.000 C 
BRANCH  21  22
ATOM     22  C   UNL     1       0.356   9.219  20.048  0.00  0.00    +0.000 C 
ATOM     23  O   UNL     1      -0.408   9.016  20.998  0.00  0.00    +0.000 OA
ATOM     24  N   UNL     1       1.559   8.522  19.945  0.00  0.00    +0.000 N 
ATOM     25  C   UNL     1       1.891   7.556  21.001  0.00  0.00    +0.000 C 
ATOM     26  C   UNL     1       1.685   6.131  20.479  0.00  0.00    +0.000 C 
ATOM     27  N   UNL     1       2.520   5.919  19.288  0.00  0.00    +0.000 N 
ATOM     28  C   UNL     1       3.280   4.745  19.205  0.00  0.00    +0.000 C 
ATOM     29  O   UNL     1       3.169   3.864  20.058  0.00  0.00    +0.000 OA
ATOM     30  C   UNL     1       2.289   6.904  18.210  0.00  0.00    +0.000 C 
ATOM     31  C   UNL     1       2.376   8.357  18.733  0.00  0.00    +0.000 C 
BRANCH  28  32
ATOM     32  C   UNL     1       4.196   4.584  18.088  0.00  0.00    +0.000 A 
ATOM     33  C   UNL     1       4.050   3.894  16.897  0.00  0.00    +0.000 A 
ATOM     34  C   UNL     1       5.253   4.069  16.171  0.00  0.00    +0.000 A 
ATOM     35  C   UNL     1       6.082   4.806  16.979  0.00  0.00    +0.000 A 
ATOM     36  O   UNL     1       5.468   5.088  18.154  0.00  0.00    +0.000 OA
ENDBRANCH  28  32
ENDBRANCH  21  22
ENDBRANCH   8  21
TORSDOF 7
ENDMDL
MODEL 7
REMARK VINA RESULT:      -7.4      3.095      5.175
REMARK  Name = 
REMARK  8 active torsions:
REMARK  status: ('A' for Active; 'I' for Inactive)
REMARK    1  A    between atoms: C_1  and  C_2
REMARK    2  A    between atoms: C_2  and  O_3
REMARK    3  A    between atoms: O_3  and  C_4
REMARK    4  A    between atoms: C_4  and  C_6
REMARK    5  A    between atoms: N_12  and  C_13
REMARK    6  A    between atoms: N_20  and  C_21
REMARK    7  A    between atoms: C_21  and  C_22
REMARK    8  A    between atoms: C_28  and  C_30
REMARK                            x       y       z     vdW  Elec       q    Type
REMARK                         _______ _______ _______ _____ _____    ______ ____
ROOT
ATOM      1  C   UNL     1       0.304  13.814  20.989  0.00  0.00    +0.000 A 
ATOM      2  C   UNL     1       0.734  12.690  20.289  0.00  0.00    +0.000 A 
ATOM      3  C   UNL     1       0.283  11.568  21.026  0.00  0.00    +0.000 A 
ATOM      4  C   UNL     1      -0.462  12.015  22.073  0.00  0.00    +0.000 A 
ATOM      5  C   UNL     1      -0.957  10.894  22.788  0.00  0.00    +0.000 A 
ATOM      6  C   UNL     1      -0.493   9.796  22.090  0.00  0.00    +0.000 A 
ATOM      7  N   UNL     1       0.301  10.185  21.020  0.00  0.00    +0.000 N 
ATOM      8  N   UNL     1      -0.487  13.390  22.049  0.00  0.00    +0.000 N 
ENDROOT
BRANCH   7   9
ATOM      9  C   UNL     1       1.000   9.336  20.123  0.00  0.00    +0.000 A 
ATOM     10  C   UNL     1       1.122   9.689  18.771  0.00  0.00    +0.000 A 
ATOM     11  C   UNL     1       1.799   8.842  17.890  0.00  0.00    +0.000 A 
ATOM     12  C   UNL     1       2.321   7.639  18.352  0.00  0.00    +0.000 A 
ATOM     13  F   UNL     1       2.945   6.818  17.498  0.00  0.00    +0.000 F 
ATOM     14  C   UNL     1       2.200   7.274  19.687  0.00  0.00    +0.000 A 
ATOM     15  C   UNL     1       1.551   8.129  20.581  0.00  0.00    +0.000 A 
ENDBRANCH   7   9
BRANCH   1  16
ATOM     16  C   UNL     1       0.534  15.202  20.650  0.00  0.00    +0.000 C 
ATOM     17  O   UNL     1       1.073  16.031  21.371  0.00  0.00    +0.000 OA
BRANCH  16  18
ATOM     18  O   UNL     1       0.003  15.462  19.422  0.00  0.00    +0.000 OA
BRANCH  18  20
ATOM     19  C   UNL     1      -1.028  17.498  18.752  0.00  0.00    +0.000 C 
ATOM     20  C   UNL     1       0.293  16.762  18.901  0.00  0.00    +0.000 C 
ENDBRANCH  18  20
ENDBRANCH  16  18
ENDBRANCH   1  16
BRANCH   8  21
ATOM     21  C   UNL     1      -1.244  14.216  22.992  0.00  0.00    +0.000 C 
BRANCH  21  22
ATOM     22  C   UNL     1      -2.394  14.987  22.344  0.00  0.00    +0.000 C 
ATOM     23  O   UNL     1      -2.196  16.092  21.826  0.00  0.00    +0.000 OA
ATOM     24  N   UNL     1      -3.665  14.414  22.324  0.00  0.00    +0.000 N 
ATOM     25  C   UNL     1      -4.753  15.166  21.685  0.00  0.00    +0.000 C 
ATOM     26  C   UNL     1      -5.080  14.542  20.325  0.00  0.00    +0.000 C 
ATOM     27  N   UNL     1      -5.449  13.130  20.509  0.00  0.00    +0.000 N 
ATOM     28  C   UNL     1      -6.592  12.649  19.857  0.00  0.00    +0.000 C 
ATOM     29  O   UNL     1      -7.211  13.361  19.066  0.00  0.00    +0.000 OA
ATOM     30  C   UNL     1      -4.426  12.330  21.213  0.00  0.00    +0.000 C 
ATOM     31  C   UNL     1      -3.990  12.996  22.540  0.00  0.00    +0.000 C 
BRANCH  28  32
ATOM     32  C   UNL     1      -7.029  11.289  20.127  0.00  0.00    +0.000 A 
ATOM     33  C   UNL     1      -7.791  10.778  21.163  0.00  0.00    +0.000 A 
ATOM     34  C   UNL     1      -7.915   9.386  20.935  0.00  0.00    +0.000 A 
ATOM     35  C   UNL     1      -7.180   9.119  19.807  0.00  0.00    +0.000 A 
ATOM     36  O   UNL     1      -6.609  10.253  19.335  0.00  0.00    +0.000 OA
ENDBRANCH  28  32
ENDBRANCH  21  22
ENDBRANCH   8  21
TORSDOF 7
ENDMDL
MODEL 8
REMARK VINA RESULT:      -7.3      3.569      5.599
REMARK  Name = 
REMARK  8 active torsions:
REMARK  status: ('A' for Active; 'I' for Inactive)
REMARK    1  A    between atoms: C_1  and  C_2
REMARK    2  A    between atoms: C_2  and  O_3
REMARK    3  A    between atoms: O_3  and  C_4
REMARK    4  A    between atoms: C_4  and  C_6
REMARK    5  A    between atoms: N_12  and  C_13
REMARK    6  A    between atoms: N_20  and  C_21
REMARK    7  A    between atoms: C_21  and  C_22
REMARK    8  A    between atoms: C_28  and  C_30
REMARK                            x       y       z     vdW  Elec       q    Type
REMARK                         _______ _______ _______ _____ _____    ______ ____
ROOT
ATOM      1  C   UNL     1      -0.753  10.560  18.591  0.00  0.00    +0.000 A 
ATOM      2  C   UNL     1       0.090   9.527  18.192  0.00  0.00    +0.000 A 
ATOM      3  C   UNL     1       0.738   9.069  19.366  0.00  0.00    +0.000 A 
ATOM      4  C   UNL     1       0.226   9.747  20.428  0.00  0.00    +0.000 A 
ATOM      5  C   UNL     1       0.836   9.260  21.613  0.00  0.00    +0.000 A 
ATOM      6  C   UNL     1       1.687   8.258  21.186  0.00  0.00    +0.000 A 
ATOM      7  N   UNL     1       1.668   8.145  19.803  0.00  0.00    +0.000 N 
ATOM      8  N   UNL     1      -0.712  10.645  19.976  0.00  0.00    +0.000 N 
ENDROOT
BRANCH   7   9
ATOM      9  C   UNL     1       2.458   7.274  19.008  0.00  0.00    +0.000 A 
ATOM     10  C   UNL     1       3.306   7.798  18.021  0.00  0.00    +0.000 A 
ATOM     11  C   UNL     1       4.071   6.935  17.232  0.00  0.00    +0.000 A 
ATOM     12  C   UNL     1       3.964   5.561  17.409  0.00  0.00    +0.000 A 
ATOM     13  F   UNL     1       4.678   4.737  16.631  0.00  0.00    +0.000 F 
ATOM     14  C   UNL     1       3.122   5.028  18.377  0.00  0.00    +0.000 A 
ATOM     15  C   UNL     1       2.376   5.885  19.190  0.00  0.00    +0.000 A 
ENDBRANCH   7   9
BRANCH   1  16
ATOM     16  C   UNL     1      -1.616  11.364  17.752  0.00  0.00    +0.000 C 
ATOM     17  O   UNL     1      -1.412  12.527  17.429  0.00  0.00    +0.000 OA
BRANCH  16  18
ATOM     18  O   UNL     1      -2.726  10.644  17.422  0.00  0.00    +0.000 OA
BRANCH  18  20
ATOM     19  C   UNL     1      -4.720  11.695  18.183  0.00  0.00    +0.000 C 
ATOM     20  C   UNL     1      -3.839  11.422  16.975  0.00  0.00    +0.000 C 
ENDBRANCH  18  20
ENDBRANCH  16  18
ENDBRANCH   1  16
BRANCH   8  21
ATOM     21  C   UNL     1      -1.514  11.507  20.848  0.00  0.00    +0.000 C 
BRANCH  21  22
ATOM     22  C   UNL     1      -0.681  12.496  21.664  0.00  0.00    +0.000 C 
ATOM     23  O   UNL     1      -0.009  12.106  22.626  0.00  0.00    +0.000 OA
ATOM     24  N   UNL     1      -0.672  13.839  21.292  0.00  0.00    +0.000 N 
ATOM     25  C   UNL     1       0.145  14.771  22.082  0.00  0.00    +0.000 C 
ATOM     26  C   UNL     1       1.407  15.140  21.298  0.00  0.00    +0.000 C 
ATOM     27  N   UNL     1       1.027  15.734  20.007  0.00  0.00    +0.000 N 
ATOM     28  C   UNL     1       1.665  16.913  19.601  0.00  0.00    +0.000 C 
ATOM     29  O   UNL     1       2.596  17.382  20.257  0.00  0.00    +0.000 OA
ATOM     30  C   UNL     1       0.142  14.877  19.190  0.00  0.00    +0.000 C 
ATOM     31  C   UNL     1      -1.088  14.392  19.993  0.00  0.00    +0.000 C 
BRANCH  28  32
ATOM     32  C   UNL     1       1.212  17.569  18.385  0.00  0.00    +0.000 A 
ATOM     33  C   UNL     1      -0.012  18.130  18.069  0.00  0.00    +0.000 A 
ATOM     34  C   UNL     1       0.094  18.631  16.748  0.00  0.00    +0.000 A 
ATOM     35  C   UNL     1       1.353  18.299  16.316  0.00  0.00    +0.000 A 
ATOM     36  O   UNL     1       2.023  17.623  17.282  0.00  0.00    +0.000 OA
ENDBRANCH  28  32
ENDBRANCH  21  22
ENDBRANCH   8  21
TORSDOF 7
ENDMDL
MODEL 9
REMARK VINA RESULT:      -7.3      4.052     10.668
REMARK  Name = 
REMARK  8 active torsions:
REMARK  status: ('A' for Active; 'I' for Inactive)
REMARK    1  A    between atoms: C_1  and  C_2
REMARK    2  A    between atoms: C_2  and  O_3
REMARK    3  A    between atoms: O_3  and  C_4
REMARK    4  A    between atoms: C_4  and  C_6
REMARK    5  A    between atoms: N_12  and  C_13
REMARK    6  A    between atoms: N_20  and  C_21
REMARK    7  A    between atoms: C_21  and  C_22
REMARK    8  A    between atoms: C_28  and  C_30
REMARK                            x       y       z     vdW  Elec       q    Type
REMARK                         _______ _______ _______ _____ _____    ______ ____
ROOT
ATOM      1  C   UNL     1      -3.073  11.361  18.756  0.00  0.00    +0.000 A 
ATOM      2  C   UNL     1      -3.847  12.338  19.374  0.00  0.00    +0.000 A 
ATOM      3  C   UNL     1      -3.017  12.941  20.352  0.00  0.00    +0.000 A 
ATOM      4  C   UNL     1      -1.774  12.399  20.250  0.00  0.00    +0.000 A 
ATOM      5  C   UNL     1      -0.925  13.032  21.195  0.00  0.00    +0.000 A 
ATOM      6  C   UNL     1      -1.724  13.975  21.812  0.00  0.00    +0.000 A 
ATOM      7  N   UNL     1      -3.026  13.915  21.333  0.00  0.00    +0.000 N 
ATOM      8  N   UNL     1      -1.780  11.449  19.256  0.00  0.00    +0.000 N 
ENDROOT
BRANCH   7   9
ATOM      9  C   UNL     1      -4.134  14.683  21.777  0.00  0.00    +0.000 A 
ATOM     10  C   UNL     1      -4.559  14.596  23.111  0.00  0.00    +0.000 A 
ATOM     11  C   UNL     1      -5.660  15.343  23.539  0.00  0.00    +0.000 A 
ATOM     12  C   UNL     1      -6.345  16.144  22.633  0.00  0.00    +0.000 A 
ATOM     13  F   UNL     1      -7.416  16.837  23.042  0.00  0.00    +0.000 F 
ATOM     14  C   UNL     1      -5.939  16.232  21.307  0.00  0.00    +0.000 A 
ATOM     15  C   UNL     1      -4.822  15.512  20.878  0.00  0.00    +0.000 A 
ENDBRANCH   7   9
BRANCH   1  16
ATOM     16  C   UNL     1      -3.477  10.455  17.701  0.00  0.00    +0.000 C 
ATOM     17  O   UNL     1      -3.593   9.242  17.810  0.00  0.00    +0.000 OA
BRANCH  16  18
ATOM     18  O   UNL     1      -3.653  11.157  16.545  0.00  0.00    +0.000 OA
BRANCH  18  20
ATOM     19  C   UNL     1      -3.543  10.127  14.404  0.00  0.00    +0.000 C 
ATOM     20  C   UNL     1      -2.744  10.824  15.493  0.00  0.00    +0.000 C 
ENDBRANCH  18  20
ENDBRANCH  16  18
ENDBRANCH   1  16
BRANCH   8  21
ATOM     21  C   UNL     1      -0.596  10.700  18.825  0.00  0.00    +0.000 C 
BRANCH  21  22
ATOM     22  C   UNL     1      -0.029   9.779  19.906  0.00  0.00    +0.000 C 
ATOM     23  O   UNL     1      -0.712   9.469  20.888  0.00  0.00    +0.000 OA
ATOM     24  N   UNL     1       1.262   9.276  19.754  0.00  0.00    +0.000 N 
ATOM     25  C   UNL     1       1.784   8.382  20.798  0.00  0.00    +0.000 C 
ATOM     26  C   UNL     1       1.780   6.938  20.288  0.00  0.00    +0.000 C 
ATOM     27  N   UNL     1       2.588   6.848  19.063  0.00  0.00    +0.000 N 
ATOM     28  C   UNL     1       3.516   5.805  18.951  0.00  0.00    +0.000 C 
ATOM     29  O   UNL     1       3.579   4.925  19.810  0.00  0.00    +0.000 OA
ATOM     30  C   UNL     1       2.161   7.775  17.994  0.00  0.00    +0.000 C 
ATOM     31  C   UNL     1       2.044   9.229  18.509  0.00  0.00    +0.000 C 
BRANCH  28  32
ATOM     32  C   UNL     1       4.399   5.777  17.796  0.00  0.00    +0.000 A 
ATOM     33  C   UNL     1       5.416   6.638  17.421  0.00  0.00    +0.000 A 
ATOM     34  C   UNL     1       5.950   6.140  16.208  0.00  0.00    +0.000 A 
ATOM     35  C   UNL     1       5.196   5.039  15.884  0.00  0.00    +0.000 A 
ATOM     36  O   UNL     1       4.232   4.835  16.816  0.00  0.00    +0.000 OA
ENDBRANCH  28  32
ENDBRANCH  21  22
ENDBRANCH   8  21
TORSDOF 7
ENDMDL
