MODEL 1
REMARK VINA RESULT:      -7.1      0.000      0.000
REMARK  Name = 
REMARK  5 active torsions:
REMARK  status: ('A' for Active; 'I' for Inactive)
REMARK    1  A    between atoms: C_1  and  C_2
REMARK    2  A    between atoms: C_5  and  C_6
REMARK    3  A    between atoms: C_8  and  C_9
REMARK    4  A    between atoms: C_9  and  C_10
REMARK    5  A    between atoms: N_15  and  C_16
REMARK                            x       y       z     vdW  Elec       q    Type
REMARK                         _______ _______ _______ _____ _____    ______ ____
ROOT
ATOM      1  C   UNL     1       5.105   4.591  18.798  0.00  0.00    +0.000 A 
ATOM      2  N   UNL     1       5.265   4.271  17.532  0.00  0.00    +0.000 NA
ATOM      3  C   UNL     1       6.624   4.417  17.339  0.00  0.00    +0.000 A 
ATOM      4  N   UNL     1       7.302   4.797  18.432  0.00  0.00    +0.000 NA
ATOM      5  N   UNL     1       6.319   4.887  19.345  0.00  0.00    +0.000 N 
ATOM      6  H   UNL     1       6.540   5.130  20.303  0.00  0.00    +0.000 HD
ENDROOT
BRANCH   1  11
ATOM      7  C   UNL     1       1.172   2.922  21.371  0.00  0.00    +0.000 C 
ATOM      8  C   UNL     1       2.081   3.868  20.668  0.00  0.00    +0.000 A 
ATOM      9  C   UNL     1       1.954   5.236  20.528  0.00  0.00    +0.000 A 
ATOM     10  C   UNL     1       3.075   5.705  19.812  0.00  0.00    +0.000 A 
ATOM     11  C   UNL     1       3.868   4.614  19.507  0.00  0.00    +0.000 A 
ATOM     12  N   UNL     1       3.248   3.488  20.026  0.00  0.00    +0.000 N 
BRANCH  12  13
ATOM     13  C   UNL     1       3.792   2.133  19.914  0.00  0.00    +0.000 C 
ATOM     14  F   UNL     1       3.787   1.705  18.620  0.00  0.00    +0.000 F 
ATOM     15  F   UNL     1       5.083   2.041  20.330  0.00  0.00    +0.000 F 
ENDBRANCH  12  13
ENDBRANCH   1  11
BRANCH   3  16
ATOM     16  C   UNL     1       7.272   4.233  16.015  0.00  0.00    +0.000 C 
BRANCH  16  17
ATOM     17  C   UNL     1       6.912   5.284  14.990  0.00  0.00    +0.000 C 
ATOM     18  N   UNL     1       5.773   6.012  15.180  0.00  0.00    +0.000 N 
ATOM     19  O   UNL     1       7.659   5.576  14.053  0.00  0.00    +0.000 OA
ATOM     20  H   UNL     1       5.069   5.721  15.850  0.00  0.00    +0.000 HD
ATOM     21  H   UNL     1       5.513   6.677  14.462  0.00  0.00    +0.000 HD
ENDBRANCH  16  17
ENDBRANCH   3  16
TORSDOF 4
ENDMDL
MODEL 2
REMARK VINA RESULT:      -7.0      2.046      2.473
REMARK  Name = 
REMARK  5 active torsions:
REMARK  status: ('A' for Active; 'I' for Inactive)
REMARK    1  A    between atoms: C_1  and  C_2
REMARK    2  A    between atoms: C_5  and  C_6
REMARK    3  A    between atoms: C_8  and  C_9
REMARK    4  A    between atoms: C_9  and  C_10
REMARK    5  A    between atoms: N_15  and  C_16
REMARK                            x       y       z     vdW  Elec       q    Type
REMARK                         _______ _______ _______ _____ _____    ______ ____
ROOT
ATOM      1  C   UNL     1       4.814   4.756  18.781  0.00  0.00    +0.000 A 
ATOM      2  N   UNL     1       5.121   5.783  18.019  0.00  0.00    +0.000 NA
ATOM      3  C   UNL     1       6.483   5.648  17.842  0.00  0.00    +0.000 A 
ATOM      4  N   UNL     1       7.019   4.578  18.448  0.00  0.00    +0.000 NA
ATOM      5  N   UNL     1       5.939   4.023  19.024  0.00  0.00    +0.000 N 
ATOM      6  H   UNL     1       6.031   3.156  19.540  0.00  0.00    +0.000 HD
ENDROOT
BRANCH   1  11
ATOM      7  C   UNL     1       0.565   2.224  19.419  0.00  0.00    +0.000 C 
ATOM      8  C   UNL     1       1.585   3.298  19.563  0.00  0.00    +0.000 A 
ATOM      9  C   UNL     1       1.538   4.424  20.362  0.00  0.00    +0.000 A 
ATOM     10  C   UNL     1       2.748   5.129  20.189  0.00  0.00    +0.000 A 
ATOM     11  C   UNL     1       3.515   4.434  19.272  0.00  0.00    +0.000 A 
ATOM     12  N   UNL     1       2.791   3.317  18.882  0.00  0.00    +0.000 N 
BRANCH  12  13
ATOM     13  C   UNL     1       3.278   2.324  17.923  0.00  0.00    +0.000 C 
ATOM     14  F   UNL     1       3.561   1.142  18.539  0.00  0.00    +0.000 F 
ATOM     15  F   UNL     1       2.370   2.029  16.954  0.00  0.00    +0.000 F 
ENDBRANCH  12  13
ENDBRANCH   1  11
BRANCH   3  16
ATOM     16  C   UNL     1       7.299   6.641  17.096  0.00  0.00    +0.000 C 
BRANCH  16  17
ATOM     17  C   UNL     1       7.912   7.721  17.959  0.00  0.00    +0.000 C 
ATOM     18  N   UNL     1       8.548   7.351  19.108  0.00  0.00    +0.000 N 
ATOM     19  O   UNL     1       7.948   8.903  17.610  0.00  0.00    +0.000 OA
ATOM     20  H   UNL     1       8.429   6.422  19.499  0.00  0.00    +0.000 HD
ATOM     21  H   UNL     1       8.910   8.085  19.704  0.00  0.00    +0.000 HD
ENDBRANCH  16  17
ENDBRANCH   3  16
TORSDOF 4
ENDMDL
MODEL 3
REMARK VINA RESULT:      -7.0      1.930      2.379
REMARK  Name = 
REMARK  5 active torsions:
REMARK  status: ('A' for Active; 'I' for Inactive)
REMARK    1  A    between atoms: C_1  and  C_2
REMARK    2  A    between atoms: C_5  and  C_6
REMARK    3  A    between atoms: C_8  and  C_9
REMARK    4  A    between atoms: C_9  and  C_10
REMARK    5  A    between atoms: N_15  and  C_16
REMARK                            x       y       z     vdW  Elec       q    Type
REMARK                         _______ _______ _______ _____ _____    ______ ____
ROOT
ATOM      1  C   UNL     1       4.906   3.786  18.011  0.00  0.00    +0.000 A 
ATOM      2  N   UNL     1       5.088   4.362  16.843  0.00  0.00    +0.000 NA
ATOM      3  C   UNL     1       6.399   4.790  16.902  0.00  0.00    +0.000 A 
ATOM      4  N   UNL     1       7.030   4.490  18.047  0.00  0.00    +0.000 NA
ATOM      5  N   UNL     1       6.067   3.843  18.727  0.00  0.00    +0.000 N 
ATOM      6  H   UNL     1       6.267   3.456  19.642  0.00  0.00    +0.000 HD
ENDROOT
BRANCH   1  11
ATOM      7  C   UNL     1       0.534   3.293  20.358  0.00  0.00    +0.000 C 
ATOM      8  C   UNL     1       1.723   2.944  19.533  0.00  0.00    +0.000 A 
ATOM      9  C   UNL     1       1.989   1.763  18.869  0.00  0.00    +0.000 A 
ATOM     10  C   UNL     1       3.219   1.913  18.195  0.00  0.00    +0.000 A 
ATOM     11  C   UNL     1       3.701   3.179  18.470  0.00  0.00    +0.000 A 
ATOM     12  N   UNL     1       2.783   3.804  19.301  0.00  0.00    +0.000 N 
BRANCH  12  13
ATOM     13  C   UNL     1       2.937   5.171  19.804  0.00  0.00    +0.000 C 
ATOM     14  F   UNL     1       2.107   6.032  19.151  0.00  0.00    +0.000 F 
ATOM     15  F   UNL     1       2.632   5.291  21.124  0.00  0.00    +0.000 F 
ENDBRANCH  12  13
ENDBRANCH   1  11
BRANCH   3  16
ATOM     16  C   UNL     1       7.038   5.577  15.816  0.00  0.00    +0.000 C 
BRANCH  16  17
ATOM     17  C   UNL     1       7.078   4.877  14.477  0.00  0.00    +0.000 C 
ATOM     18  N   UNL     1       6.392   3.705  14.336  0.00  0.00    +0.000 N 
ATOM     19  O   UNL     1       7.617   5.376  13.487  0.00  0.00    +0.000 OA
ATOM     20  H   UNL     1       6.053   3.194  15.145  0.00  0.00    +0.000 HD
ATOM     21  H   UNL     1       6.468   3.217  13.452  0.00  0.00    +0.000 HD
ENDBRANCH  16  17
ENDBRANCH   3  16
TORSDOF 4
ENDMDL
MODEL 4
REMARK VINA RESULT:      -7.0      1.419      1.729
REMARK  Name = 
REMARK  5 active torsions:
REMARK  status: ('A' for Active; 'I' for Inactive)
REMARK    1  A    between atoms: C_1  and  C_2
REMARK    2  A    between atoms: C_5  and  C_6
REMARK    3  A    between atoms: C_8  and  C_9
REMARK    4  A    between atoms: C_9  and  C_10
REMARK    5  A    between atoms: N_15  and  C_16
REMARK                            x       y       z     vdW  Elec       q    Type
REMARK                         _______ _______ _______ _____ _____    ______ ____
ROOT
ATOM      1  C   UNL     1       5.408   4.557  17.813  0.00  0.00    +0.000 A 
ATOM      2  N   UNL     1       5.370   4.942  16.556  0.00  0.00    +0.000 NA
ATOM      3  C   UNL     1       6.689   4.855  16.159  0.00  0.00    +0.000 A 
ATOM      4  N   UNL     1       7.528   4.422  17.111  0.00  0.00    +0.000 NA
ATOM      5  N   UNL     1       6.690   4.228  18.145  0.00  0.00    +0.000 N 
ATOM      6  H   UNL     1       7.044   3.859  19.020  0.00  0.00    +0.000 HD
ENDROOT
BRANCH   1  11
ATOM      7  C   UNL     1       1.408   2.667  20.114  0.00  0.00    +0.000 C 
ATOM      8  C   UNL     1       2.479   3.631  19.743  0.00  0.00    +0.000 A 
ATOM      9  C   UNL     1       2.727   4.883  20.271  0.00  0.00    +0.000 A 
ATOM     10  C   UNL     1       3.867   5.407  19.627  0.00  0.00    +0.000 A 
ATOM     11  C   UNL     1       4.295   4.476  18.700  0.00  0.00    +0.000 A 
ATOM     12  N   UNL     1       3.433   3.391  18.767  0.00  0.00    +0.000 N 
BRANCH  12  13
ATOM     13  C   UNL     1       3.565   2.191  17.940  0.00  0.00    +0.000 C 
ATOM     14  F   UNL     1       3.861   1.099  18.700  0.00  0.00    +0.000 F 
ATOM     15  F   UNL     1       2.425   1.877  17.269  0.00  0.00    +0.000 F 
ENDBRANCH  12  13
ENDBRANCH   1  11
BRANCH   3  16
ATOM     16  C   UNL     1       7.152   5.271  14.810  0.00  0.00    +0.000 C 
BRANCH  16  17
ATOM     17  C   UNL     1       6.824   4.291  13.706  0.00  0.00    +0.000 C 
ATOM     18  N   UNL     1       6.029   3.221  14.003  0.00  0.00    +0.000 N 
ATOM     19  O   UNL     1       7.160   4.479  12.535  0.00  0.00    +0.000 OA
ATOM     20  H   UNL     1       5.844   2.955  14.965  0.00  0.00    +0.000 HD
ATOM     21  H   UNL     1       5.858   2.543  13.271  0.00  0.00    +0.000 HD
ENDBRANCH  16  17
ENDBRANCH   3  16
TORSDOF 4
ENDMDL
MODEL 5
REMARK VINA RESULT:      -6.9      1.166      1.278
REMARK  Name = 
REMARK  5 active torsions:
REMARK  status: ('A' for Active; 'I' for Inactive)
REMARK    1  A    between atoms: C_1  and  C_2
REMARK    2  A    between atoms: C_5  and  C_6
REMARK    3  A    between atoms: C_8  and  C_9
REMARK    4  A    between atoms: C_9  and  C_10
REMARK    5  A    between atoms: N_15  and  C_16
REMARK                            x       y       z     vdW  Elec       q    Type
REMARK                         _______ _______ _______ _____ _____    ______ ____
ROOT
ATOM      1  C   UNL     1       4.383   4.615  18.225  0.00  0.00    +0.000 A 
ATOM      2  N   UNL     1       4.157   5.145  17.043  0.00  0.00    +0.000 NA
ATOM      3  C   UNL     1       5.366   4.995  16.393  0.00  0.00    +0.000 A 
ATOM      4  N   UNL     1       6.314   4.385  17.119  0.00  0.00    +0.000 NA
ATOM      5  N   UNL     1       5.663   4.143  18.270  0.00  0.00    +0.000 N 
ATOM      6  H   UNL     1       6.130   3.647  19.020  0.00  0.00    +0.000 HD
ENDROOT
BRANCH   1  11
ATOM      7  C   UNL     1       1.344   2.557  21.601  0.00  0.00    +0.000 C 
ATOM      8  C   UNL     1       2.065   3.603  20.825  0.00  0.00    +0.000 A 
ATOM      9  C   UNL     1       2.029   4.973  20.994  0.00  0.00    +0.000 A 
ATOM     10  C   UNL     1       2.901   5.549  20.046  0.00  0.00    +0.000 A 
ATOM     11  C   UNL     1       3.448   4.525  19.297  0.00  0.00    +0.000 A 
ATOM     12  N   UNL     1       2.923   3.332  19.772  0.00  0.00    +0.000 N 
BRANCH  12  13
ATOM     13  C   UNL     1       3.272   2.016  19.235  0.00  0.00    +0.000 C 
ATOM     14  F   UNL     1       3.254   2.019  17.872  0.00  0.00    +0.000 F 
ATOM     15  F   UNL     1       4.522   1.610  19.588  0.00  0.00    +0.000 F 
ENDBRANCH  12  13
ENDBRANCH   1  11
BRANCH   3  16
ATOM     16  C   UNL     1       5.616   5.523  15.027  0.00  0.00    +0.000 C 
BRANCH  16  17
ATOM     17  C   UNL     1       6.719   4.816  14.274  0.00  0.00    +0.000 C 
ATOM     18  N   UNL     1       6.496   3.541  13.841  0.00  0.00    +0.000 N 
ATOM     19  O   UNL     1       7.765   5.383  13.950  0.00  0.00    +0.000 OA
ATOM     20  H   UNL     1       5.717   2.995  14.196  0.00  0.00    +0.000 HD
ATOM     21  H   UNL     1       7.259   3.057  13.384  0.00  0.00    +0.000 HD
ENDBRANCH  16  17
ENDBRANCH   3  16
TORSDOF 4
ENDMDL
MODEL 6
REMARK VINA RESULT:      -6.9      1.203      1.489
REMARK  Name = 
REMARK  5 active torsions:
REMARK  status: ('A' for Active; 'I' for Inactive)
REMARK    1  A    between atoms: C_1  and  C_2
REMARK    2  A    between atoms: C_5  and  C_6
REMARK    3  A    between atoms: C_8  and  C_9
REMARK    4  A    between atoms: C_9  and  C_10
REMARK    5  A    between atoms: N_15  and  C_16
REMARK                            x       y       z     vdW  Elec       q    Type
REMARK                         _______ _______ _______ _____ _____    ______ ____
ROOT
ATOM      1  C   UNL     1       4.845   4.686  18.665  0.00  0.00    +0.000 A 
ATOM      2  N   UNL     1       5.114   5.207  17.488  0.00  0.00    +0.000 NA
ATOM      3  C   UNL     1       6.494   5.210  17.451  0.00  0.00    +0.000 A 
ATOM      4  N   UNL     1       7.079   4.702  18.546  0.00  0.00    +0.000 NA
ATOM      5  N   UNL     1       6.014   4.366  19.293  0.00  0.00    +0.000 N 
ATOM      6  H   UNL     1       6.148   3.915  20.191  0.00  0.00    +0.000 HD
ENDROOT
BRANCH   1  11
ATOM      7  C   UNL     1       0.509   2.415  19.617  0.00  0.00    +0.000 C 
ATOM      8  C   UNL     1       1.577   3.451  19.642  0.00  0.00    +0.000 A 
ATOM      9  C   UNL     1       1.599   4.644  20.337  0.00  0.00    +0.000 A 
ATOM     10  C   UNL     1       2.833   5.276  20.076  0.00  0.00    +0.000 A 
ATOM     11  C   UNL     1       3.546   4.468  19.210  0.00  0.00    +0.000 A 
ATOM     12  N   UNL     1       2.766   3.354  18.938  0.00  0.00    +0.000 N 
BRANCH  12  13
ATOM     13  C   UNL     1       3.186   2.259  18.062  0.00  0.00    +0.000 C 
ATOM     14  F   UNL     1       3.348   1.102  18.764  0.00  0.00    +0.000 F 
ATOM     15  F   UNL     1       2.279   1.977  17.088  0.00  0.00    +0.000 F 
ENDBRANCH  12  13
ENDBRANCH   1  11
BRANCH   3  16
ATOM     16  C   UNL     1       7.267   5.789  16.322  0.00  0.00    +0.000 C 
BRANCH  16  17
ATOM     17  C   UNL     1       7.162   5.013  15.029  0.00  0.00    +0.000 C 
ATOM     18  N   UNL     1       6.312   3.946  14.979  0.00  0.00    +0.000 N 
ATOM     19  O   UNL     1       7.734   5.370  13.997  0.00  0.00    +0.000 OA
ATOM     20  H   UNL     1       5.931   3.538  15.827  0.00  0.00    +0.000 HD
ATOM     21  H   UNL     1       6.287   3.402  14.126  0.00  0.00    +0.000 HD
ENDBRANCH  16  17
ENDBRANCH   3  16
TORSDOF 4
ENDMDL
MODEL 7
REMARK VINA RESULT:      -6.9      2.615      3.092
REMARK  Name = 
REMARK  5 active torsions:
REMARK  status: ('A' for Active; 'I' for Inactive)
REMARK    1  A    between atoms: C_1  and  C_2
REMARK    2  A    between atoms: C_5  and  C_6
REMARK    3  A    between atoms: C_8  and  C_9
REMARK    4  A    between atoms: C_9  and  C_10
REMARK    5  A    between atoms: N_15  and  C_16
REMARK                            x       y       z     vdW  Elec       q    Type
REMARK                         _______ _______ _______ _____ _____    ______ ____
ROOT
ATOM      1  C   UNL     1       5.473   4.332  18.926  0.00  0.00    +0.000 A 
ATOM      2  N   UNL     1       6.086   5.363  19.464  0.00  0.00    +0.000 NA
ATOM      3  C   UNL     1       7.149   5.579  18.609  0.00  0.00    +0.000 A 
ATOM      4  N   UNL     1       7.204   4.736  17.568  0.00  0.00    +0.000 NA
ATOM      5  N   UNL     1       6.124   3.965  17.784  0.00  0.00    +0.000 N 
ATOM      6  H   UNL     1       5.882   3.237  17.122  0.00  0.00    +0.000 HD
ENDROOT
BRANCH   1  11
ATOM      7  C   UNL     1       0.679   3.653  20.120  0.00  0.00    +0.000 C 
ATOM      8  C   UNL     1       2.135   3.379  19.982  0.00  0.00    +0.000 A 
ATOM      9  C   UNL     1       2.832   2.242  20.338  0.00  0.00    +0.000 A 
ATOM     10  C   UNL     1       4.185   2.433  19.985  0.00  0.00    +0.000 A 
ATOM     11  C   UNL     1       4.303   3.694  19.432  0.00  0.00    +0.000 A 
ATOM     12  N   UNL     1       3.043   4.275  19.442  0.00  0.00    +0.000 N 
BRANCH  12  13
ATOM     13  C   UNL     1       2.759   5.615  18.926  0.00  0.00    +0.000 C 
ATOM     14  F   UNL     1       1.950   5.559  17.831  0.00  0.00    +0.000 F 
ATOM     15  F   UNL     1       2.114   6.407  19.823  0.00  0.00    +0.000 F 
ENDBRANCH  12  13
ENDBRANCH   1  11
BRANCH   3  16
ATOM     16  C   UNL     1       8.184   6.616  18.859  0.00  0.00    +0.000 C 
BRANCH  16  17
ATOM     17  C   UNL     1       8.028   7.868  18.026  0.00  0.00    +0.000 C 
ATOM     18  N   UNL     1       7.270   7.804  16.892  0.00  0.00    +0.000 N 
ATOM     19  O   UNL     1       8.473   8.960  18.387  0.00  0.00    +0.000 OA
ATOM     20  H   UNL     1       7.002   6.912  16.490  0.00  0.00    +0.000 HD
ATOM     21  H   UNL     1       7.215   8.633  16.315  0.00  0.00    +0.000 HD
ENDBRANCH  16  17
ENDBRANCH   3  16
TORSDOF 4
ENDMDL
MODEL 8
REMARK VINA RESULT:      -6.9      0.853      1.139
REMARK  Name = 
REMARK  5 active torsions:
REMARK  status: ('A' for Active; 'I' for Inactive)
REMARK    1  A    between atoms: C_1  and  C_2
REMARK    2  A    between atoms: C_5  and  C_6
REMARK    3  A    between atoms: C_8  and  C_9
REMARK    4  A    between atoms: C_9  and  C_10
REMARK    5  A    between atoms: N_15  and  C_16
REMARK                            x       y       z     vdW  Elec       q    Type
REMARK                         _______ _______ _______ _____ _____    ______ ____
ROOT
ATOM      1  C   UNL     1       4.987   5.115  18.947  0.00  0.00    +0.000 A 
ATOM      2  N   UNL     1       5.150   5.524  17.708  0.00  0.00    +0.000 NA
ATOM      3  C   UNL     1       6.522   5.527  17.554  0.00  0.00    +0.000 A 
ATOM      4  N   UNL     1       7.202   5.125  18.637  0.00  0.00    +0.000 NA
ATOM      5  N   UNL     1       6.207   4.857  19.500  0.00  0.00    +0.000 N 
ATOM      6  H   UNL     1       6.422   4.491  20.421  0.00  0.00    +0.000 HD
ENDROOT
BRANCH   1  11
ATOM      7  C   UNL     1       1.226   2.829  21.292  0.00  0.00    +0.000 C 
ATOM      8  C   UNL     1       2.030   3.919  20.676  0.00  0.00    +0.000 A 
ATOM      9  C   UNL     1       1.741   5.269  20.614  0.00  0.00    +0.000 A 
ATOM     10  C   UNL     1       2.815   5.912  19.963  0.00  0.00    +0.000 A 
ATOM     11  C   UNL     1       3.741   4.946  19.618  0.00  0.00    +0.000 A 
ATOM     12  N   UNL     1       3.249   3.723  20.048  0.00  0.00    +0.000 N 
BRANCH  12  13
ATOM     13  C   UNL     1       3.955   2.452  19.873  0.00  0.00    +0.000 C 
ATOM     14  F   UNL     1       4.296   1.908  21.075  0.00  0.00    +0.000 F 
ATOM     15  F   UNL     1       3.208   1.510  19.238  0.00  0.00    +0.000 F 
ENDBRANCH  12  13
ENDBRANCH   1  11
BRANCH   3  16
ATOM     16  C   UNL     1       7.191   6.000  16.314  0.00  0.00    +0.000 C 
BRANCH  16  17
ATOM     17  C   UNL     1       7.107   5.036  15.152  0.00  0.00    +0.000 C 
ATOM     18  N   UNL     1       6.316   3.932  15.279  0.00  0.00    +0.000 N 
ATOM     19  O   UNL     1       7.642   5.266  14.065  0.00  0.00    +0.000 OA
ATOM     20  H   UNL     1       5.970   3.635  16.186  0.00  0.00    +0.000 HD
ATOM     21  H   UNL     1       6.307   3.267  14.516  0.00  0.00    +0.000 HD
ENDBRANCH  16  17
ENDBRANCH   3  16
TORSDOF 4
ENDMDL
MODEL 9
REMARK VINA RESULT:      -6.8      3.565      5.966
REMARK  Name = 
REMARK  5 active torsions:
REMARK  status: ('A' for Active; 'I' for Inactive)
REMARK    1  A    between atoms: C_1  and  C_2
REMARK    2  A    between atoms: C_5  and  C_6
REMARK    3  A    between atoms: C_8  and  C_9
REMARK    4  A    between atoms: C_9  and  C_10
REMARK    5  A    between atoms: N_15  and  C_16
REMARK                            x       y       z     vdW  Elec       q    Type
REMARK                         _______ _______ _______ _____ _____    ______ ____
ROOT
ATOM      1  C   UNL     1       4.894   3.937  18.529  0.00  0.00    +0.000 A 
ATOM      2  N   UNL     1       3.939   3.855  19.429  0.00  0.00    +0.000 NA
ATOM      3  C   UNL     1       3.175   2.795  18.983  0.00  0.00    +0.000 A 
ATOM      4  N   UNL     1       3.628   2.218  17.861  0.00  0.00    +0.000 NA
ATOM      5  N   UNL     1       4.725   2.951  17.601  0.00  0.00    +0.000 N 
ATOM      6  H   UNL     1       5.310   2.721  16.807  0.00  0.00    +0.000 HD
ENDROOT
BRANCH   1  11
ATOM      7  C   UNL     1       7.439   8.068  17.377  0.00  0.00    +0.000 C 
ATOM      8  C   UNL     1       7.118   6.753  17.996  0.00  0.00    +0.000 A 
ATOM      9  C   UNL     1       7.876   6.015  18.884  0.00  0.00    +0.000 A 
ATOM     10  C   UNL     1       7.146   4.855  19.218  0.00  0.00    +0.000 A 
ATOM     11  C   UNL     1       5.955   4.889  18.516  0.00  0.00    +0.000 A 
ATOM     12  N   UNL     1       5.948   6.051  17.759  0.00  0.00    +0.000 N 
BRANCH  12  13
ATOM     13  C   UNL     1       4.843   6.448  16.885  0.00  0.00    +0.000 C 
ATOM     14  F   UNL     1       4.190   7.536  17.380  0.00  0.00    +0.000 F 
ATOM     15  F   UNL     1       5.251   6.797  15.635  0.00  0.00    +0.000 F 
ENDBRANCH  12  13
ENDBRANCH   1  11
BRANCH   3  16
ATOM     16  C   UNL     1       1.919   2.370  19.654  0.00  0.00    +0.000 C 
BRANCH  16  17
ATOM     17  C   UNL     1       1.491   3.257  20.801  0.00  0.00    +0.000 C 
ATOM     18  N   UNL     1       2.029   3.029  22.034  0.00  0.00    +0.000 N 
ATOM     19  O   UNL     1       0.760   4.237  20.640  0.00  0.00    +0.000 OA
ATOM     20  H   UNL     1       2.521   2.166  22.241  0.00  0.00    +0.000 HD
ATOM     21  H   UNL     1       1.697   3.595  22.806  0.00  0.00    +0.000 HD
ENDBRANCH  16  17
ENDBRANCH   3  16
TORSDOF 4
ENDMDL
