MODEL 1
REMARK VINA RESULT:      -8.0      0.000      0.000
REMARK  Name = 
REMARK  9 active torsions:
REMARK  status: ('A' for Active; 'I' for Inactive)
REMARK    1  A    between atoms: C_1  and  C_2
REMARK    2  A    between atoms: C_2  and  N_3
REMARK    3  A    between atoms: C_7  and  C_9
REMARK    4  A    between atoms: C_9  and  N_10
REMARK    5  A    between atoms: C_18  and  C_19
REMARK    6  A    between atoms: C_19  and  C_21
REMARK    7  A    between atoms: C_21  and  O_22
REMARK    8  A    between atoms: O_22  and  C_23
REMARK    9  A    between atoms: C_28  and  C_29
REMARK                            x       y       z     vdW  Elec       q    Type
REMARK                         _______ _______ _______ _____ _____    ______ ____
ROOT
ATOM      1  N   UNL     1       2.905   5.150  19.036  0.00  0.00    +0.000 N 
ATOM      2  C   UNL     1       1.838   4.261  18.991  0.00  0.00    +0.000 C 
ATOM      3  O   UNL     1       0.757   4.474  19.545  0.00  0.00    +0.000 OA
ATOM      4  C   UNL     1       2.045   3.025  18.128  0.00  0.00    +0.000 C 
ATOM      5  O   UNL     1       3.344   2.654  17.715  0.00  0.00    +0.000 OA
ATOM      6  C   UNL     1       4.198   3.712  17.556  0.00  0.00    +0.000 A 
ATOM      7  C   UNL     1       5.311   3.455  16.751  0.00  0.00    +0.000 A 
ATOM      8  C   UNL     1       6.257   4.449  16.529  0.00  0.00    +0.000 A 
ATOM      9  C   UNL     1       6.101   5.701  17.120  0.00  0.00    +0.000 A 
ATOM     10  C   UNL     1       4.993   5.949  17.942  0.00  0.00    +0.000 A 
ATOM     11  C   UNL     1       4.035   4.957  18.191  0.00  0.00    +0.000 A 
ENDROOT
BRANCH   9  12
ATOM     12  C   UNL     1       7.089   6.788  16.874  0.00  0.00    +0.000 C 
ATOM     13  O   UNL     1       7.931   6.638  15.990  0.00  0.00    +0.000 OA
BRANCH  12  14
ATOM     14  C   UNL     1       7.061   8.017  17.774  0.00  0.00    +0.000 C 
BRANCH  14  15
ATOM     15  O   UNL     1       8.331   8.269  18.356  0.00  0.00    +0.000 OA
BRANCH  15  16
ATOM     16  C   UNL     1       8.677   9.588  18.500  0.00  0.00    +0.000 A 
ATOM     17  C   UNL     1       8.109  10.461  17.573  0.00  0.00    +0.000 A 
ATOM     18  C   UNL     1       8.398  11.828  17.620  0.00  0.00    +0.000 A 
ATOM     19  C   UNL     1       9.260  12.334  18.596  0.00  0.00    +0.000 A 
ATOM     20 CL   UNL     1       9.571  14.033  18.580  0.00  0.00    +0.000 Cl
ATOM     21  C   UNL     1       9.844  11.476  19.536  0.00  0.00    +0.000 A 
ATOM     22  C   UNL     1      10.802  11.924  20.606  0.00  0.00    +0.000 C 
ATOM     23  C   UNL     1       9.538  10.101  19.475  0.00  0.00    +0.000 A 
ENDBRANCH  15  16
ENDBRANCH  14  15
ENDBRANCH  12  14
ENDBRANCH   9  12
BRANCH   1  24
ATOM     24  C   UNL     1       2.760   6.309  19.902  0.00  0.00    +0.000 C 
BRANCH  24  29
ATOM     25  N   UNL     1      -0.690   9.843  21.245  0.00  0.00    +0.000 NA
ATOM     26  C   UNL     1      -0.394   9.984  19.798  0.00  0.00    +0.000 C 
ATOM     27  C   UNL     1       1.073   9.739  19.365  0.00  0.00    +0.000 C 
ATOM     28  N   UNL     1       1.622   8.525  19.973  0.00  0.00    +0.000 N 
ATOM     29  C   UNL     1       2.209   7.553  19.169  0.00  0.00    +0.000 C 
ATOM     30  O   UNL     1       2.251   7.664  17.942  0.00  0.00    +0.000 OA
ATOM     31  C   UNL     1       1.389   8.409  21.413  0.00  0.00    +0.000 C 
ATOM     32  C   UNL     1      -0.116   8.557  21.716  0.00  0.00    +0.000 C 
BRANCH  25  34
ATOM     33  C   UNL     1      -0.758  12.329  21.795  0.00  0.00    +0.000 C 
ATOM     34  C   UNL     1      -0.212  10.940  22.101  0.00  0.00    +0.000 C 
ENDBRANCH  25  34
ENDBRANCH  24  29
ENDBRANCH   1  24
TORSDOF 7
ENDMDL
MODEL 2
REMARK VINA RESULT:      -7.9      4.431      8.466
REMARK  Name = 
REMARK  9 active torsions:
REMARK  status: ('A' for Active; 'I' for Inactive)
REMARK    1  A    between atoms: C_1  and  C_2
REMARK    2  A    between atoms: C_2  and  N_3
REMARK    3  A    between atoms: C_7  and  C_9
REMARK    4  A    between atoms: C_9  and  N_10
REMARK    5  A    between atoms: C_18  and  C_19
REMARK    6  A    between atoms: C_19  and  C_21
REMARK    7  A    between atoms: C_21  and  O_22
REMARK    8  A    between atoms: O_22  and  C_23
REMARK    9  A    between atoms: C_28  and  C_29
REMARK                            x       y       z     vdW  Elec       q    Type
REMARK                         _______ _______ _______ _____ _____    ______ ____
ROOT
ATOM      1  N   UNL     1      -1.212  12.360  21.015  0.00  0.00    +0.000 N 
ATOM      2  C   UNL     1      -2.051  12.494  22.114  0.00  0.00    +0.000 C 
ATOM      3  O   UNL     1      -2.927  13.357  22.195  0.00  0.00    +0.000 OA
ATOM      4  C   UNL     1      -1.889  11.439  23.199  0.00  0.00    +0.000 C 
ATOM      5  O   UNL     1      -0.736  10.625  23.234  0.00  0.00    +0.000 OA
ATOM      6  C   UNL     1      -0.191  10.382  22.003  0.00  0.00    +0.000 A 
ATOM      7  C   UNL     1       0.646   9.265  21.938  0.00  0.00    +0.000 A 
ATOM      8  C   UNL     1       1.269   8.927  20.742  0.00  0.00    +0.000 A 
ATOM      9  C   UNL     1       1.067   9.711  19.607  0.00  0.00    +0.000 A 
ATOM     10  C   UNL     1       0.242  10.842  19.681  0.00  0.00    +0.000 A 
ATOM     11  C   UNL     1      -0.384  11.209  20.880  0.00  0.00    +0.000 A 
ENDROOT
BRANCH   9  12
ATOM     12  C   UNL     1       1.704   9.352  18.310  0.00  0.00    +0.000 C 
ATOM     13  O   UNL     1       2.129  10.251  17.587  0.00  0.00    +0.000 OA
BRANCH  12  14
ATOM     14  C   UNL     1       1.741   7.886  17.897  0.00  0.00    +0.000 C 
BRANCH  14  15
ATOM     15  O   UNL     1       3.014   7.306  18.140  0.00  0.00    +0.000 OA
BRANCH  15  16
ATOM     16  C   UNL     1       3.043   5.940  18.249  0.00  0.00    +0.000 A 
ATOM     17  C   UNL     1       4.045   5.301  17.518  0.00  0.00    +0.000 A 
ATOM     18  C   UNL     1       4.164   3.909  17.548  0.00  0.00    +0.000 A 
ATOM     19  C   UNL     1       3.281   3.141  18.312  0.00  0.00    +0.000 A 
ATOM     20 CL   UNL     1       3.493   1.427  18.289  0.00  0.00    +0.000 Cl
ATOM     21  C   UNL     1       2.267   3.760  19.053  0.00  0.00    +0.000 A 
ATOM     22  C   UNL     1       1.255   3.016  19.882  0.00  0.00    +0.000 C 
ATOM     23  C   UNL     1       2.164   5.165  19.012  0.00  0.00    +0.000 A 
ENDBRANCH  15  16
ENDBRANCH  14  15
ENDBRANCH  12  14
ENDBRANCH   9  12
BRANCH   1  24
ATOM     24  C   UNL     1      -1.300  13.388  19.990  0.00  0.00    +0.000 C 
BRANCH  24  29
ATOM     25  N   UNL     1       3.655  14.557  19.459  0.00  0.00    +0.000 NA
ATOM     26  C   UNL     1       3.006  15.586  20.309  0.00  0.00    +0.000 C 
ATOM     27  C   UNL     1       1.557  15.983  19.929  0.00  0.00    +0.000 C 
ATOM     28  N   UNL     1       0.723  14.807  19.668  0.00  0.00    +0.000 N 
ATOM     29  C   UNL     1      -0.491  14.660  20.332  0.00  0.00    +0.000 C 
ATOM     30  O   UNL     1      -0.876  15.478  21.169  0.00  0.00    +0.000 OA
ATOM     31  C   UNL     1       1.332  13.816  18.780  0.00  0.00    +0.000 C 
ATOM     32  C   UNL     1       2.721  13.412  19.316  0.00  0.00    +0.000 C 
BRANCH  25  34
ATOM     33  C   UNL     1       5.556  14.804  17.782  0.00  0.00    +0.000 C 
ATOM     34  C   UNL     1       4.087  15.012  18.128  0.00  0.00    +0.000 C 
ENDBRANCH  25  34
ENDBRANCH  24  29
ENDBRANCH   1  24
TORSDOF 7
ENDMDL
MODEL 3
REMARK VINA RESULT:      -7.8      5.293      8.769
REMARK  Name = 
REMARK  9 active torsions:
REMARK  status: ('A' for Active; 'I' for Inactive)
REMARK    1  A    between atoms: C_1  and  C_2
REMARK    2  A    between atoms: C_2  and  N_3
REMARK    3  A    between atoms: C_7  and  C_9
REMARK    4  A    between atoms: C_9  and  N_10
REMARK    5  A    between atoms: C_18  and  C_19
REMARK    6  A    between atoms: C_19  and  C_21
REMARK    7  A    between atoms: C_21  and  O_22
REMARK    8  A    between atoms: O_22  and  C_23
REMARK    9  A    between atoms: C_28  and  C_29
REMARK                            x       y       z     vdW  Elec       q    Type
REMARK                         _______ _______ _______ _____ _____    ______ ____
ROOT
ATOM      1  N   UNL     1       1.630  14.114  20.420  0.00  0.00    +0.000 N 
ATOM      2  C   UNL     1       2.485  15.084  19.910  0.00  0.00    +0.000 C 
ATOM      3  O   UNL     1       2.715  16.151  20.484  0.00  0.00    +0.000 OA
ATOM      4  C   UNL     1       3.209  14.715  18.624  0.00  0.00    +0.000 C 
ATOM      5  O   UNL     1       2.760  13.629  17.841  0.00  0.00    +0.000 OA
ATOM      6  C   UNL     1       2.167  12.631  18.565  0.00  0.00    +0.000 A 
ATOM      7  C   UNL     1       2.115  11.390  17.925  0.00  0.00    +0.000 A 
ATOM      8  C   UNL     1       1.522  10.302  18.557  0.00  0.00    +0.000 A 
ATOM      9  C   UNL     1       0.969  10.453  19.827  0.00  0.00    +0.000 A 
ATOM     10  C   UNL     1       1.007  11.704  20.458  0.00  0.00    +0.000 A 
ATOM     11  C   UNL     1       1.587  12.817  19.833  0.00  0.00    +0.000 A 
ENDROOT
BRANCH   9  12
ATOM     12  C   UNL     1       0.353   9.295  20.533  0.00  0.00    +0.000 C 
ATOM     13  O   UNL     1      -0.871   9.244  20.635  0.00  0.00    +0.000 OA
BRANCH  12  14
ATOM     14  C   UNL     1       1.270   8.252  21.161  0.00  0.00    +0.000 C 
BRANCH  14  15
ATOM     15  O   UNL     1       2.237   7.780  20.235  0.00  0.00    +0.000 OA
BRANCH  15  16
ATOM     16  C   UNL     1       2.115   6.469  19.852  0.00  0.00    +0.000 A 
ATOM     17  C   UNL     1       2.369   6.214  18.504  0.00  0.00    +0.000 A 
ATOM     18  C   UNL     1       2.268   4.914  18.000  0.00  0.00    +0.000 A 
ATOM     19  C   UNL     1       1.909   3.856  18.840  0.00  0.00    +0.000 A 
ATOM     20 CL   UNL     1       1.798   2.283  18.137  0.00  0.00    +0.000 Cl
ATOM     21  C   UNL     1       1.647   4.090  20.196  0.00  0.00    +0.000 A 
ATOM     22  C   UNL     1       1.231   3.021  21.170  0.00  0.00    +0.000 C 
ATOM     23  C   UNL     1       1.758   5.407  20.687  0.00  0.00    +0.000 A 
ENDBRANCH  15  16
ENDBRANCH  14  15
ENDBRANCH  12  14
ENDBRANCH   9  12
BRANCH   1  24
ATOM     24  C   UNL     1       0.877  14.462  21.614  0.00  0.00    +0.000 C 
BRANCH  24  29
ATOM     25  N   UNL     1      -3.529  12.247  22.983  0.00  0.00    +0.000 NA
ATOM     26  C   UNL     1      -3.806  13.261  21.936  0.00  0.00    +0.000 C 
ATOM     27  C   UNL     1      -2.963  14.560  21.993  0.00  0.00    +0.000 C 
ATOM     28  N   UNL     1      -1.540  14.275  22.192  0.00  0.00    +0.000 N 
ATOM     29  C   UNL     1      -0.598  14.818  21.323  0.00  0.00    +0.000 C 
ATOM     30  O   UNL     1      -0.928  15.509  20.357  0.00  0.00    +0.000 OA
ATOM     31  C   UNL     1      -1.256  13.323  23.266  0.00  0.00    +0.000 C 
ATOM     32  C   UNL     1      -2.063  12.026  23.046  0.00  0.00    +0.000 C 
BRANCH  25  34
ATOM     33  C   UNL     1      -5.532  12.361  24.554  0.00  0.00    +0.000 C 
ATOM     34  C   UNL     1      -4.039  12.565  24.326  0.00  0.00    +0.000 C 
ENDBRANCH  25  34
ENDBRANCH  24  29
ENDBRANCH   1  24
TORSDOF 7
ENDMDL
MODEL 4
REMARK VINA RESULT:      -7.8      1.110      1.587
REMARK  Name = 
REMARK  9 active torsions:
REMARK  status: ('A' for Active; 'I' for Inactive)
REMARK    1  A    between atoms: C_1  and  C_2
REMARK    2  A    between atoms: C_2  and  N_3
REMARK    3  A    between atoms: C_7  and  C_9
REMARK    4  A    between atoms: C_9  and  N_10
REMARK    5  A    between atoms: C_18  and  C_19
REMARK    6  A    between atoms: C_19  and  C_21
REMARK    7  A    between atoms: C_21  and  O_22
REMARK    8  A    between atoms: O_22  and  C_23
REMARK    9  A    between atoms: C_28  and  C_29
REMARK                            x       y       z     vdW  Elec       q    Type
REMARK                         _______ _______ _______ _____ _____    ______ ____
ROOT
ATOM      1  N   UNL     1       3.263   5.334  18.476  0.00  0.00    +0.000 N 
ATOM      2  C   UNL     1       2.324   4.509  17.868  0.00  0.00    +0.000 C 
ATOM      3  O   UNL     1       1.111   4.612  18.059  0.00  0.00    +0.000 OA
ATOM      4  C   UNL     1       2.877   3.509  16.863  0.00  0.00    +0.000 C 
ATOM      5  O   UNL     1       4.258   3.214  16.838  0.00  0.00    +0.000 OA
ATOM      6  C   UNL     1       5.055   4.257  17.227  0.00  0.00    +0.000 A 
ATOM      7  C   UNL     1       6.385   4.170  16.807  0.00  0.00    +0.000 A 
ATOM      8  C   UNL     1       7.293   5.164  17.154  0.00  0.00    +0.000 A 
ATOM      9  C   UNL     1       6.878   6.244  17.932  0.00  0.00    +0.000 A 
ATOM     10  C   UNL     1       5.548   6.317  18.366  0.00  0.00    +0.000 A 
ATOM     11  C   UNL     1       4.619   5.319  18.040  0.00  0.00    +0.000 A 
ENDROOT
BRANCH   9  12
ATOM     12  C   UNL     1       7.828   7.332  18.293  0.00  0.00    +0.000 C 
ATOM     13  O   UNL     1       8.721   7.097  19.104  0.00  0.00    +0.000 OA
BRANCH  12  14
ATOM     14  C   UNL     1       7.613   8.716  17.693  0.00  0.00    +0.000 C 
BRANCH  14  15
ATOM     15  O   UNL     1       8.840   9.411  17.527  0.00  0.00    +0.000 OA
BRANCH  15  16
ATOM     16  C   UNL     1       9.002  10.540  18.289  0.00  0.00    +0.000 A 
ATOM     17  C   UNL     1       9.435  10.322  19.597  0.00  0.00    +0.000 A 
ATOM     18  C   UNL     1       9.627  11.399  20.467  0.00  0.00    +0.000 A 
ATOM     19  C   UNL     1       9.386  12.706  20.036  0.00  0.00    +0.000 A 
ATOM     20 CL   UNL     1       9.640  13.979  21.175  0.00  0.00    +0.000 Cl
ATOM     21  C   UNL     1       8.949  12.949  18.728  0.00  0.00    +0.000 A 
ATOM     22  C   UNL     1       8.639  14.316  18.183  0.00  0.00    +0.000 C 
ATOM     23  C   UNL     1       8.764  11.850  17.864  0.00  0.00    +0.000 A 
ENDBRANCH  15  16
ENDBRANCH  14  15
ENDBRANCH  12  14
ENDBRANCH   9  12
BRANCH   1  24
ATOM     24  C   UNL     1       2.773   6.257  19.487  0.00  0.00    +0.000 C 
BRANCH  24  29
ATOM     25  N   UNL     1      -0.629   9.707  21.137  0.00  0.00    +0.000 NA
ATOM     26  C   UNL     1      -0.263  10.025  19.734  0.00  0.00    +0.000 C 
ATOM     27  C   UNL     1       1.215   9.786  19.334  0.00  0.00    +0.000 C 
ATOM     28  N   UNL     1       1.699   8.484  19.801  0.00  0.00    +0.000 N 
ATOM     29  C   UNL     1       2.293   7.604  18.900  0.00  0.00    +0.000 C 
ATOM     30  O   UNL     1       2.394   7.872  17.702  0.00  0.00    +0.000 OA
ATOM     31  C   UNL     1       1.397   8.191  21.202  0.00  0.00    +0.000 C 
ATOM     32  C   UNL     1      -0.116   8.352  21.459  0.00  0.00    +0.000 C 
BRANCH  25  34
ATOM     33  C   UNL     1      -0.865  12.016  22.188  0.00  0.00    +0.000 C 
ATOM     34  C   UNL     1      -0.158  10.666  22.149  0.00  0.00    +0.000 C 
ENDBRANCH  25  34
ENDBRANCH  24  29
ENDBRANCH   1  24
TORSDOF 7
ENDMDL
MODEL 5
REMARK VINA RESULT:      -7.8      1.622      2.232
REMARK  Name = 
REMARK  9 active torsions:
REMARK  status: ('A' for Active; 'I' for Inactive)
REMARK    1  A    between atoms: C_1  and  C_2
REMARK    2  A    between atoms: C_2  and  N_3
REMARK    3  A    between atoms: C_7  and  C_9
REMARK    4  A    between atoms: C_9  and  N_10
REMARK    5  A    between atoms: C_18  and  C_19
REMARK    6  A    between atoms: C_19  and  C_21
REMARK    7  A    between atoms: C_21  and  O_22
REMARK    8  A    between atoms: O_22  and  C_23
REMARK    9  A    between atoms: C_28  and  C_29
REMARK                            x       y       z     vdW  Elec       q    Type
REMARK                         _______ _______ _______ _____ _____    ______ ____
ROOT
ATOM      1  N   UNL     1       3.197   5.729  18.597  0.00  0.00    +0.000 N 
ATOM      2  C   UNL     1       2.443   4.598  18.883  0.00  0.00    +0.000 C 
ATOM      3  O   UNL     1       1.217   4.554  18.760  0.00  0.00    +0.000 OA
ATOM      4  C   UNL     1       3.234   3.360  19.278  0.00  0.00    +0.000 C 
ATOM      5  O   UNL     1       4.587   3.474  19.668  0.00  0.00    +0.000 OA
ATOM      6  C   UNL     1       5.251   4.510  19.069  0.00  0.00    +0.000 A 
ATOM      7  C   UNL     1       6.644   4.398  19.073  0.00  0.00    +0.000 A 
ATOM      8  C   UNL     1       7.427   5.396  18.506  0.00  0.00    +0.000 A 
ATOM      9  C   UNL     1       6.822   6.517  17.941  0.00  0.00    +0.000 A 
ATOM     10  C   UNL     1       5.426   6.635  17.955  0.00  0.00    +0.000 A 
ATOM     11  C   UNL     1       4.618   5.647  18.535  0.00  0.00    +0.000 A 
ENDROOT
BRANCH   9  12
ATOM     12  C   UNL     1       7.641   7.586  17.304  0.00  0.00    +0.000 C 
ATOM     13  O   UNL     1       8.271   7.323  16.282  0.00  0.00    +0.000 OA
BRANCH  12  14
ATOM     14  C   UNL     1       7.721   8.947  17.986  0.00  0.00    +0.000 C 
BRANCH  14  15
ATOM     15  O   UNL     1       8.819   9.019  18.883  0.00  0.00    +0.000 OA
BRANCH  15  16
ATOM     16  C   UNL     1       9.383  10.257  19.048  0.00  0.00    +0.000 A 
ATOM     17  C   UNL     1       9.468  10.706  20.366  0.00  0.00    +0.000 A 
ATOM     18  C   UNL     1      10.019  11.958  20.652  0.00  0.00    +0.000 A 
ATOM     19  C   UNL     1      10.488  12.776  19.620  0.00  0.00    +0.000 A 
ATOM     20 CL   UNL     1      11.147  14.311  20.058  0.00  0.00    +0.000 Cl
ATOM     21  C   UNL     1      10.411  12.347  18.289  0.00  0.00    +0.000 A 
ATOM     22  C   UNL     1      10.866  13.167  17.112  0.00  0.00    +0.000 C 
ATOM     23  C   UNL     1       9.856  11.080  18.021  0.00  0.00    +0.000 A 
ENDBRANCH  15  16
ENDBRANCH  14  15
ENDBRANCH  12  14
ENDBRANCH   9  12
BRANCH   1  24
ATOM     24  C   UNL     1       2.466   6.944  18.277  0.00  0.00    +0.000 C 
BRANCH  24  29
ATOM     25  N   UNL     1       1.227  11.831  19.166  0.00  0.00    +0.000 NA
ATOM     26  C   UNL     1       1.230  11.093  20.454  0.00  0.00    +0.000 C 
ATOM     27  C   UNL     1       0.707   9.634  20.415  0.00  0.00    +0.000 C 
ATOM     28  N   UNL     1       1.275   8.884  19.293  0.00  0.00    +0.000 N 
ATOM     29  C   UNL     1       1.899   7.661  19.523  0.00  0.00    +0.000 C 
ATOM     30  O   UNL     1       2.022   7.200  20.659  0.00  0.00    +0.000 OA
ATOM     31  C   UNL     1       1.219   9.581  18.007  0.00  0.00    +0.000 C 
ATOM     32  C   UNL     1       1.867  10.975  18.135  0.00  0.00    +0.000 C 
BRANCH  25  34
ATOM     33  C   UNL     1      -1.036  12.849  19.740  0.00  0.00    +0.000 C 
ATOM     34  C   UNL     1      -0.093  12.274  18.690  0.00  0.00    +0.000 C 
ENDBRANCH  25  34
ENDBRANCH  24  29
ENDBRANCH   1  24
TORSDOF 7
ENDMDL
MODEL 6
REMARK VINA RESULT:      -7.7      4.711      8.846
REMARK  Name = 
REMARK  9 active torsions:
REMARK  status: ('A' for Active; 'I' for Inactive)
REMARK    1  A    between atoms: C_1  and  C_2
REMARK    2  A    between atoms: C_2  and  N_3
REMARK    3  A    between atoms: C_7  and  C_9
REMARK    4  A    between atoms: C_9  and  N_10
REMARK    5  A    between atoms: C_18  and  C_19
REMARK    6  A    between atoms: C_19  and  C_21
REMARK    7  A    between atoms: C_21  and  O_22
REMARK    8  A    between atoms: O_22  and  C_23
REMARK    9  A    between atoms: C_28  and  C_29
REMARK                            x       y       z     vdW  Elec       q    Type
REMARK                         _______ _______ _______ _____ _____    ______ ____
ROOT
ATOM      1  N   UNL     1       8.748  15.296  18.766  0.00  0.00    +0.000 N 
ATOM      2  C   UNL     1       9.419  16.509  18.663  0.00  0.00    +0.000 C 
ATOM      3  O   UNL     1       9.014  17.551  19.180  0.00  0.00    +0.000 OA
ATOM      4  C   UNL     1      10.757  16.463  17.940  0.00  0.00    +0.000 C 
ATOM      5  O   UNL     1      11.094  15.353  17.134  0.00  0.00    +0.000 OA
ATOM      6  C   UNL     1      10.539  14.174  17.555  0.00  0.00    +0.000 A 
ATOM      7  C   UNL     1      11.173  13.022  17.083  0.00  0.00    +0.000 A 
ATOM      8  C   UNL     1      10.690  11.766  17.431  0.00  0.00    +0.000 A 
ATOM      9  C   UNL     1       9.563  11.656  18.244  0.00  0.00    +0.000 A 
ATOM     10  C   UNL     1       8.919  12.813  18.700  0.00  0.00    +0.000 A 
ATOM     11  C   UNL     1       9.380  14.090  18.349  0.00  0.00    +0.000 A 
ENDROOT
BRANCH   9  12
ATOM     12  C   UNL     1       9.045  10.320  18.650  0.00  0.00    +0.000 C 
ATOM     13  O   UNL     1       9.557   9.751  19.612  0.00  0.00    +0.000 OA
BRANCH  12  14
ATOM     14  C   UNL     1       7.945   9.679  17.813  0.00  0.00    +0.000 C 
BRANCH  14  15
ATOM     15  O   UNL     1       8.316   8.384  17.364  0.00  0.00    +0.000 OA
BRANCH  15  16
ATOM     16  C   UNL     1       7.496   7.355  17.750  0.00  0.00    +0.000 A 
ATOM     17  C   UNL     1       7.974   6.569  18.798  0.00  0.00    +0.000 A 
ATOM     18  C   UNL     1       7.225   5.487  19.269  0.00  0.00    +0.000 A 
ATOM     19  C   UNL     1       5.989   5.179  18.693  0.00  0.00    +0.000 A 
ATOM     20 CL   UNL     1       5.131   3.822  19.328  0.00  0.00    +0.000 Cl
ATOM     21  C   UNL     1       5.491   5.953  17.638  0.00  0.00    +0.000 A 
ATOM     22  C   UNL     1       4.185   5.684  16.940  0.00  0.00    +0.000 C 
ATOM     23  C   UNL     1       6.258   7.043  17.179  0.00  0.00    +0.000 A 
ENDBRANCH  15  16
ENDBRANCH  14  15
ENDBRANCH  12  14
ENDBRANCH   9  12
BRANCH   1  24
ATOM     24  C   UNL     1       7.439  15.320  19.397  0.00  0.00    +0.000 C 
BRANCH  24  29
ATOM     25  N   UNL     1       2.511  14.097  20.049  0.00  0.00    +0.000 NA
ATOM     26  C   UNL     1       2.844  14.000  18.606  0.00  0.00    +0.000 C 
ATOM     27  C   UNL     1       3.829  15.059  18.052  0.00  0.00    +0.000 C 
ATOM     28  N   UNL     1       4.993  15.228  18.926  0.00  0.00    +0.000 N 
ATOM     29  C   UNL     1       6.276  15.125  18.397  0.00  0.00    +0.000 C 
ATOM     30  O   UNL     1       6.469  14.858  17.210  0.00  0.00    +0.000 OA
ATOM     31  C   UNL     1       4.669  15.387  20.344  0.00  0.00    +0.000 C 
ATOM     32  C   UNL     1       3.778  14.219  20.814  0.00  0.00    +0.000 C 
BRANCH  25  34
ATOM     33  C   UNL     1       1.220  15.293  21.891  0.00  0.00    +0.000 C 
ATOM     34  C   UNL     1       1.603  15.193  20.419  0.00  0.00    +0.000 C 
ENDBRANCH  25  34
ENDBRANCH  24  29
ENDBRANCH   1  24
TORSDOF 7
ENDMDL
MODEL 7
REMARK VINA RESULT:      -7.6      5.217      9.184
REMARK  Name = 
REMARK  9 active torsions:
REMARK  status: ('A' for Active; 'I' for Inactive)
REMARK    1  A    between atoms: C_1  and  C_2
REMARK    2  A    between atoms: C_2  and  N_3
REMARK    3  A    between atoms: C_7  and  C_9
REMARK    4  A    between atoms: C_9  and  N_10
REMARK    5  A    between atoms: C_18  and  C_19
REMARK    6  A    between atoms: C_19  and  C_21
REMARK    7  A    between atoms: C_21  and  O_22
REMARK    8  A    between atoms: O_22  and  C_23
REMARK    9  A    between atoms: C_28  and  C_29
REMARK                            x       y       z     vdW  Elec       q    Type
REMARK                         _______ _______ _______ _____ _____    ______ ____
ROOT
ATOM      1  N   UNL     1       8.663  15.025  17.812  0.00  0.00    +0.000 N 
ATOM      2  C   UNL     1       9.288  16.253  17.626  0.00  0.00    +0.000 C 
ATOM      3  O   UNL     1       8.688  17.329  17.663  0.00  0.00    +0.000 OA
ATOM      4  C   UNL     1      10.800  16.205  17.462  0.00  0.00    +0.000 C 
ATOM      5  O   UNL     1      11.445  14.985  17.161  0.00  0.00    +0.000 OA
ATOM      6  C   UNL     1      10.809  13.883  17.663  0.00  0.00    +0.000 A 
ATOM      7  C   UNL     1      11.607  12.742  17.777  0.00  0.00    +0.000 A 
ATOM      8  C   UNL     1      11.067  11.556  18.260  0.00  0.00    +0.000 A 
ATOM      9  C   UNL     1       9.722  11.502  18.623  0.00  0.00    +0.000 A 
ATOM     10  C   UNL     1       8.920  12.643  18.489  0.00  0.00    +0.000 A 
ATOM     11  C   UNL     1       9.441  13.845  17.990  0.00  0.00    +0.000 A 
ENDROOT
BRANCH   9  12
ATOM     12  C   UNL     1       9.130  10.249  19.168  0.00  0.00    +0.000 C 
ATOM     13  O   UNL     1       9.163  10.055  20.381  0.00  0.00    +0.000 OA
BRANCH  12  14
ATOM     14  C   UNL     1       8.567   9.224  18.192  0.00  0.00    +0.000 C 
BRANCH  14  15
ATOM     15  O   UNL     1       8.565   7.917  18.747  0.00  0.00    +0.000 OA
BRANCH  15  16
ATOM     16  C   UNL     1       7.705   7.018  18.173  0.00  0.00    +0.000 A 
ATOM     17  C   UNL     1       7.813   5.707  18.635  0.00  0.00    +0.000 A 
ATOM     18  C   UNL     1       6.990   4.704  18.114  0.00  0.00    +0.000 A 
ATOM     19  C   UNL     1       6.051   5.004  17.123  0.00  0.00    +0.000 A 
ATOM     20 CL   UNL     1       5.079   3.706  16.528  0.00  0.00    +0.000 Cl
ATOM     21  C   UNL     1       5.927   6.313  16.643  0.00  0.00    +0.000 A 
ATOM     22  C   UNL     1       4.965   6.726  15.562  0.00  0.00    +0.000 C 
ATOM     23  C   UNL     1       6.762   7.312  17.183  0.00  0.00    +0.000 A 
ENDBRANCH  15  16
ENDBRANCH  14  15
ENDBRANCH  12  14
ENDBRANCH   9  12
BRANCH   1  24
ATOM     24  C   UNL     1       7.213  15.033  17.911  0.00  0.00    +0.000 C 
BRANCH  24  29
ATOM     25  N   UNL     1       2.905  17.312  19.476  0.00  0.00    +0.000 NA
ATOM     26  C   UNL     1       3.867  17.274  20.605  0.00  0.00    +0.000 C 
ATOM     27  C   UNL     1       4.749  16.004  20.719  0.00  0.00    +0.000 C 
ATOM     28  N   UNL     1       5.326  15.627  19.426  0.00  0.00    +0.000 N 
ATOM     29  C   UNL     1       6.699  15.429  19.313  0.00  0.00    +0.000 C 
ATOM     30  O   UNL     1       7.459  15.598  20.268  0.00  0.00    +0.000 OA
ATOM     31  C   UNL     1       4.370  15.602  18.319  0.00  0.00    +0.000 C 
ATOM     32  C   UNL     1       3.631  16.953  18.231  0.00  0.00    +0.000 C 
BRANCH  25  34
ATOM     33  C   UNL     1       1.078  16.409  21.002  0.00  0.00    +0.000 C 
ATOM     34  C   UNL     1       1.720  16.453  19.621  0.00  0.00    +0.000 C 
ENDBRANCH  25  34
ENDBRANCH  24  29
ENDBRANCH   1  24
TORSDOF 7
ENDMDL
MODEL 8
REMARK VINA RESULT:      -7.5      4.998      8.998
REMARK  Name = 
REMARK  9 active torsions:
REMARK  status: ('A' for Active; 'I' for Inactive)
REMARK    1  A    between atoms: C_1  and  C_2
REMARK    2  A    between atoms: C_2  and  N_3
REMARK    3  A    between atoms: C_7  and  C_9
REMARK    4  A    between atoms: C_9  and  N_10
REMARK    5  A    between atoms: C_18  and  C_19
REMARK    6  A    between atoms: C_19  and  C_21
REMARK    7  A    between atoms: C_21  and  O_22
REMARK    8  A    between atoms: O_22  and  C_23
REMARK    9  A    between atoms: C_28  and  C_29
REMARK                            x       y       z     vdW  Elec       q    Type
REMARK                         _______ _______ _______ _____ _____    ______ ____
ROOT
ATOM      1  N   UNL     1      -0.609  13.273  21.529  0.00  0.00    +0.000 N 
ATOM      2  C   UNL     1      -1.612  13.503  22.463  0.00  0.00    +0.000 C 
ATOM      3  O   UNL     1      -2.107  14.614  22.662  0.00  0.00    +0.000 OA
ATOM      4  C   UNL     1      -2.141  12.270  23.180  0.00  0.00    +0.000 C 
ATOM      5  O   UNL     1      -1.413  11.061  23.149  0.00  0.00    +0.000 OA
ATOM      6  C   UNL     1      -0.676  10.886  22.009  0.00  0.00    +0.000 A 
ATOM      7  C   UNL     1      -0.311   9.565  21.739  0.00  0.00    +0.000 A 
ATOM      8  C   UNL     1       0.452   9.266  20.617  0.00  0.00    +0.000 A 
ATOM      9  C   UNL     1       0.863  10.289  19.763  0.00  0.00    +0.000 A 
ATOM     10  C   UNL     1       0.511  11.615  20.047  0.00  0.00    +0.000 A 
ATOM     11  C   UNL     1      -0.245  11.940  21.182  0.00  0.00    +0.000 A 
ENDROOT
BRANCH   9  12
ATOM     12  C   UNL     1       1.659   9.987  18.541  0.00  0.00    +0.000 C 
ATOM     13  O   UNL     1       2.074  10.921  17.857  0.00  0.00    +0.000 OA
BRANCH  12  14
ATOM     14  C   UNL     1       1.868   8.530  18.148  0.00  0.00    +0.000 C 
BRANCH  14  15
ATOM     15  O   UNL     1       2.601   7.822  19.135  0.00  0.00    +0.000 OA
BRANCH  15  16
ATOM     16  C   UNL     1       2.364   6.473  19.211  0.00  0.00    +0.000 A 
ATOM     17  C   UNL     1       1.948   6.008  20.458  0.00  0.00    +0.000 A 
ATOM     18  C   UNL     1       1.684   4.649  20.653  0.00  0.00    +0.000 A 
ATOM     19  C   UNL     1       1.836   3.741  19.601  0.00  0.00    +0.000 A 
ATOM     20 CL   UNL     1       1.498   2.080  19.928  0.00  0.00    +0.000 Cl
ATOM     21  C   UNL     1       2.255   4.186  18.341  0.00  0.00    +0.000 A 
ATOM     22  C   UNL     1       2.472   3.282  17.158  0.00  0.00    +0.000 C 
ATOM     23  C   UNL     1       2.513   5.560  18.162  0.00  0.00    +0.000 A 
ENDBRANCH  15  16
ENDBRANCH  14  15
ENDBRANCH  12  14
ENDBRANCH   9  12
BRANCH   1  24
ATOM     24  C   UNL     1      -0.040  14.439  20.873  0.00  0.00    +0.000 C 
BRANCH  24  29
ATOM     25  N   UNL     1       4.765  14.903  19.170  0.00  0.00    +0.000 NA
ATOM     26  C   UNL     1       4.756  15.090  20.643  0.00  0.00    +0.000 C 
ATOM     27  C   UNL     1       3.538  15.842  21.236  0.00  0.00    +0.000 C 
ATOM     28  N   UNL     1       2.274  15.346  20.686  0.00  0.00    +0.000 N 
ATOM     29  C   UNL     1       1.256  14.945  21.547  0.00  0.00    +0.000 C 
ATOM     30  O   UNL     1       1.397  14.959  22.770  0.00  0.00    +0.000 OA
ATOM     31  C   UNL     1       2.255  15.219  19.229  0.00  0.00    +0.000 C 
ATOM     32  C   UNL     1       3.446  14.359  18.760  0.00  0.00    +0.000 C 
BRANCH  25  34
ATOM     33  C   UNL     1       6.214  16.978  18.885  0.00  0.00    +0.000 C 
ATOM     34  C   UNL     1       5.072  16.106  18.380  0.00  0.00    +0.000 C 
ENDBRANCH  25  34
ENDBRANCH  24  29
ENDBRANCH   1  24
TORSDOF 7
ENDMDL
MODEL 9
REMARK VINA RESULT:      -7.5      4.984      9.910
REMARK  Name = 
REMARK  9 active torsions:
REMARK  status: ('A' for Active; 'I' for Inactive)
REMARK    1  A    between atoms: C_1  and  C_2
REMARK    2  A    between atoms: C_2  and  N_3
REMARK    3  A    between atoms: C_7  and  C_9
REMARK    4  A    between atoms: C_9  and  N_10
REMARK    5  A    between atoms: C_18  and  C_19
REMARK    6  A    between atoms: C_19  and  C_21
REMARK    7  A    between atoms: C_21  and  O_22
REMARK    8  A    between atoms: O_22  and  C_23
REMARK    9  A    between atoms: C_28  and  C_29
REMARK                            x       y       z     vdW  Elec       q    Type
REMARK                         _______ _______ _______ _____ _____    ______ ____
ROOT
ATOM      1  N   UNL     1       3.090  15.062  18.220  0.00  0.00    +0.000 N 
ATOM      2  C   UNL     1       2.627  16.372  18.169  0.00  0.00    +0.000 C 
ATOM      3  O   UNL     1       3.315  17.317  17.779  0.00  0.00    +0.000 OA
ATOM      4  C   UNL     1       1.166  16.569  18.544  0.00  0.00    +0.000 C 
ATOM      5  O   UNL     1       0.463  15.554  19.230  0.00  0.00    +0.000 OA
ATOM      6  C   UNL     1       0.898  14.288  18.945  0.00  0.00    +0.000 A 
ATOM      7  C   UNL     1      -0.015  13.272  19.235  0.00  0.00    +0.000 A 
ATOM      8  C   UNL     1       0.320  11.943  19.001  0.00  0.00    +0.000 A 
ATOM      9  C   UNL     1       1.575  11.624  18.485  0.00  0.00    +0.000 A 
ATOM     10  C   UNL     1       2.496  12.645  18.213  0.00  0.00    +0.000 A 
ATOM     11  C   UNL     1       2.183  13.990  18.456  0.00  0.00    +0.000 A 
ENDROOT
BRANCH   9  12
ATOM     12  C   UNL     1       1.946  10.209  18.202  0.00  0.00    +0.000 C 
ATOM     13  O   UNL     1       2.841   9.979  17.392  0.00  0.00    +0.000 OA
BRANCH  12  14
ATOM     14  C   UNL     1       1.151   9.098  18.878  0.00  0.00    +0.000 C 
BRANCH  14  15
ATOM     15  O   UNL     1       1.938   8.394  19.826  0.00  0.00    +0.000 OA
BRANCH  15  16
ATOM     16  C   UNL     1       2.080   7.047  19.611  0.00  0.00    +0.000 A 
ATOM     17  C   UNL     1       2.382   6.679  18.300  0.00  0.00    +0.000 A 
ATOM     18  C   UNL     1       2.542   5.332  17.964  0.00  0.00    +0.000 A 
ATOM     19  C   UNL     1       2.399   4.339  18.937  0.00  0.00    +0.000 A 
ATOM     20 CL   UNL     1       2.604   2.699  18.436  0.00  0.00    +0.000 Cl
ATOM     21  C   UNL     1       2.093   4.685  20.259  0.00  0.00    +0.000 A 
ATOM     22  C   UNL     1       1.895   3.687  21.367  0.00  0.00    +0.000 C 
ATOM     23  C   UNL     1       1.939   6.049  20.580  0.00  0.00    +0.000 A 
ENDBRANCH  15  16
ENDBRANCH  14  15
ENDBRANCH  12  14
ENDBRANCH   9  12
BRANCH   1  24
ATOM     24  C   UNL     1       4.498  14.851  17.927  0.00  0.00    +0.000 C 
BRANCH  24  29
ATOM     25  N   UNL     1       9.249  13.210  18.897  0.00  0.00    +0.000 NA
ATOM     26  C   UNL     1       8.629  13.667  20.165  0.00  0.00    +0.000 C 
ATOM     27  C   UNL     1       7.706  14.908  20.076  0.00  0.00    +0.000 C 
ATOM     28  N   UNL     1       6.770  14.807  18.953  0.00  0.00    +0.000 N 
ATOM     29  C   UNL     1       5.405  14.974  19.173  0.00  0.00    +0.000 C 
ATOM     30  O   UNL     1       4.949  15.171  20.300  0.00  0.00    +0.000 OA
ATOM     31  C   UNL     1       7.384  14.417  17.684  0.00  0.00    +0.000 C 
ATOM     32  C   UNL     1       8.186  13.112  17.866  0.00  0.00    +0.000 C 
BRANCH  25  34
ATOM     33  C   UNL     1      11.764  13.546  18.671  0.00  0.00    +0.000 C 
ATOM     34  C   UNL     1      10.351  14.044  18.392  0.00  0.00    +0.000 C 
ENDBRANCH  25  34
ENDBRANCH  24  29
ENDBRANCH   1  24
TORSDOF 7
ENDMDL
