MODEL 1
REMARK VINA RESULT:      -6.8      0.000      0.000
REMARK  Name = 
REMARK  4 active torsions:
REMARK  status: ('A' for Active; 'I' for Inactive)
REMARK    1  A    between atoms: C_5  and  C_6
REMARK    2  A    between atoms: N_20  and  C_21
REMARK    3  A    between atoms: N_23  and  S_24
REMARK    4  A    between atoms: S_24  and  C_27
REMARK                            x       y       z     vdW  Elec       q    Type
REMARK                         _______ _______ _______ _____ _____    ______ ____
ROOT
ATOM      1  C   UNL     1      -1.260  10.684  19.965  0.00  0.00    +0.000 A 
ATOM      2  N   UNL     1      -1.160  11.916  20.454  0.00  0.00    +0.000 NA
ATOM      3  C   UNL     1       0.073  12.319  20.807  0.00  0.00    +0.000 A 
ATOM      4  N   UNL     1       0.143  13.566  21.462  0.00  0.00    +0.000 N 
ATOM      5  C   UNL     1       1.463  14.184  21.444  0.00  0.00    +0.000 C 
ATOM      6  C   UNL     1       1.428  15.578  22.093  0.00  0.00    +0.000 C 
ATOM      7  O   UNL     1       0.421  16.415  21.506  0.00  0.00    +0.000 OA
ATOM      8  C   UNL     1      -0.874  15.850  21.732  0.00  0.00    +0.000 C 
ATOM      9  C   UNL     1      -1.000  14.445  21.128  0.00  0.00    +0.000 C 
ATOM     10  N   UNL     1       1.160  11.513  20.611  0.00  0.00    +0.000 NA
ATOM     11  C   UNL     1       0.924  10.220  20.263  0.00  0.00    +0.000 A 
ATOM     12  C   UNL     1      -0.363   9.786  20.451  0.00  0.00    +0.000 A 
ATOM     13  C   UNL     1      -0.248   9.285  21.897  0.00  0.00    +0.000 C 
ATOM     14  C   UNL     1       1.248   8.872  21.966  0.00  0.00    +0.000 C 
ATOM     15  N   UNL     1       1.829   9.075  20.597  0.00  0.00    +0.000 N 
ENDROOT
BRANCH   1  20
ATOM     16  N   UNL     1      -3.110  10.203  14.695  0.00  0.00    +0.000 N 
ATOM     17  C   UNL     1      -2.609  10.378  15.967  0.00  0.00    +0.000 A 
ATOM     18  N   UNL     1      -1.704   9.497  16.390  0.00  0.00    +0.000 NA
ATOM     19  C   UNL     1      -1.255   9.655  17.657  0.00  0.00    +0.000 A 
ATOM     20  C   UNL     1      -1.669  10.643  18.537  0.00  0.00    +0.000 A 
ATOM     21  C   UNL     1      -2.610  11.486  17.971  0.00  0.00    +0.000 A 
ATOM     22  N   UNL     1      -3.101  11.371  16.711  0.00  0.00    +0.000 NA
ATOM     23  H   UNL     1      -2.981   9.239  14.418  0.00  0.00    +0.000 HD
ATOM     24  H   UNL     1      -4.038  10.591  14.623  0.00  0.00    +0.000 HD
ENDBRANCH   1  20
BRANCH  15  25
ATOM     25  C   UNL     1       1.663   7.801  19.833  0.00  0.00    +0.000 C 
ATOM     26  C   UNL     1       2.378   7.603  18.478  0.00  0.00    +0.000 C 
ATOM     27  N   UNL     1       2.698   6.167  18.875  0.00  0.00    +0.000 NA
ATOM     28  C   UNL     1       2.588   6.650  20.314  0.00  0.00    +0.000 C 
BRANCH  27  29
ATOM     29  S   UNL     1       1.782   4.787  18.386  0.00  0.00    +0.000 S 
ATOM     30  O   UNL     1       1.076   4.338  19.567  0.00  0.00    +0.000 OA
ATOM     31  O   UNL     1       1.019   5.211  17.221  0.00  0.00    +0.000 OA
BRANCH  29  32
ATOM     32  C   UNL     1       2.957   3.515  17.908  0.00  0.00    +0.000 C 
ATOM     33  C   UNL     1       3.833   2.946  19.056  0.00  0.00    +0.000 C 
ATOM     34  C   UNL     1       3.697   1.569  18.376  0.00  0.00    +0.000 C 
ATOM     35  C   UNL     1       2.387   2.086  17.751  0.00  0.00    +0.000 C 
ENDBRANCH  29  32
ENDBRANCH  27  29
ENDBRANCH  15  25
TORSDOF 4
ENDMDL
MODEL 2
REMARK VINA RESULT:      -6.6      1.027      1.250
REMARK  Name = 
REMARK  4 active torsions:
REMARK  status: ('A' for Active; 'I' for Inactive)
REMARK    1  A    between atoms: C_5  and  C_6
REMARK    2  A    between atoms: N_20  and  C_21
REMARK    3  A    between atoms: N_23  and  S_24
REMARK    4  A    between atoms: S_24  and  C_27
REMARK                            x       y       z     vdW  Elec       q    Type
REMARK                         _______ _______ _______ _____ _____    ______ ____
ROOT
ATOM      1  C   UNL     1      -1.306  10.637  19.921  0.00  0.00    +0.000 A 
ATOM      2  N   UNL     1      -1.269  11.862  20.438  0.00  0.00    +0.000 NA
ATOM      3  C   UNL     1      -0.059  12.315  20.810  0.00  0.00    +0.000 A 
ATOM      4  N   UNL     1      -0.054  13.548  21.494  0.00  0.00    +0.000 N 
ATOM      5  C   UNL     1       1.235  14.229  21.501  0.00  0.00    +0.000 C 
ATOM      6  C   UNL     1       1.129  15.604  22.181  0.00  0.00    +0.000 C 
ATOM      7  O   UNL     1       0.087  16.406  21.605  0.00  0.00    +0.000 OA
ATOM      8  C   UNL     1      -1.181  15.774  21.807  0.00  0.00    +0.000 C 
ATOM      9  C   UNL     1      -1.235  14.379  21.171  0.00  0.00    +0.000 C 
ATOM     10  N   UNL     1       1.067  11.566  20.605  0.00  0.00    +0.000 NA
ATOM     11  C   UNL     1       0.894  10.271  20.226  0.00  0.00    +0.000 A 
ATOM     12  C   UNL     1      -0.372   9.772  20.394  0.00  0.00    +0.000 A 
ATOM     13  C   UNL     1      -0.243   9.245  21.829  0.00  0.00    +0.000 C 
ATOM     14  C   UNL     1       1.271   8.902  21.901  0.00  0.00    +0.000 C 
ATOM     15  N   UNL     1       1.851   9.164  20.542  0.00  0.00    +0.000 N 
ENDROOT
BRANCH   1  20
ATOM     16  N   UNL     1      -3.115  10.212  14.631  0.00  0.00    +0.000 N 
ATOM     17  C   UNL     1      -2.623  10.372  15.910  0.00  0.00    +0.000 A 
ATOM     18  N   UNL     1      -1.738   9.474  16.337  0.00  0.00    +0.000 NA
ATOM     19  C   UNL     1      -1.298   9.619  17.608  0.00  0.00    +0.000 A 
ATOM     20  C   UNL     1      -1.703  10.610  18.489  0.00  0.00    +0.000 A 
ATOM     21  C   UNL     1      -2.624  11.471  17.918  0.00  0.00    +0.000 A 
ATOM     22  N   UNL     1      -3.105  11.370  16.653  0.00  0.00    +0.000 NA
ATOM     23  H   UNL     1      -3.000   9.246  14.351  0.00  0.00    +0.000 HD
ATOM     24  H   UNL     1      -4.036  10.615  14.553  0.00  0.00    +0.000 HD
ENDBRANCH   1  20
BRANCH  15  25
ATOM     25  C   UNL     1       1.752   7.901  19.749  0.00  0.00    +0.000 C 
ATOM     26  C   UNL     1       2.201   7.869  18.271  0.00  0.00    +0.000 C 
ATOM     27  N   UNL     1       2.832   6.502  18.510  0.00  0.00    +0.000 NA
ATOM     28  C   UNL     1       2.936   6.920  19.969  0.00  0.00    +0.000 C 
BRANCH  27  29
ATOM     29  S   UNL     1       2.082   4.995  18.124  0.00  0.00    +0.000 S 
ATOM     30  O   UNL     1       0.948   5.318  17.284  0.00  0.00    +0.000 OA
ATOM     31  O   UNL     1       3.142   4.150  17.592  0.00  0.00    +0.000 OA
BRANCH  29  32
ATOM     32  C   UNL     1       1.471   4.299  19.663  0.00  0.00    +0.000 C 
ATOM     33  C   UNL     1       0.776   2.916  19.544  0.00  0.00    +0.000 C 
ATOM     34  C   UNL     1       1.438   2.551  20.888  0.00  0.00    +0.000 C 
ATOM     35  C   UNL     1       2.520   3.598  20.557  0.00  0.00    +0.000 C 
ENDBRANCH  29  32
ENDBRANCH  27  29
ENDBRANCH  15  25
TORSDOF 4
ENDMDL
MODEL 3
REMARK VINA RESULT:      -6.5      4.902      8.523
REMARK  Name = 
REMARK  4 active torsions:
REMARK  status: ('A' for Active; 'I' for Inactive)
REMARK    1  A    between atoms: C_5  and  C_6
REMARK    2  A    between atoms: N_20  and  C_21
REMARK    3  A    between atoms: N_23  and  S_24
REMARK    4  A    between atoms: S_24  and  C_27
REMARK                            x       y       z     vdW  Elec       q    Type
REMARK                         _______ _______ _______ _____ _____    ______ ____
ROOT
ATOM      1  C   UNL     1       0.742  12.893  19.254  0.00  0.00    +0.000 A 
ATOM      2  N   UNL     1       1.905  13.418  18.883  0.00  0.00    +0.000 NA
ATOM      3  C   UNL     1       2.385  14.410  19.652  0.00  0.00    +0.000 A 
ATOM      4  N   UNL     1       3.538  15.059  19.164  0.00  0.00    +0.000 N 
ATOM      5  C   UNL     1       4.286  15.799  20.173  0.00  0.00    +0.000 C 
ATOM      6  C   UNL     1       5.574  16.393  19.578  0.00  0.00    +0.000 C 
ATOM      7  O   UNL     1       6.372  15.392  18.927  0.00  0.00    +0.000 OA
ATOM      8  C   UNL     1       5.652  14.840  17.820  0.00  0.00    +0.000 C 
ATOM      9  C   UNL     1       4.330  14.197  18.259  0.00  0.00    +0.000 C 
ATOM     10  N   UNL     1       1.726  14.803  20.785  0.00  0.00    +0.000 NA
ATOM     11  C   UNL     1       0.470  14.318  20.977  0.00  0.00    +0.000 A 
ATOM     12  C   UNL     1      -0.114  13.745  19.877  0.00  0.00    +0.000 A 
ATOM     13  C   UNL     1      -0.781  14.990  19.274  0.00  0.00    +0.000 C 
ATOM     14  C   UNL     1      -1.043  15.848  20.542  0.00  0.00    +0.000 C 
ATOM     15  N   UNL     1      -0.608  15.036  21.727  0.00  0.00    +0.000 N 
ENDROOT
BRANCH   1  20
ATOM     16  N   UNL     1       1.579   7.596  20.886  0.00  0.00    +0.000 N 
ATOM     17  C   UNL     1       1.299   8.886  20.490  0.00  0.00    +0.000 A 
ATOM     18  N   UNL     1       1.394   9.157  19.190  0.00  0.00    +0.000 NA
ATOM     19  C   UNL     1       1.158  10.439  18.823  0.00  0.00    +0.000 A 
ATOM     20  C   UNL     1       0.842  11.475  19.687  0.00  0.00    +0.000 A 
ATOM     21  C   UNL     1       0.778  11.056  21.005  0.00  0.00    +0.000 A 
ATOM     22  N   UNL     1       1.011   9.789  21.431  0.00  0.00    +0.000 NA
ATOM     23  H   UNL     1       2.156   7.152  20.183  0.00  0.00    +0.000 HD
ATOM     24  H   UNL     1       1.910   7.581  21.839  0.00  0.00    +0.000 HD
ENDBRANCH   1  20
BRANCH  15  25
ATOM     25  C   UNL     1      -1.785  14.243  22.197  0.00  0.00    +0.000 C 
ATOM     26  C   UNL     1      -1.676  13.356  23.458  0.00  0.00    +0.000 C 
ATOM     27  N   UNL     1      -3.068  13.814  23.879  0.00  0.00    +0.000 NA
ATOM     28  C   UNL     1      -2.798  15.058  23.047  0.00  0.00    +0.000 C 
BRANCH  27  29
ATOM     29  S   UNL     1      -4.520  12.920  23.600  0.00  0.00    +0.000 S 
ATOM     30  O   UNL     1      -4.396  12.366  22.268  0.00  0.00    +0.000 OA
ATOM     31  O   UNL     1      -4.655  12.019  24.734  0.00  0.00    +0.000 OA
BRANCH  29  32
ATOM     32  C   UNL     1      -5.874  14.100  23.601  0.00  0.00    +0.000 C 
ATOM     33  C   UNL     1      -6.606  14.282  22.244  0.00  0.00    +0.000 C 
ATOM     34  C   UNL     1      -7.914  14.404  23.051  0.00  0.00    +0.000 C 
ATOM     35  C   UNL     1      -7.222  13.588  24.160  0.00  0.00    +0.000 C 
ENDBRANCH  29  32
ENDBRANCH  27  29
ENDBRANCH  15  25
TORSDOF 4
ENDMDL
MODEL 4
REMARK VINA RESULT:      -6.5      4.100      8.860
REMARK  Name = 
REMARK  4 active torsions:
REMARK  status: ('A' for Active; 'I' for Inactive)
REMARK    1  A    between atoms: C_5  and  C_6
REMARK    2  A    between atoms: N_20  and  C_21
REMARK    3  A    between atoms: N_23  and  S_24
REMARK    4  A    between atoms: S_24  and  C_27
REMARK                            x       y       z     vdW  Elec       q    Type
REMARK                         _______ _______ _______ _____ _____    ______ ____
ROOT
ATOM      1  C   UNL     1      -1.315  12.238  19.153  0.00  0.00    +0.000 A 
ATOM      2  N   UNL     1      -0.446  11.276  18.860  0.00  0.00    +0.000 NA
ATOM      3  C   UNL     1       0.026  10.563  19.897  0.00  0.00    +0.000 A 
ATOM      4  N   UNL     1       1.058   9.652  19.592  0.00  0.00    +0.000 N 
ATOM      5  C   UNL     1       1.250   8.603  20.587  0.00  0.00    +0.000 C 
ATOM      6  C   UNL     1       2.325   7.602  20.131  0.00  0.00    +0.000 C 
ATOM      7  O   UNL     1       2.045   7.075  18.825  0.00  0.00    +0.000 OA
ATOM      8  C   UNL     1       2.065   8.132  17.860  0.00  0.00    +0.000 C 
ATOM      9  C   UNL     1       1.029   9.219  18.177  0.00  0.00    +0.000 C 
ATOM     10  N   UNL     1      -0.422  10.791  21.169  0.00  0.00    +0.000 NA
ATOM     11  C   UNL     1      -1.179  11.901  21.375  0.00  0.00    +0.000 A 
ATOM     12  C   UNL     1      -1.151  12.828  20.365  0.00  0.00    +0.000 A 
ATOM     13  C   UNL     1       0.048  13.666  20.830  0.00  0.00    +0.000 C 
ATOM     14  C   UNL     1      -0.018  13.476  22.371  0.00  0.00    +0.000 C 
ATOM     15  N   UNL     1      -1.240  12.656  22.666  0.00  0.00    +0.000 N 
ENDROOT
BRANCH   1  20
ATOM     16  N   UNL     1      -6.473  11.753  17.009  0.00  0.00    +0.000 N 
ATOM     17  C   UNL     1      -5.205  11.797  17.548  0.00  0.00    +0.000 A 
ATOM     18  N   UNL     1      -5.092  12.239  18.799  0.00  0.00    +0.000 NA
ATOM     19  C   UNL     1      -3.837  12.319  19.299  0.00  0.00    +0.000 A 
ATOM     20  C   UNL     1      -2.678  11.990  18.613  0.00  0.00    +0.000 A 
ATOM     21  C   UNL     1      -2.939  11.549  17.328  0.00  0.00    +0.000 A 
ATOM     22  N   UNL     1      -4.174  11.455  16.772  0.00  0.00    +0.000 NA
ATOM     23  H   UNL     1      -7.070  12.394  17.515  0.00  0.00    +0.000 HD
ATOM     24  H   UNL     1      -6.434  11.843  16.005  0.00  0.00    +0.000 HD
ENDBRANCH   1  20
BRANCH  15  25
ATOM     25  C   UNL     1      -2.383  13.595  22.879  0.00  0.00    +0.000 C 
ATOM     26  C   UNL     1      -3.770  13.056  23.297  0.00  0.00    +0.000 C 
ATOM     27  N   UNL     1      -3.916  14.228  24.260  0.00  0.00    +0.000 NA
ATOM     28  C   UNL     1      -2.396  14.270  24.278  0.00  0.00    +0.000 C 
BRANCH  27  29
ATOM     29  S   UNL     1      -4.788  15.679  23.913  0.00  0.00    +0.000 S 
ATOM     30  O   UNL     1      -4.603  16.539  25.063  0.00  0.00    +0.000 OA
ATOM     31  O   UNL     1      -4.314  16.124  22.611  0.00  0.00    +0.000 OA
BRANCH  29  32
ATOM     32  C   UNL     1      -6.526  15.239  23.806  0.00  0.00    +0.000 C 
ATOM     33  C   UNL     1      -7.051  14.929  22.378  0.00  0.00    +0.000 C 
ATOM     34  C   UNL     1      -7.914  13.822  23.017  0.00  0.00    +0.000 C 
ATOM     35  C   UNL     1      -6.880  13.776  24.160  0.00  0.00    +0.000 C 
ENDBRANCH  29  32
ENDBRANCH  27  29
ENDBRANCH  15  25
TORSDOF 4
ENDMDL
MODEL 5
REMARK VINA RESULT:      -6.4      3.299      8.113
REMARK  Name = 
REMARK  4 active torsions:
REMARK  status: ('A' for Active; 'I' for Inactive)
REMARK    1  A    between atoms: C_5  and  C_6
REMARK    2  A    between atoms: N_20  and  C_21
REMARK    3  A    between atoms: N_23  and  S_24
REMARK    4  A    between atoms: S_24  and  C_27
REMARK                            x       y       z     vdW  Elec       q    Type
REMARK                         _______ _______ _______ _____ _____    ______ ____
ROOT
ATOM      1  C   UNL     1      -0.159  10.870  18.646  0.00  0.00    +0.000 A 
ATOM      2  N   UNL     1       0.726   9.897  18.453  0.00  0.00    +0.000 NA
ATOM      3  C   UNL     1       0.969   9.095  19.503  0.00  0.00    +0.000 A 
ATOM      4  N   UNL     1       2.017   8.166  19.332  0.00  0.00    +0.000 N 
ATOM      5  C   UNL     1       1.986   7.044  20.262  0.00  0.00    +0.000 C 
ATOM      6  C   UNL     1       3.103   6.034  19.945  0.00  0.00    +0.000 C 
ATOM      7  O   UNL     1       3.067   5.613  18.573  0.00  0.00    +0.000 OA
ATOM      8  C   UNL     1       3.301   6.732  17.713  0.00  0.00    +0.000 C 
ATOM      9  C   UNL     1       2.252   7.835  17.909  0.00  0.00    +0.000 C 
ATOM     10  N   UNL     1       0.290   9.251  20.680  0.00  0.00    +0.000 NA
ATOM     11  C   UNL     1      -0.464  10.373  20.821  0.00  0.00    +0.000 A 
ATOM     12  C   UNL     1      -0.217  11.367  19.910  0.00  0.00    +0.000 A 
ATOM     13  C   UNL     1       0.891  12.121  20.658  0.00  0.00    +0.000 C 
ATOM     14  C   UNL     1       0.522  11.827  22.138  0.00  0.00    +0.000 C 
ATOM     15  N   UNL     1      -0.754  11.037  22.131  0.00  0.00    +0.000 N 
ENDROOT
BRANCH   1  20
ATOM     16  N   UNL     1      -4.653  10.597  15.307  0.00  0.00    +0.000 N 
ATOM     17  C   UNL     1      -3.579  10.610  16.171  0.00  0.00    +0.000 A 
ATOM     18  N   UNL     1      -3.519  11.608  17.050  0.00  0.00    +0.000 NA
ATOM     19  C   UNL     1      -2.437  11.632  17.862  0.00  0.00    +0.000 A 
ATOM     20  C   UNL     1      -1.397  10.716  17.839  0.00  0.00    +0.000 A 
ATOM     21  C   UNL     1      -1.585   9.736  16.880  0.00  0.00    +0.000 A 
ATOM     22  N   UNL     1      -2.645   9.666  16.035  0.00  0.00    +0.000 NA
ATOM     23  H   UNL     1      -5.033  11.532  15.236  0.00  0.00    +0.000 HD
ATOM     24  H   UNL     1      -4.412  10.124  14.449  0.00  0.00    +0.000 HD
ENDBRANCH   1  20
BRANCH  15  25
ATOM     25  C   UNL     1      -1.892  12.004  22.193  0.00  0.00    +0.000 C 
ATOM     26  C   UNL     1      -2.886  11.967  23.376  0.00  0.00    +0.000 C 
ATOM     27  N   UNL     1      -2.884  13.491  23.403  0.00  0.00    +0.000 NA
ATOM     28  C   UNL     1      -1.508  13.398  22.761  0.00  0.00    +0.000 C 
BRANCH  27  29
ATOM     29  S   UNL     1      -4.086  14.486  22.662  0.00  0.00    +0.000 S 
ATOM     30  O   UNL     1      -4.825  15.094  23.749  0.00  0.00    +0.000 OA
ATOM     31  O   UNL     1      -3.371  15.340  21.725  0.00  0.00    +0.000 OA
BRANCH  29  32
ATOM     32  C   UNL     1      -5.194  13.396  21.761  0.00  0.00    +0.000 C 
ATOM     33  C   UNL     1      -6.515  14.044  21.266  0.00  0.00    +0.000 C 
ATOM     34  C   UNL     1      -6.368  13.189  19.991  0.00  0.00    +0.000 C 
ATOM     35  C   UNL     1      -4.853  13.160  20.272  0.00  0.00    +0.000 C 
ENDBRANCH  29  32
ENDBRANCH  27  29
ENDBRANCH  15  25
TORSDOF 4
ENDMDL
MODEL 6
REMARK VINA RESULT:      -6.4      3.911      8.954
REMARK  Name = 
REMARK  4 active torsions:
REMARK  status: ('A' for Active; 'I' for Inactive)
REMARK    1  A    between atoms: C_5  and  C_6
REMARK    2  A    between atoms: N_20  and  C_21
REMARK    3  A    between atoms: N_23  and  S_24
REMARK    4  A    between atoms: S_24  and  C_27
REMARK                            x       y       z     vdW  Elec       q    Type
REMARK                         _______ _______ _______ _____ _____    ______ ____
ROOT
ATOM      1  C   UNL     1      -1.551  12.310  19.272  0.00  0.00    +0.000 A 
ATOM      2  N   UNL     1      -0.653  11.390  18.932  0.00  0.00    +0.000 NA
ATOM      3  C   UNL     1      -0.152  10.648  19.934  0.00  0.00    +0.000 A 
ATOM      4  N   UNL     1       0.907   9.785  19.584  0.00  0.00    +0.000 N 
ATOM      5  C   UNL     1       1.140   8.700  20.530  0.00  0.00    +0.000 C 
ATOM      6  C   UNL     1       2.243   7.755  20.024  0.00  0.00    +0.000 C 
ATOM      7  O   UNL     1       1.972   7.279  18.698  0.00  0.00    +0.000 OA
ATOM      8  C   UNL     1       1.952   8.377  17.781  0.00  0.00    +0.000 C 
ATOM      9  C   UNL     1       0.884   9.415  18.151  0.00  0.00    +0.000 C 
ATOM     10  N   UNL     1      -0.599  10.804  21.218  0.00  0.00    +0.000 NA
ATOM     11  C   UNL     1      -1.390  11.879  21.476  0.00  0.00    +0.000 A 
ATOM     12  C   UNL     1      -1.398  12.850  20.509  0.00  0.00    +0.000 A 
ATOM     13  C   UNL     1      -0.224  13.705  21.005  0.00  0.00    +0.000 C 
ATOM     14  C   UNL     1      -0.274  13.445  22.536  0.00  0.00    +0.000 C 
ATOM     15  N   UNL     1      -1.467  12.573  22.800  0.00  0.00    +0.000 N 
ENDROOT
BRANCH   1  20
ATOM     16  N   UNL     1      -6.690  11.746  17.103  0.00  0.00    +0.000 N 
ATOM     17  C   UNL     1      -5.426  11.810  17.650  0.00  0.00    +0.000 A 
ATOM     18  N   UNL     1      -5.325  12.284  18.890  0.00  0.00    +0.000 NA
ATOM     19  C   UNL     1      -4.074  12.382  19.397  0.00  0.00    +0.000 A 
ATOM     20  C   UNL     1      -2.908  12.042  18.728  0.00  0.00    +0.000 A 
ATOM     21  C   UNL     1      -3.158  11.566  17.453  0.00  0.00    +0.000 A 
ATOM     22  N   UNL     1      -4.388  11.453  16.891  0.00  0.00    +0.000 NA
ATOM     23  H   UNL     1      -7.294  12.397  17.587  0.00  0.00    +0.000 HD
ATOM     24  H   UNL     1      -6.644  11.810  16.097  0.00  0.00    +0.000 HD
ENDBRANCH   1  20
BRANCH  15  25
ATOM     25  C   UNL     1      -2.638  13.464  23.060  0.00  0.00    +0.000 C 
ATOM     26  C   UNL     1      -3.693  13.079  24.122  0.00  0.00    +0.000 C 
ATOM     27  N   UNL     1      -3.743  14.534  24.575  0.00  0.00    +0.000 NA
ATOM     28  C   UNL     1      -2.332  14.649  24.017  0.00  0.00    +0.000 C 
BRANCH  27  29
ATOM     29  S   UNL     1      -4.936  15.676  24.070  0.00  0.00    +0.000 S 
ATOM     30  O   UNL     1      -6.173  14.934  23.950  0.00  0.00    +0.000 OA
ATOM     31  O   UNL     1      -4.858  16.776  25.021  0.00  0.00    +0.000 OA
BRANCH  29  32
ATOM     32  C   UNL     1      -4.458  16.254  22.438  0.00  0.00    +0.000 C 
ATOM     33  C   UNL     1      -5.140  15.532  21.245  0.00  0.00    +0.000 C 
ATOM     34  C   UNL     1      -5.190  16.904  20.541  0.00  0.00    +0.000 C 
ATOM     35  C   UNL     1      -5.152  17.544  21.942  0.00  0.00    +0.000 C 
ENDBRANCH  29  32
ENDBRANCH  27  29
ENDBRANCH  15  25
TORSDOF 4
ENDMDL
MODEL 7
REMARK VINA RESULT:      -6.4      5.726      7.594
REMARK  Name = 
REMARK  4 active torsions:
REMARK  status: ('A' for Active; 'I' for Inactive)
REMARK    1  A    between atoms: C_5  and  C_6
REMARK    2  A    between atoms: N_20  and  C_21
REMARK    3  A    between atoms: N_23  and  S_24
REMARK    4  A    between atoms: S_24  and  C_27
REMARK                            x       y       z     vdW  Elec       q    Type
REMARK                         _______ _______ _______ _____ _____    ______ ____
ROOT
ATOM      1  C   UNL     1      -2.342  12.614  20.893  0.00  0.00    +0.000 A 
ATOM      2  N   UNL     1      -3.441  12.786  21.621  0.00  0.00    +0.000 NA
ATOM      3  C   UNL     1      -3.735  14.051  21.967  0.00  0.00    +0.000 A 
ATOM      4  N   UNL     1      -4.813  14.204  22.863  0.00  0.00    +0.000 N 
ATOM      5  C   UNL     1      -5.394  15.541  22.886  0.00  0.00    +0.000 C 
ATOM      6  C   UNL     1      -6.620  15.594  23.814  0.00  0.00    +0.000 C 
ATOM      7  O   UNL     1      -7.583  14.582  23.484  0.00  0.00    +0.000 OA
ATOM      8  C   UNL     1      -7.010  13.284  23.672  0.00  0.00    +0.000 C 
ATOM      9  C   UNL     1      -5.766  13.074  22.798  0.00  0.00    +0.000 C 
ATOM     10  N   UNL     1      -2.966  15.096  21.534  0.00  0.00    +0.000 NA
ATOM     11  C   UNL     1      -1.781  14.794  20.940  0.00  0.00    +0.000 A 
ATOM     12  C   UNL     1      -1.344  13.507  21.118  0.00  0.00    +0.000 A 
ATOM     13  C   UNL     1      -0.546  13.693  22.416  0.00  0.00    +0.000 C 
ATOM     14  C   UNL     1      -0.097  15.176  22.296  0.00  0.00    +0.000 C 
ATOM     15  N   UNL     1      -0.573  15.679  20.965  0.00  0.00    +0.000 N 
ENDROOT
BRANCH   1  20
ATOM     16  N   UNL     1      -3.434  11.179  15.584  0.00  0.00    +0.000 N 
ATOM     17  C   UNL     1      -3.151  11.459  16.904  0.00  0.00    +0.000 A 
ATOM     18  N   UNL     1      -4.186  11.662  17.717  0.00  0.00    +0.000 NA
ATOM     19  C   UNL     1      -3.891  11.978  19.000  0.00  0.00    +0.000 A 
ATOM     20  C   UNL     1      -2.613  12.117  19.518  0.00  0.00    +0.000 A 
ATOM     21  C   UNL     1      -1.635  11.882  18.567  0.00  0.00    +0.000 A 
ATOM     22  N   UNL     1      -1.872  11.568  17.268  0.00  0.00    +0.000 NA
ATOM     23  H   UNL     1      -4.360  11.523  15.364  0.00  0.00    +0.000 HD
ATOM     24  H   UNL     1      -2.673  11.471  14.989  0.00  0.00    +0.000 HD
ENDBRANCH   1  20
BRANCH  15  25
ATOM     25  C   UNL     1       0.507  15.422  19.964  0.00  0.00    +0.000 C 
ATOM     26  C   UNL     1       0.844  16.481  18.890  0.00  0.00    +0.000 C 
ATOM     27  N   UNL     1       2.327  16.189  19.093  0.00  0.00    +0.000 NA
ATOM     28  C   UNL     1       1.938  15.722  20.488  0.00  0.00    +0.000 C 
BRANCH  27  29
ATOM     29  S   UNL     1       3.266  15.141  18.092  0.00  0.00    +0.000 S 
ATOM     30  O   UNL     1       2.630  13.842  18.168  0.00  0.00    +0.000 OA
ATOM     31  O   UNL     1       3.365  15.808  16.803  0.00  0.00    +0.000 OA
BRANCH  29  32
ATOM     32  C   UNL     1       4.897  15.020  18.836  0.00  0.00    +0.000 C 
ATOM     33  C   UNL     1       6.064  14.741  17.851  0.00  0.00    +0.000 C 
ATOM     34  C   UNL     1       6.918  15.695  18.711  0.00  0.00    +0.000 C 
ATOM     35  C   UNL     1       5.600  16.360  19.154  0.00  0.00    +0.000 C 
ENDBRANCH  29  32
ENDBRANCH  27  29
ENDBRANCH  15  25
TORSDOF 4
ENDMDL
MODEL 8
REMARK VINA RESULT:      -6.4      6.137      8.089
REMARK  Name = 
REMARK  4 active torsions:
REMARK  status: ('A' for Active; 'I' for Inactive)
REMARK    1  A    between atoms: C_5  and  C_6
REMARK    2  A    between atoms: N_20  and  C_21
REMARK    3  A    between atoms: N_23  and  S_24
REMARK    4  A    between atoms: S_24  and  C_27
REMARK                            x       y       z     vdW  Elec       q    Type
REMARK                         _______ _______ _______ _____ _____    ______ ____
ROOT
ATOM      1  C   UNL     1      -2.156  13.138  21.525  0.00  0.00    +0.000 A 
ATOM      2  N   UNL     1      -3.318  13.052  22.165  0.00  0.00    +0.000 NA
ATOM      3  C   UNL     1      -3.947  14.212  22.419  0.00  0.00    +0.000 A 
ATOM      4  N   UNL     1      -5.098  14.119  23.228  0.00  0.00    +0.000 N 
ATOM      5  C   UNL     1      -5.995  15.265  23.136  0.00  0.00    +0.000 C 
ATOM      6  C   UNL     1      -7.265  15.038  23.973  0.00  0.00    +0.000 C 
ATOM      7  O   UNL     1      -7.914  13.804  23.635  0.00  0.00    +0.000 OA
ATOM      8  C   UNL     1      -7.052  12.702  23.934  0.00  0.00    +0.000 C 
ATOM      9  C   UNL     1      -5.729  12.782  23.161  0.00  0.00    +0.000 C 
ATOM     10  N   UNL     1      -3.431  15.402  21.982  0.00  0.00    +0.000 NA
ATOM     11  C   UNL     1      -2.164  15.389  21.489  0.00  0.00    +0.000 A 
ATOM     12  C   UNL     1      -1.435  14.263  21.769  0.00  0.00    +0.000 A 
ATOM     13  C   UNL     1      -0.817  14.692  23.107  0.00  0.00    +0.000 C 
ATOM     14  C   UNL     1      -0.745  16.235  22.936  0.00  0.00    +0.000 C 
ATOM     15  N   UNL     1      -1.223  16.552  21.548  0.00  0.00    +0.000 N 
ENDROOT
BRANCH   1  20
ATOM     16  N   UNL     1      -2.373  11.294  16.235  0.00  0.00    +0.000 N 
ATOM     17  C   UNL     1      -2.296  11.679  17.556  0.00  0.00    +0.000 A 
ATOM     18  N   UNL     1      -3.440  11.755  18.235  0.00  0.00    +0.000 NA
ATOM     19  C   UNL     1      -3.353  12.176  19.518  0.00  0.00    +0.000 A 
ATOM     20  C   UNL     1      -2.182  12.539  20.165  0.00  0.00    +0.000 A 
ATOM     21  C   UNL     1      -1.073  12.414  19.347  0.00  0.00    +0.000 A 
ATOM     22  N   UNL     1      -1.101  12.005  18.053  0.00  0.00    +0.000 NA
ATOM     23  H   UNL     1      -3.307  11.477  15.891  0.00  0.00    +0.000 HD
ATOM     24  H   UNL     1      -1.599  11.673  15.710  0.00  0.00    +0.000 HD
ENDBRANCH   1  20
BRANCH  15  25
ATOM     25  C   UNL     1      -0.035  16.542  20.641  0.00  0.00    +0.000 C 
ATOM     26  C   UNL     1       0.102  17.599  19.522  0.00  0.00    +0.000 C 
ATOM     27  N   UNL     1       1.588  17.719  19.841  0.00  0.00    +0.000 NA
ATOM     28  C   UNL     1       1.222  17.233  21.236  0.00  0.00    +0.000 C 
BRANCH  27  29
ATOM     29  S   UNL     1       2.845  16.908  18.977  0.00  0.00    +0.000 S 
ATOM     30  O   UNL     1       2.578  17.141  17.574  0.00  0.00    +0.000 OA
ATOM     31  O   UNL     1       4.093  17.388  19.552  0.00  0.00    +0.000 OA
BRANCH  29  32
ATOM     32  C   UNL     1       2.665  15.152  19.307  0.00  0.00    +0.000 C 
ATOM     33  C   UNL     1       1.659  14.399  18.395  0.00  0.00    +0.000 C 
ATOM     34  C   UNL     1       2.642  13.211  18.419  0.00  0.00    +0.000 C 
ATOM     35  C   UNL     1       3.757  14.232  18.713  0.00  0.00    +0.000 C 
ENDBRANCH  29  32
ENDBRANCH  27  29
ENDBRANCH  15  25
TORSDOF 4
ENDMDL
MODEL 9
REMARK VINA RESULT:      -6.3      3.349      8.721
REMARK  Name = 
REMARK  4 active torsions:
REMARK  status: ('A' for Active; 'I' for Inactive)
REMARK    1  A    between atoms: C_5  and  C_6
REMARK    2  A    between atoms: N_20  and  C_21
REMARK    3  A    between atoms: N_23  and  S_24
REMARK    4  A    between atoms: S_24  and  C_27
REMARK                            x       y       z     vdW  Elec       q    Type
REMARK                         _______ _______ _______ _____ _____    ______ ____
ROOT
ATOM      1  C   UNL     1      -0.107  10.884  18.619  0.00  0.00    +0.000 A 
ATOM      2  N   UNL     1       0.751   9.886  18.432  0.00  0.00    +0.000 NA
ATOM      3  C   UNL     1       0.993   9.100  19.495  0.00  0.00    +0.000 A 
ATOM      4  N   UNL     1       2.016   8.143  19.326  0.00  0.00    +0.000 N 
ATOM      5  C   UNL     1       1.975   7.042  20.280  0.00  0.00    +0.000 C 
ATOM      6  C   UNL     1       3.061   6.000  19.966  0.00  0.00    +0.000 C 
ATOM      7  O   UNL     1       2.992   5.550  18.604  0.00  0.00    +0.000 OA
ATOM      8  C   UNL     1       3.237   6.646  17.717  0.00  0.00    +0.000 C 
ATOM      9  C   UNL     1       2.218   7.777  17.907  0.00  0.00    +0.000 C 
ATOM     10  N   UNL     1       0.338   9.297  20.679  0.00  0.00    +0.000 NA
ATOM     11  C   UNL     1      -0.387  10.440  20.809  0.00  0.00    +0.000 A 
ATOM     12  C   UNL     1      -0.132  11.408  19.872  0.00  0.00    +0.000 A 
ATOM     13  C   UNL     1       1.006  12.151  20.586  0.00  0.00    +0.000 C 
ATOM     14  C   UNL     1       0.657  11.897  22.078  0.00  0.00    +0.000 C 
ATOM     15  N   UNL     1      -0.638  11.138  22.109  0.00  0.00    +0.000 N 
ENDROOT
BRANCH   1  20
ATOM     16  N   UNL     1      -4.677  10.669  15.378  0.00  0.00    +0.000 N 
ATOM     17  C   UNL     1      -3.583  10.666  16.217  0.00  0.00    +0.000 A 
ATOM     18  N   UNL     1      -3.511  11.637  17.125  0.00  0.00    +0.000 NA
ATOM     19  C   UNL     1      -2.410  11.646  17.912  0.00  0.00    +0.000 A 
ATOM     20  C   UNL     1      -1.363  10.741  17.836  0.00  0.00    +0.000 A 
ATOM     21  C   UNL     1      -1.565   9.790  16.852  0.00  0.00    +0.000 A 
ATOM     22  N   UNL     1      -2.643   9.736  16.030  0.00  0.00    +0.000 NA
ATOM     23  H   UNL     1      -5.066  11.602  15.345  0.00  0.00    +0.000 HD
ATOM     24  H   UNL     1      -4.451  10.225  14.501  0.00  0.00    +0.000 HD
ENDBRANCH   1  20
BRANCH  15  25
ATOM     25  C   UNL     1      -1.752  12.133  22.169  0.00  0.00    +0.000 C 
ATOM     26  C   UNL     1      -2.835  12.028  23.267  0.00  0.00    +0.000 C 
ATOM     27  N   UNL     1      -2.796  13.543  23.426  0.00  0.00    +0.000 NA
ATOM     28  C   UNL     1      -1.377  13.460  22.883  0.00  0.00    +0.000 C 
BRANCH  27  29
ATOM     29  S   UNL     1      -3.910  14.637  22.687  0.00  0.00    +0.000 S 
ATOM     30  O   UNL     1      -3.104  15.611  21.982  0.00  0.00    +0.000 OA
ATOM     31  O   UNL     1      -4.840  13.807  21.936  0.00  0.00    +0.000 OA
BRANCH  29  32
ATOM     32  C   UNL     1      -4.785  15.476  24.013  0.00  0.00    +0.000 C 
ATOM     33  C   UNL     1      -3.904  16.333  24.961  0.00  0.00    +0.000 C 
ATOM     34  C   UNL     1      -5.064  17.348  24.999  0.00  0.00    +0.000 C 
ATOM     35  C   UNL     1      -5.501  16.792  23.630  0.00  0.00    +0.000 C 
ENDBRANCH  29  32
ENDBRANCH  27  29
ENDBRANCH  15  25
TORSDOF 4
ENDMDL
