MODEL 1
REMARK VINA RESULT:      -6.6      0.000      0.000
REMARK  Name = 
REMARK  9 active torsions:
REMARK  status: ('A' for Active; 'I' for Inactive)
REMARK    1  A    between atoms: C_1  and  C_2
REMARK    2  A    between atoms: C_2  and  N_3
REMARK    3  A    between atoms: N_3  and  C_4
REMARK    4  A    between atoms: N_3  and  C_6
REMARK    5  A    between atoms: C_4  and  C_5
REMARK    6  A    between atoms: C_9  and  C_10
REMARK    7  A    between atoms: N_11  and  C_12
REMARK    8  A    between atoms: C_15  and  C_16
REMARK    9  A    between atoms: C_20  and  O_21
REMARK                            x       y       z     vdW  Elec       q    Type
REMARK                         _______ _______ _______ _____ _____    ______ ____
ROOT
ATOM      1  C   UNL     1       4.544   5.719  17.771  0.00  0.00    +0.000 A 
ATOM      2  C   UNL     1       4.157   6.955  17.222  0.00  0.00    +0.000 A 
ATOM      3  C   UNL     1       3.220   7.795  17.841  0.00  0.00    +0.000 A 
ATOM      4  C   UNL     1       2.621   7.411  19.036  0.00  0.00    +0.000 A 
ATOM      5  C   UNL     1       2.978   6.199  19.615  0.00  0.00    +0.000 A 
ATOM      6  C   UNL     1       3.925   5.377  18.996  0.00  0.00    +0.000 A 
ENDROOT
BRANCH   4   7
ATOM      7  C   UNL     1       1.620   8.314  19.635  0.00  0.00    +0.000 C 
ATOM      8  N   UNL     1       1.542   8.497  20.917  0.00  0.00    +0.000 NA
BRANCH   8   9
ATOM      9  C   UNL     1       0.554   9.358  21.438  0.00  0.00    +0.000 A 
ATOM     10  C   UNL     1       0.102   9.317  22.766  0.00  0.00    +0.000 A 
ATOM     11  C   UNL     1      -0.864  10.220  23.232  0.00  0.00    +0.000 A 
ATOM     12  C   UNL     1      -1.378  11.207  22.386  0.00  0.00    +0.000 A 
ATOM     13  C   UNL     1      -0.913  11.279  21.069  0.00  0.00    +0.000 A 
ATOM     14  C   UNL     1       0.046  10.361  20.602  0.00  0.00    +0.000 A 
BRANCH  12  15
ATOM     15  C   UNL     1      -2.367  12.141  22.863  0.00  0.00    +0.000 C 
ATOM     16  N   UNL     1      -3.147  12.898  23.254  0.00  0.00    +0.000 NA
ENDBRANCH  12  15
ENDBRANCH   8   9
ENDBRANCH   4   7
BRANCH   5  17
ATOM     17  O   UNL     1       2.436   5.745  20.787  0.00  0.00    +0.000 OA
ATOM     18  H   UNL     1       2.841   6.271  21.512  0.00  0.00    +0.000 HD
ENDBRANCH   5  17
BRANCH   1  19
ATOM     19  N   UNL     1       5.472   4.869  17.138  0.00  0.00    +0.000 N 
BRANCH  19  21
ATOM     20  C   UNL     1       7.511   5.899  18.140  0.00  0.00    +0.000 C 
ATOM     21  C   UNL     1       6.783   4.612  17.757  0.00  0.00    +0.000 C 
ENDBRANCH  19  21
BRANCH  19  22
ATOM     22  C   UNL     1       4.970   4.094  15.984  0.00  0.00    +0.000 C 
ATOM     23  C   UNL     1       5.628   4.277  14.630  0.00  0.00    +0.000 C 
ENDBRANCH  19  22
ENDBRANCH   1  19
TORSDOF 7
ENDMDL
MODEL 2
REMARK VINA RESULT:      -6.5      0.279      1.787
REMARK  Name = 
REMARK  9 active torsions:
REMARK  status: ('A' for Active; 'I' for Inactive)
REMARK    1  A    between atoms: C_1  and  C_2
REMARK    2  A    between atoms: C_2  and  N_3
REMARK    3  A    between atoms: N_3  and  C_4
REMARK    4  A    between atoms: N_3  and  C_6
REMARK    5  A    between atoms: C_4  and  C_5
REMARK    6  A    between atoms: C_9  and  C_10
REMARK    7  A    between atoms: N_11  and  C_12
REMARK    8  A    between atoms: C_15  and  C_16
REMARK    9  A    between atoms: C_20  and  O_21
REMARK                            x       y       z     vdW  Elec       q    Type
REMARK                         _______ _______ _______ _____ _____    ______ ____
ROOT
ATOM      1  C   UNL     1       4.416   5.655  17.906  0.00  0.00    +0.000 A 
ATOM      2  C   UNL     1       4.059   6.900  17.358  0.00  0.00    +0.000 A 
ATOM      3  C   UNL     1       3.132   7.755  17.972  0.00  0.00    +0.000 A 
ATOM      4  C   UNL     1       2.514   7.378  19.160  0.00  0.00    +0.000 A 
ATOM      5  C   UNL     1       2.843   6.157  19.737  0.00  0.00    +0.000 A 
ATOM      6  C   UNL     1       3.780   5.320  19.123  0.00  0.00    +0.000 A 
ENDROOT
BRANCH   4   7
ATOM      7  C   UNL     1       1.525   8.298  19.753  0.00  0.00    +0.000 C 
ATOM      8  N   UNL     1       1.675   8.791  20.943  0.00  0.00    +0.000 NA
BRANCH   8   9
ATOM      9  C   UNL     1       0.690   9.652  21.469  0.00  0.00    +0.000 A 
ATOM     10  C   UNL     1       0.172  10.761  20.782  0.00  0.00    +0.000 A 
ATOM     11  C   UNL     1      -0.828  11.563  21.349  0.00  0.00    +0.000 A 
ATOM     12  C   UNL     1      -1.357  11.255  22.605  0.00  0.00    +0.000 A 
ATOM     13  C   UNL     1      -0.872  10.134  23.288  0.00  0.00    +0.000 A 
ATOM     14  C   UNL     1       0.143   9.340  22.721  0.00  0.00    +0.000 A 
BRANCH  12  15
ATOM     15  C   UNL     1      -2.390  12.073  23.189  0.00  0.00    +0.000 C 
ATOM     16  N   UNL     1      -3.228  12.726  23.642  0.00  0.00    +0.000 NA
ENDBRANCH  12  15
ENDBRANCH   8   9
ENDBRANCH   4   7
BRANCH   5  17
ATOM     17  O   UNL     1       2.281   5.709  20.902  0.00  0.00    +0.000 OA
ATOM     18  H   UNL     1       2.268   4.727  20.853  0.00  0.00    +0.000 HD
ENDBRANCH   5  17
BRANCH   1  19
ATOM     19  N   UNL     1       5.335   4.789  17.279  0.00  0.00    +0.000 N 
BRANCH  19  21
ATOM     20  C   UNL     1       5.951   4.765  14.862  0.00  0.00    +0.000 C 
ATOM     21  C   UNL     1       5.032   4.222  15.955  0.00  0.00    +0.000 C 
ENDBRANCH  19  21
BRANCH  19  22
ATOM     22  C   UNL     1       6.670   4.687  17.903  0.00  0.00    +0.000 C 
ATOM     23  C   UNL     1       7.486   5.948  18.112  0.00  0.00    +0.000 C 
ENDBRANCH  19  22
ENDBRANCH   1  19
TORSDOF 7
ENDMDL
MODEL 3
REMARK VINA RESULT:      -6.4      0.369      1.492
REMARK  Name = 
REMARK  9 active torsions:
REMARK  status: ('A' for Active; 'I' for Inactive)
REMARK    1  A    between atoms: C_1  and  C_2
REMARK    2  A    between atoms: C_2  and  N_3
REMARK    3  A    between atoms: N_3  and  C_4
REMARK    4  A    between atoms: N_3  and  C_6
REMARK    5  A    between atoms: C_4  and  C_5
REMARK    6  A    between atoms: C_9  and  C_10
REMARK    7  A    between atoms: N_11  and  C_12
REMARK    8  A    between atoms: C_15  and  C_16
REMARK    9  A    between atoms: C_20  and  O_21
REMARK                            x       y       z     vdW  Elec       q    Type
REMARK                         _______ _______ _______ _____ _____    ______ ____
ROOT
ATOM      1  C   UNL     1       4.542   5.654  17.433  0.00  0.00    +0.000 A 
ATOM      2  C   UNL     1       4.199   6.940  16.980  0.00  0.00    +0.000 A 
ATOM      3  C   UNL     1       3.284   7.759  17.658  0.00  0.00    +0.000 A 
ATOM      4  C   UNL     1       2.664   7.303  18.816  0.00  0.00    +0.000 A 
ATOM      5  C   UNL     1       2.979   6.039  19.301  0.00  0.00    +0.000 A 
ATOM      6  C   UNL     1       3.904   5.238  18.624  0.00  0.00    +0.000 A 
ENDROOT
BRANCH   4   7
ATOM      7  C   UNL     1       1.687   8.188  19.479  0.00  0.00    +0.000 C 
ATOM      8  N   UNL     1       1.706   8.392  20.760  0.00  0.00    +0.000 NA
BRANCH   8   9
ATOM      9  C   UNL     1       0.737   9.234  21.344  0.00  0.00    +0.000 A 
ATOM     10  C   UNL     1       0.387   9.200  22.703  0.00  0.00    +0.000 A 
ATOM     11  C   UNL     1      -0.565  10.083  23.230  0.00  0.00    +0.000 A 
ATOM     12  C   UNL     1      -1.167  11.044  22.414  0.00  0.00    +0.000 A 
ATOM     13  C   UNL     1      -0.806  11.111  21.065  0.00  0.00    +0.000 A 
ATOM     14  C   UNL     1       0.140  10.211  20.537  0.00  0.00    +0.000 A 
BRANCH  12  15
ATOM     15  C   UNL     1      -2.143  11.958  22.953  0.00  0.00    +0.000 C 
ATOM     16  N   UNL     1      -2.915  12.706  23.377  0.00  0.00    +0.000 NA
ENDBRANCH  12  15
ENDBRANCH   8   9
ENDBRANCH   4   7
BRANCH   5  17
ATOM     17  O   UNL     1       2.414   5.513  20.431  0.00  0.00    +0.000 OA
ATOM     18  H   UNL     1       1.458   5.385  20.239  0.00  0.00    +0.000 HD
ENDBRANCH   5  17
BRANCH   1  19
ATOM     19  N   UNL     1       5.449   4.826  16.741  0.00  0.00    +0.000 N 
BRANCH  19  21
ATOM     20  C   UNL     1       6.411   4.243  14.516  0.00  0.00    +0.000 C 
ATOM     21  C   UNL     1       5.152   4.389  15.368  0.00  0.00    +0.000 C 
ENDBRANCH  19  21
BRANCH  19  22
ATOM     22  C   UNL     1       6.773   4.635  17.370  0.00  0.00    +0.000 C 
ATOM     23  C   UNL     1       7.554   5.850  17.831  0.00  0.00    +0.000 C 
ENDBRANCH  19  22
ENDBRANCH   1  19
TORSDOF 7
ENDMDL
MODEL 4
REMARK VINA RESULT:      -6.4      1.051      2.060
REMARK  Name = 
REMARK  9 active torsions:
REMARK  status: ('A' for Active; 'I' for Inactive)
REMARK    1  A    between atoms: C_1  and  C_2
REMARK    2  A    between atoms: C_2  and  N_3
REMARK    3  A    between atoms: N_3  and  C_4
REMARK    4  A    between atoms: N_3  and  C_6
REMARK    5  A    between atoms: C_4  and  C_5
REMARK    6  A    between atoms: C_9  and  C_10
REMARK    7  A    between atoms: N_11  and  C_12
REMARK    8  A    between atoms: C_15  and  C_16
REMARK    9  A    between atoms: C_20  and  O_21
REMARK                            x       y       z     vdW  Elec       q    Type
REMARK                         _______ _______ _______ _____ _____    ______ ____
ROOT
ATOM      1  C   UNL     1       4.655   5.445  17.922  0.00  0.00    +0.000 A 
ATOM      2  C   UNL     1       4.196   5.055  19.193  0.00  0.00    +0.000 A 
ATOM      3  C   UNL     1       3.216   5.774  19.894  0.00  0.00    +0.000 A 
ATOM      4  C   UNL     1       2.671   6.929  19.343  0.00  0.00    +0.000 A 
ATOM      5  C   UNL     1       3.094   7.346  18.087  0.00  0.00    +0.000 A 
ATOM      6  C   UNL     1       4.061   6.613  17.392  0.00  0.00    +0.000 A 
ENDROOT
BRANCH   4   7
ATOM      7  C   UNL     1       1.664   7.668  20.129  0.00  0.00    +0.000 C 
ATOM      8  N   UNL     1       1.628   8.964  20.152  0.00  0.00    +0.000 NA
BRANCH   8   9
ATOM      9  C   UNL     1       0.655   9.619  20.934  0.00  0.00    +0.000 A 
ATOM     10  C   UNL     1       0.375   9.293  22.270  0.00  0.00    +0.000 A 
ATOM     11  C   UNL     1      -0.586  10.001  23.004  0.00  0.00    +0.000 A 
ATOM     12  C   UNL     1      -1.268  11.075  22.427  0.00  0.00    +0.000 A 
ATOM     13  C   UNL     1      -0.977  11.432  21.106  0.00  0.00    +0.000 A 
ATOM     14  C   UNL     1      -0.022  10.708  20.368  0.00  0.00    +0.000 A 
BRANCH  12  15
ATOM     15  C   UNL     1      -2.253  11.811  23.180  0.00  0.00    +0.000 C 
ATOM     16  N   UNL     1      -3.056  12.395  23.770  0.00  0.00    +0.000 NA
ENDBRANCH  12  15
ENDBRANCH   8   9
ENDBRANCH   4   7
BRANCH   5  17
ATOM     17  O   UNL     1       2.612   8.472  17.474  0.00  0.00    +0.000 OA
ATOM     18  H   UNL     1       2.140   8.176  16.664  0.00  0.00    +0.000 HD
ENDBRANCH   5  17
BRANCH   1  19
ATOM     19  N   UNL     1       5.653   4.731  17.228  0.00  0.00    +0.000 N 
BRANCH  19  21
ATOM     20  C   UNL     1       6.441   4.465  14.877  0.00  0.00    +0.000 C 
ATOM     21  C   UNL     1       5.363   4.144  15.911  0.00  0.00    +0.000 C 
ENDBRANCH  19  21
BRANCH  19  22
ATOM     22  C   UNL     1       7.022   4.816  17.779  0.00  0.00    +0.000 C 
ATOM     23  C   UNL     1       7.562   6.165  18.210  0.00  0.00    +0.000 C 
ENDBRANCH  19  22
ENDBRANCH   1  19
TORSDOF 7
ENDMDL
MODEL 5
REMARK VINA RESULT:      -6.2      1.278      2.357
REMARK  Name = 
REMARK  9 active torsions:
REMARK  status: ('A' for Active; 'I' for Inactive)
REMARK    1  A    between atoms: C_1  and  C_2
REMARK    2  A    between atoms: C_2  and  N_3
REMARK    3  A    between atoms: N_3  and  C_4
REMARK    4  A    between atoms: N_3  and  C_6
REMARK    5  A    between atoms: C_4  and  C_5
REMARK    6  A    between atoms: C_9  and  C_10
REMARK    7  A    between atoms: N_11  and  C_12
REMARK    8  A    between atoms: C_15  and  C_16
REMARK    9  A    between atoms: C_20  and  O_21
REMARK                            x       y       z     vdW  Elec       q    Type
REMARK                         _______ _______ _______ _____ _____    ______ ____
ROOT
ATOM      1  C   UNL     1       4.143   6.107  17.916  0.00  0.00    +0.000 A 
ATOM      2  C   UNL     1       3.662   5.702  19.174  0.00  0.00    +0.000 A 
ATOM      3  C   UNL     1       2.707   6.439  19.889  0.00  0.00    +0.000 A 
ATOM      4  C   UNL     1       2.209   7.628  19.367  0.00  0.00    +0.000 A 
ATOM      5  C   UNL     1       2.655   8.062  18.124  0.00  0.00    +0.000 A 
ATOM      6  C   UNL     1       3.597   7.311  17.414  0.00  0.00    +0.000 A 
ENDROOT
BRANCH   4   7
ATOM      7  C   UNL     1       1.227   8.384  20.168  0.00  0.00    +0.000 C 
ATOM      8  N   UNL     1       1.094   9.669  20.055  0.00  0.00    +0.000 NA
BRANCH   8   9
ATOM      9  C   UNL     1       0.152  10.345  20.858  0.00  0.00    +0.000 A 
ATOM     10  C   UNL     1      -0.689  11.365  20.387  0.00  0.00    +0.000 A 
ATOM     11  C   UNL     1      -1.626  11.980  21.230  0.00  0.00    +0.000 A 
ATOM     12  C   UNL     1      -1.765  11.564  22.557  0.00  0.00    +0.000 A 
ATOM     13  C   UNL     1      -0.955  10.527  23.031  0.00  0.00    +0.000 A 
ATOM     14  C   UNL     1      -0.005   9.923  22.185  0.00  0.00    +0.000 A 
BRANCH  12  15
ATOM     15  C   UNL     1      -2.731  12.190  23.425  0.00  0.00    +0.000 C 
ATOM     16  N   UNL     1      -3.507  12.705  24.109  0.00  0.00    +0.000 NA
ENDBRANCH  12  15
ENDBRANCH   8   9
ENDBRANCH   4   7
BRANCH   5  17
ATOM     17  O   UNL     1       2.220   9.221  17.540  0.00  0.00    +0.000 OA
ATOM     18  H   UNL     1       2.962   9.561  16.991  0.00  0.00    +0.000 HD
ENDBRANCH   5  17
BRANCH   1  19
ATOM     19  N   UNL     1       5.116   5.374  17.207  0.00  0.00    +0.000 N 
BRANCH  19  21
ATOM     20  C   UNL     1       5.518   4.358  14.966  0.00  0.00    +0.000 C 
ATOM     21  C   UNL     1       5.349   5.640  15.779  0.00  0.00    +0.000 C 
ENDBRANCH  19  21
BRANCH  19  22
ATOM     22  C   UNL     1       6.016   4.527  18.017  0.00  0.00    +0.000 C 
ATOM     23  C   UNL     1       7.516   4.714  17.892  0.00  0.00    +0.000 C 
ENDBRANCH  19  22
ENDBRANCH   1  19
TORSDOF 7
ENDMDL
MODEL 6
REMARK VINA RESULT:      -6.2      1.080      1.482
REMARK  Name = 
REMARK  9 active torsions:
REMARK  status: ('A' for Active; 'I' for Inactive)
REMARK    1  A    between atoms: C_1  and  C_2
REMARK    2  A    between atoms: C_2  and  N_3
REMARK    3  A    between atoms: N_3  and  C_4
REMARK    4  A    between atoms: N_3  and  C_6
REMARK    5  A    between atoms: C_4  and  C_5
REMARK    6  A    between atoms: C_9  and  C_10
REMARK    7  A    between atoms: N_11  and  C_12
REMARK    8  A    between atoms: C_15  and  C_16
REMARK    9  A    between atoms: C_20  and  O_21
REMARK                            x       y       z     vdW  Elec       q    Type
REMARK                         _______ _______ _______ _____ _____    ______ ____
ROOT
ATOM      1  C   UNL     1       4.338   5.759  18.049  0.00  0.00    +0.000 A 
ATOM      2  C   UNL     1       3.858   5.360  19.309  0.00  0.00    +0.000 A 
ATOM      3  C   UNL     1       2.875   6.080  20.004  0.00  0.00    +0.000 A 
ATOM      4  C   UNL     1       2.347   7.245  19.458  0.00  0.00    +0.000 A 
ATOM      5  C   UNL     1       2.791   7.672  18.212  0.00  0.00    +0.000 A 
ATOM      6  C   UNL     1       3.761   6.938  17.523  0.00  0.00    +0.000 A 
ENDROOT
BRANCH   4   7
ATOM      7  C   UNL     1       1.335   7.984  20.238  0.00  0.00    +0.000 C 
ATOM      8  N   UNL     1       1.335   9.279  20.307  0.00  0.00    +0.000 NA
BRANCH   8   9
ATOM      9  C   UNL     1       0.356   9.934  21.082  0.00  0.00    +0.000 A 
ATOM     10  C   UNL     1       0.043   9.586  22.405  0.00  0.00    +0.000 A 
ATOM     11  C   UNL     1      -0.923  10.295  23.133  0.00  0.00    +0.000 A 
ATOM     12  C   UNL     1      -1.577  11.391  22.562  0.00  0.00    +0.000 A 
ATOM     13  C   UNL     1      -1.253  11.768  21.255  0.00  0.00    +0.000 A 
ATOM     14  C   UNL     1      -0.293  11.044  20.523  0.00  0.00    +0.000 A 
BRANCH  12  15
ATOM     15  C   UNL     1      -2.567  12.126  23.309  0.00  0.00    +0.000 C 
ATOM     16  N   UNL     1      -3.351  12.712  23.923  0.00  0.00    +0.000 NA
ENDBRANCH  12  15
ENDBRANCH   8   9
ENDBRANCH   4   7
BRANCH   5  17
ATOM     17  O   UNL     1       2.326   8.808  17.605  0.00  0.00    +0.000 OA
ATOM     18  H   UNL     1       1.664   8.523  16.936  0.00  0.00    +0.000 HD
ENDBRANCH   5  17
BRANCH   1  19
ATOM     19  N   UNL     1       5.339   5.044  17.361  0.00  0.00    +0.000 N 
BRANCH  19  21
ATOM     20  C   UNL     1       7.522   5.932  18.174  0.00  0.00    +0.000 C 
ATOM     21  C   UNL     1       6.608   4.717  18.030  0.00  0.00    +0.000 C 
ENDBRANCH  19  21
BRANCH  19  22
ATOM     22  C   UNL     1       4.949   4.459  16.061  0.00  0.00    +0.000 C 
ATOM     23  C   UNL     1       5.715   4.855  14.813  0.00  0.00    +0.000 C 
ENDBRANCH  19  22
ENDBRANCH   1  19
TORSDOF 7
ENDMDL
MODEL 7
REMARK VINA RESULT:      -6.2      6.175      8.097
REMARK  Name = 
REMARK  9 active torsions:
REMARK  status: ('A' for Active; 'I' for Inactive)
REMARK    1  A    between atoms: C_1  and  C_2
REMARK    2  A    between atoms: C_2  and  N_3
REMARK    3  A    between atoms: N_3  and  C_4
REMARK    4  A    between atoms: N_3  and  C_6
REMARK    5  A    between atoms: C_4  and  C_5
REMARK    6  A    between atoms: C_9  and  C_10
REMARK    7  A    between atoms: N_11  and  C_12
REMARK    8  A    between atoms: C_15  and  C_16
REMARK    9  A    between atoms: C_20  and  O_21
REMARK                            x       y       z     vdW  Elec       q    Type
REMARK                         _______ _______ _______ _____ _____    ______ ____
ROOT
ATOM      1  C   UNL     1       6.057   5.278  17.094  0.00  0.00    +0.000 A 
ATOM      2  C   UNL     1       6.063   6.545  16.483  0.00  0.00    +0.000 A 
ATOM      3  C   UNL     1       6.869   7.598  16.940  0.00  0.00    +0.000 A 
ATOM      4  C   UNL     1       7.691   7.418  18.046  0.00  0.00    +0.000 A 
ATOM      5  C   UNL     1       7.718   6.180  18.677  0.00  0.00    +0.000 A 
ATOM      6  C   UNL     1       6.921   5.133  18.203  0.00  0.00    +0.000 A 
ENDROOT
BRANCH   4   7
ATOM      7  C   UNL     1       8.499   8.563  18.508  0.00  0.00    +0.000 C 
ATOM      8  N   UNL     1       8.315   9.762  18.049  0.00  0.00    +0.000 NA
BRANCH   8   9
ATOM      9  C   UNL     1       9.127  10.817  18.512  0.00  0.00    +0.000 A 
ATOM     10  C   UNL     1       9.969  10.724  19.632  0.00  0.00    +0.000 A 
ATOM     11  C   UNL     1      10.774  11.801  20.026  0.00  0.00    +0.000 A 
ATOM     12  C   UNL     1      10.780  12.988  19.289  0.00  0.00    +0.000 A 
ATOM     13  C   UNL     1       9.970  13.084  18.153  0.00  0.00    +0.000 A 
ATOM     14  C   UNL     1       9.151  12.005  17.770  0.00  0.00    +0.000 A 
BRANCH  12  15
ATOM     15  C   UNL     1      11.611  14.096  19.688  0.00  0.00    +0.000 C 
ATOM     16  N   UNL     1      12.283  14.987  19.989  0.00  0.00    +0.000 NA
ENDBRANCH  12  15
ENDBRANCH   8   9
ENDBRANCH   4   7
BRANCH   5  17
ATOM     17  O   UNL     1       8.496   5.918  19.773  0.00  0.00    +0.000 OA
ATOM     18  H   UNL     1       8.060   5.187  20.265  0.00  0.00    +0.000 HD
ENDBRANCH   5  17
BRANCH   1  19
ATOM     19  N   UNL     1       5.233   4.227  16.644  0.00  0.00    +0.000 N 
BRANCH  19  21
ATOM     20  C   UNL     1       3.183   4.194  18.063  0.00  0.00    +0.000 C 
ATOM     21  C   UNL     1       4.435   3.448  17.604  0.00  0.00    +0.000 C 
ENDBRANCH  19  21
BRANCH  19  22
ATOM     22  C   UNL     1       5.047   4.121  15.181  0.00  0.00    +0.000 C 
ATOM     23  C   UNL     1       6.236   3.768  14.309  0.00  0.00    +0.000 C 
ENDBRANCH  19  22
ENDBRANCH   1  19
TORSDOF 7
ENDMDL
MODEL 8
REMARK VINA RESULT:      -6.2      5.905      8.232
REMARK  Name = 
REMARK  9 active torsions:
REMARK  status: ('A' for Active; 'I' for Inactive)
REMARK    1  A    between atoms: C_1  and  C_2
REMARK    2  A    between atoms: C_2  and  N_3
REMARK    3  A    between atoms: N_3  and  C_4
REMARK    4  A    between atoms: N_3  and  C_6
REMARK    5  A    between atoms: C_4  and  C_5
REMARK    6  A    between atoms: C_9  and  C_10
REMARK    7  A    between atoms: N_11  and  C_12
REMARK    8  A    between atoms: C_15  and  C_16
REMARK    9  A    between atoms: C_20  and  O_21
REMARK                            x       y       z     vdW  Elec       q    Type
REMARK                         _______ _______ _______ _____ _____    ______ ____
ROOT
ATOM      1  C   UNL     1       5.291   5.051  17.927  0.00  0.00    +0.000 A 
ATOM      2  C   UNL     1       5.052   6.110  17.033  0.00  0.00    +0.000 A 
ATOM      3  C   UNL     1       5.910   7.215  16.927  0.00  0.00    +0.000 A 
ATOM      4  C   UNL     1       7.038   7.302  17.735  0.00  0.00    +0.000 A 
ATOM      5  C   UNL     1       7.313   6.274  18.630  0.00  0.00    +0.000 A 
ATOM      6  C   UNL     1       6.458   5.171  18.716  0.00  0.00    +0.000 A 
ENDROOT
BRANCH   4   7
ATOM      7  C   UNL     1       7.896   8.496  17.609  0.00  0.00    +0.000 C 
ATOM      8  N   UNL     1       8.168   9.255  18.624  0.00  0.00    +0.000 NA
BRANCH   8   9
ATOM      9  C   UNL     1       8.979  10.395  18.444  0.00  0.00    +0.000 A 
ATOM     10  C   UNL     1       8.619  11.493  17.647  0.00  0.00    +0.000 A 
ATOM     11  C   UNL     1       9.458  12.610  17.529  0.00  0.00    +0.000 A 
ATOM     12  C   UNL     1      10.664  12.667  18.233  0.00  0.00    +0.000 A 
ATOM     13  C   UNL     1      11.021  11.594  19.055  0.00  0.00    +0.000 A 
ATOM     14  C   UNL     1      10.182  10.467  19.158  0.00  0.00    +0.000 A 
BRANCH  12  15
ATOM     15  C   UNL     1      11.527  13.817  18.120  0.00  0.00    +0.000 C 
ATOM     16  N   UNL     1      12.208  14.746  18.043  0.00  0.00    +0.000 NA
ENDBRANCH  12  15
ENDBRANCH   8   9
ENDBRANCH   4   7
BRANCH   5  17
ATOM     17  O   UNL     1       8.399   6.282  19.463  0.00  0.00    +0.000 OA
ATOM     18  H   UNL     1       8.070   6.524  20.358  0.00  0.00    +0.000 HD
ENDBRANCH   5  17
BRANCH   1  19
ATOM     19  N   UNL     1       4.418   3.951  18.045  0.00  0.00    +0.000 N 
BRANCH  19  21
ATOM     20  C   UNL     1       3.806   1.699  18.924  0.00  0.00    +0.000 C 
ATOM     21  C   UNL     1       4.568   3.002  19.159  0.00  0.00    +0.000 C 
ENDBRANCH  19  21
BRANCH  19  22
ATOM     22  C   UNL     1       3.241   3.950  17.150  0.00  0.00    +0.000 C 
ATOM     23  C   UNL     1       1.911   4.448  17.680  0.00  0.00    +0.000 C 
ENDBRANCH  19  22
ENDBRANCH   1  19
TORSDOF 7
ENDMDL
MODEL 9
REMARK VINA RESULT:      -6.2      1.771      2.606
REMARK  Name = 
REMARK  9 active torsions:
REMARK  status: ('A' for Active; 'I' for Inactive)
REMARK    1  A    between atoms: C_1  and  C_2
REMARK    2  A    between atoms: C_2  and  N_3
REMARK    3  A    between atoms: N_3  and  C_4
REMARK    4  A    between atoms: N_3  and  C_6
REMARK    5  A    between atoms: C_4  and  C_5
REMARK    6  A    between atoms: C_9  and  C_10
REMARK    7  A    between atoms: N_11  and  C_12
REMARK    8  A    between atoms: C_15  and  C_16
REMARK    9  A    between atoms: C_20  and  O_21
REMARK                            x       y       z     vdW  Elec       q    Type
REMARK                         _______ _______ _______ _____ _____    ______ ____
ROOT
ATOM      1  C   UNL     1       3.174   4.999  18.580  0.00  0.00    +0.000 A 
ATOM      2  C   UNL     1       2.598   4.854  19.854  0.00  0.00    +0.000 A 
ATOM      3  C   UNL     1       2.001   5.924  20.538  0.00  0.00    +0.000 A 
ATOM      4  C   UNL     1       1.976   7.191  19.965  0.00  0.00    +0.000 A 
ATOM      5  C   UNL     1       2.531   7.376  18.703  0.00  0.00    +0.000 A 
ATOM      6  C   UNL     1       3.110   6.298  18.026  0.00  0.00    +0.000 A 
ENDROOT
BRANCH   4   7
ATOM      7  C   UNL     1       1.363   8.292  20.733  0.00  0.00    +0.000 C 
ATOM      8  N   UNL     1       0.830   9.320  20.150  0.00  0.00    +0.000 NA
BRANCH   8   9
ATOM      9  C   UNL     1       0.273  10.352  20.933  0.00  0.00    +0.000 A 
ATOM     10  C   UNL     1       0.245  11.701  20.545  0.00  0.00    +0.000 A 
ATOM     11  C   UNL     1      -0.349  12.678  21.356  0.00  0.00    +0.000 A 
ATOM     12  C   UNL     1      -0.956  12.322  22.563  0.00  0.00    +0.000 A 
ATOM     13  C   UNL     1      -0.962  10.977  22.949  0.00  0.00    +0.000 A 
ATOM     14  C   UNL     1      -0.352  10.002  22.137  0.00  0.00    +0.000 A 
BRANCH  12  15
ATOM     15  C   UNL     1      -1.572  13.322  23.399  0.00  0.00    +0.000 C 
ATOM     16  N   UNL     1      -2.082  14.123  24.058  0.00  0.00    +0.000 NA
ENDBRANCH  12  15
ENDBRANCH   8   9
ENDBRANCH   4   7
BRANCH   5  17
ATOM     17  O   UNL     1       2.551   8.589  18.069  0.00  0.00    +0.000 OA
ATOM     18  H   UNL     1       3.336   8.588  17.476  0.00  0.00    +0.000 HD
ENDBRANCH   5  17
BRANCH   1  19
ATOM     19  N   UNL     1       3.789   3.926  17.903  0.00  0.00    +0.000 N 
BRANCH  19  21
ATOM     20  C   UNL     1       3.564   1.490  18.387  0.00  0.00    +0.000 C 
ATOM     21  C   UNL     1       3.030   2.697  17.619  0.00  0.00    +0.000 C 
ENDBRANCH  19  21
BRANCH  19  22
ATOM     22  C   UNL     1       5.114   4.200  17.309  0.00  0.00    +0.000 C 
ATOM     23  C   UNL     1       5.285   4.095  15.806  0.00  0.00    +0.000 C 
ENDBRANCH  19  22
ENDBRANCH   1  19
TORSDOF 7
ENDMDL
