MODEL 1
REMARK VINA RESULT:      -7.1      0.000      0.000
REMARK  Name = 
REMARK  6 active torsions:
REMARK  status: ('A' for Active; 'I' for Inactive)
REMARK    1  A    between atoms: N_3  and  C_4
REMARK    2  A    between atoms: C_4  and  C_5
REMARK    3  A    between atoms: C_14  and  C_15
REMARK    4  A    between atoms: C_17  and  O_18
REMARK    5  A    between atoms: C_19  and  C_20
REMARK    6  A    between atoms: C_20  and  O_21
REMARK                            x       y       z     vdW  Elec       q    Type
REMARK                         _______ _______ _______ _____ _____    ______ ____
ROOT
ATOM      1  O   UNL     1       8.163   5.688  14.424  0.00  0.00    +0.000 OA
ATOM      2  C   UNL     1       7.063   5.313  14.825  0.00  0.00    +0.000 C 
ATOM      3  N   UNL     1       6.351   4.347  14.188  0.00  0.00    +0.000 N 
ATOM      4  N   UNL     1       6.481   5.969  15.867  0.00  0.00    +0.000 N 
ATOM      5  C   UNL     1       5.307   5.715  16.520  0.00  0.00    +0.000 A 
ATOM      6  N   UNL     1       4.655   6.592  17.252  0.00  0.00    +0.000 NA
ATOM      7  N   UNL     1       3.468   6.076  17.743  0.00  0.00    +0.000 NA
ATOM      8  C   UNL     1       3.306   4.805  17.427  0.00  0.00    +0.000 A 
ATOM      9  S   UNL     1       4.623   4.157  16.542  0.00  0.00    +0.000 S 
ATOM     10  H   UNL     1       5.591   3.884  14.663  0.00  0.00    +0.000 HD
ATOM     11  H   UNL     1       6.930   6.839  16.107  0.00  0.00    +0.000 HD
ENDROOT
BRANCH   8  12
ATOM     12  C   UNL     1       2.125   3.966  17.807  0.00  0.00    +0.000 C 
ATOM     13  C   UNL     1       2.497   2.560  18.249  0.00  0.00    +0.000 C 
ATOM     14  C   UNL     1       1.386   2.221  19.218  0.00  0.00    +0.000 C 
ATOM     15  C   UNL     1       1.073   3.560  19.882  0.00  0.00    +0.000 C 
ATOM     16  O   UNL     1       1.415   4.576  18.912  0.00  0.00    +0.000 OA
BRANCH  14  17
ATOM     17  O   UNL     1       0.262   1.734  18.483  0.00  0.00    +0.000 OA
ATOM     18  H   UNL     1      -0.180   1.033  18.995  0.00  0.00    +0.000 HD
ENDBRANCH  14  17
BRANCH  15  19
ATOM     19  C   UNL     1       1.886   3.789  21.161  0.00  0.00    +0.000 C 
BRANCH  19  20
ATOM     20  O   UNL     1       2.515   5.069  21.141  0.00  0.00    +0.000 OA
ATOM     21  H   UNL     1       2.058   5.617  21.806  0.00  0.00    +0.000 HD
ENDBRANCH  19  20
ENDBRANCH  15  19
ENDBRANCH   8  12
BRANCH   3  22
ATOM     22  C   UNL     1       6.863   3.664  13.027  0.00  0.00    +0.000 C 
BRANCH  22  23
ATOM     23  C   UNL     1       5.723   3.228  12.180  0.00  0.00    +0.000 A 
ATOM     24  C   UNL     1       5.507   2.098  11.415  0.00  0.00    +0.000 A 
ATOM     25  C   UNL     1       4.199   2.212  10.890  0.00  0.00    +0.000 A 
ATOM     26  C   UNL     1       3.705   3.412  11.344  0.00  0.00    +0.000 A 
ATOM     27  O   UNL     1       4.628   4.044  12.122  0.00  0.00    +0.000 OA
ENDBRANCH  22  23
ENDBRANCH   3  22
TORSDOF 6
ENDMDL
MODEL 2
REMARK VINA RESULT:      -7.0      1.482      1.933
REMARK  Name = 
REMARK  6 active torsions:
REMARK  status: ('A' for Active; 'I' for Inactive)
REMARK    1  A    between atoms: N_3  and  C_4
REMARK    2  A    between atoms: C_4  and  C_5
REMARK    3  A    between atoms: C_14  and  C_15
REMARK    4  A    between atoms: C_17  and  O_18
REMARK    5  A    between atoms: C_19  and  C_20
REMARK    6  A    between atoms: C_20  and  O_21
REMARK                            x       y       z     vdW  Elec       q    Type
REMARK                         _______ _______ _______ _____ _____    ______ ____
ROOT
ATOM      1  O   UNL     1       7.789   7.271  16.453  0.00  0.00    +0.000 OA
ATOM      2  C   UNL     1       6.738   6.648  16.585  0.00  0.00    +0.000 C 
ATOM      3  N   UNL     1       6.498   5.484  15.927  0.00  0.00    +0.000 N 
ATOM      4  N   UNL     1       5.731   7.199  17.319  0.00  0.00    +0.000 N 
ATOM      5  C   UNL     1       4.507   6.690  17.653  0.00  0.00    +0.000 A 
ATOM      6  N   UNL     1       3.478   7.413  18.040  0.00  0.00    +0.000 NA
ATOM      7  N   UNL     1       2.352   6.638  18.255  0.00  0.00    +0.000 NA
ATOM      8  C   UNL     1       2.594   5.350  18.097  0.00  0.00    +0.000 A 
ATOM      9  S   UNL     1       4.230   5.012  17.714  0.00  0.00    +0.000 S 
ATOM     10  H   UNL     1       5.759   4.872  16.236  0.00  0.00    +0.000 HD
ATOM     11  H   UNL     1       5.870   8.172  17.543  0.00  0.00    +0.000 HD
ENDROOT
BRANCH   8  12
ATOM     12  C   UNL     1       1.582   4.257  18.255  0.00  0.00    +0.000 C 
ATOM     13  C   UNL     1       2.139   2.870  17.981  0.00  0.00    +0.000 C 
ATOM     14  C   UNL     1       1.282   1.995  18.869  0.00  0.00    +0.000 C 
ATOM     15  C   UNL     1       1.016   2.876  20.086  0.00  0.00    +0.000 C 
ATOM     16  O   UNL     1       1.074   4.241  19.612  0.00  0.00    +0.000 OA
BRANCH  14  17
ATOM     17  O   UNL     1       0.069   1.685  18.181  0.00  0.00    +0.000 OA
ATOM     18  H   UNL     1       0.224   0.942  17.570  0.00  0.00    +0.000 HD
ENDBRANCH  14  17
BRANCH  15  19
ATOM     19  C   UNL     1       2.058   2.682  21.194  0.00  0.00    +0.000 C 
BRANCH  19  20
ATOM     20  O   UNL     1       1.429   2.556  22.468  0.00  0.00    +0.000 OA
ATOM     21  H   UNL     1       2.060   2.089  23.047  0.00  0.00    +0.000 HD
ENDBRANCH  19  20
ENDBRANCH  15  19
ENDBRANCH   8  12
BRANCH   3  22
ATOM     22  C   UNL     1       7.482   4.880  15.065  0.00  0.00    +0.000 C 
BRANCH  22  23
ATOM     23  C   UNL     1       6.797   4.286  13.888  0.00  0.00    +0.000 A 
ATOM     24  C   UNL     1       5.530   3.766  13.710  0.00  0.00    +0.000 A 
ATOM     25  C   UNL     1       5.429   3.414  12.345  0.00  0.00    +0.000 A 
ATOM     26  C   UNL     1       6.644   3.716  11.777  0.00  0.00    +0.000 A 
ATOM     27  O   UNL     1       7.489   4.239  12.710  0.00  0.00    +0.000 OA
ENDBRANCH  22  23
ENDBRANCH   3  22
TORSDOF 6
ENDMDL
MODEL 3
REMARK VINA RESULT:      -7.0      1.314      1.520
REMARK  Name = 
REMARK  6 active torsions:
REMARK  status: ('A' for Active; 'I' for Inactive)
REMARK    1  A    between atoms: N_3  and  C_4
REMARK    2  A    between atoms: C_4  and  C_5
REMARK    3  A    between atoms: C_14  and  C_15
REMARK    4  A    between atoms: C_17  and  O_18
REMARK    5  A    between atoms: C_19  and  C_20
REMARK    6  A    between atoms: C_20  and  O_21
REMARK                            x       y       z     vdW  Elec       q    Type
REMARK                         _______ _______ _______ _____ _____    ______ ____
ROOT
ATOM      1  O   UNL     1       8.106   5.510  13.711  0.00  0.00    +0.000 OA
ATOM      2  C   UNL     1       7.090   5.203  14.333  0.00  0.00    +0.000 C 
ATOM      3  N   UNL     1       6.296   4.168  13.955  0.00  0.00    +0.000 N 
ATOM      4  N   UNL     1       6.680   5.996  15.360  0.00  0.00    +0.000 N 
ATOM      5  C   UNL     1       5.632   5.843  16.225  0.00  0.00    +0.000 A 
ATOM      6  N   UNL     1       5.098   6.816  16.931  0.00  0.00    +0.000 NA
ATOM      7  N   UNL     1       4.014   6.381  17.674  0.00  0.00    +0.000 NA
ATOM      8  C   UNL     1       3.818   5.081  17.560  0.00  0.00    +0.000 A 
ATOM      9  S   UNL     1       4.979   4.308  16.564  0.00  0.00    +0.000 S 
ATOM     10  H   UNL     1       5.629   3.779  14.605  0.00  0.00    +0.000 HD
ATOM     11  H   UNL     1       7.151   6.887  15.406  0.00  0.00    +0.000 HD
ENDROOT
BRANCH   8  12
ATOM     12  C   UNL     1       2.725   4.312  18.235  0.00  0.00    +0.000 C 
ATOM     13  C   UNL     1       2.372   3.013  17.529  0.00  0.00    +0.000 C 
ATOM     14  C   UNL     1       1.892   2.144  18.670  0.00  0.00    +0.000 C 
ATOM     15  C   UNL     1       2.766   2.581  19.842  0.00  0.00    +0.000 C 
ATOM     16  O   UNL     1       3.123   3.958  19.582  0.00  0.00    +0.000 OA
BRANCH  14  17
ATOM     17  O   UNL     1       0.514   2.426  18.921  0.00  0.00    +0.000 OA
ATOM     18  H   UNL     1       0.414   3.366  19.154  0.00  0.00    +0.000 HD
ENDBRANCH  14  17
BRANCH  15  19
ATOM     19  C   UNL     1       4.045   1.744  19.969  0.00  0.00    +0.000 C 
BRANCH  19  20
ATOM     20  O   UNL     1       5.205   2.568  19.863  0.00  0.00    +0.000 OA
ATOM     21  H   UNL     1       5.935   1.989  19.576  0.00  0.00    +0.000 HD
ENDBRANCH  19  20
ENDBRANCH  15  19
ENDBRANCH   8  12
BRANCH   3  22
ATOM     22  C   UNL     1       6.618   3.332  12.826  0.00  0.00    +0.000 C 
BRANCH  22  23
ATOM     23  C   UNL     1       5.401   3.152  11.992  0.00  0.00    +0.000 A 
ATOM     24  C   UNL     1       4.353   3.994  11.679  0.00  0.00    +0.000 A 
ATOM     25  C   UNL     1       3.523   3.284  10.781  0.00  0.00    +0.000 A 
ATOM     26  C   UNL     1       4.100   2.047  10.619  0.00  0.00    +0.000 A 
ATOM     27  O   UNL     1       5.239   1.952  11.360  0.00  0.00    +0.000 OA
ENDBRANCH  22  23
ENDBRANCH   3  22
TORSDOF 6
ENDMDL
MODEL 4
REMARK VINA RESULT:      -6.7      4.692      7.970
REMARK  Name = 
REMARK  6 active torsions:
REMARK  status: ('A' for Active; 'I' for Inactive)
REMARK    1  A    between atoms: N_3  and  C_4
REMARK    2  A    between atoms: C_4  and  C_5
REMARK    3  A    between atoms: C_14  and  C_15
REMARK    4  A    between atoms: C_17  and  O_18
REMARK    5  A    between atoms: C_19  and  C_20
REMARK    6  A    between atoms: C_20  and  O_21
REMARK                            x       y       z     vdW  Elec       q    Type
REMARK                         _______ _______ _______ _____ _____    ______ ____
ROOT
ATOM      1  O   UNL     1       0.703   9.614  21.387  0.00  0.00    +0.000 OA
ATOM      2  C   UNL     1       1.190   8.927  20.491  0.00  0.00    +0.000 C 
ATOM      3  N   UNL     1       1.241   9.350  19.201  0.00  0.00    +0.000 N 
ATOM      4  N   UNL     1       1.580   7.653  20.773  0.00  0.00    +0.000 N 
ATOM      5  C   UNL     1       2.188   6.723  19.977  0.00  0.00    +0.000 A 
ATOM      6  N   UNL     1       2.194   5.428  20.210  0.00  0.00    +0.000 NA
ATOM      7  N   UNL     1       2.834   4.724  19.206  0.00  0.00    +0.000 NA
ATOM      8  C   UNL     1       3.354   5.519  18.290  0.00  0.00    +0.000 A 
ATOM      9  S   UNL     1       3.123   7.182  18.630  0.00  0.00    +0.000 S 
ATOM     10  H   UNL     1       1.859   8.896  18.545  0.00  0.00    +0.000 HD
ATOM     11  H   UNL     1       1.261   7.313  21.667  0.00  0.00    +0.000 HD
ENDROOT
BRANCH   8  12
ATOM     12  C   UNL     1       4.104   5.062  17.077  0.00  0.00    +0.000 C 
ATOM     13  C   UNL     1       4.862   6.177  16.377  0.00  0.00    +0.000 C 
ATOM     14  C   UNL     1       6.027   5.437  15.757  0.00  0.00    +0.000 C 
ATOM     15  C   UNL     1       6.332   4.339  16.771  0.00  0.00    +0.000 C 
ATOM     16  O   UNL     1       5.083   4.060  17.445  0.00  0.00    +0.000 OA
BRANCH  14  17
ATOM     17  O   UNL     1       5.612   4.884  14.506  0.00  0.00    +0.000 OA
ATOM     18  H   UNL     1       6.358   4.900  13.881  0.00  0.00    +0.000 HD
ENDBRANCH  14  17
BRANCH  15  19
ATOM     19  C   UNL     1       7.378   4.767  17.808  0.00  0.00    +0.000 C 
BRANCH  19  20
ATOM     20  O   UNL     1       6.849   4.683  19.130  0.00  0.00    +0.000 OA
ATOM     21  H   UNL     1       6.254   5.448  19.243  0.00  0.00    +0.000 HD
ENDBRANCH  19  20
ENDBRANCH  15  19
ENDBRANCH   8  12
BRANCH   3  22
ATOM     22  C   UNL     1       0.770  10.654  18.808  0.00  0.00    +0.000 C 
BRANCH  22  23
ATOM     23  C   UNL     1      -0.635  10.541  18.339  0.00  0.00    +0.000 A 
ATOM     24  C   UNL     1      -1.250   9.705  17.429  0.00  0.00    +0.000 A 
ATOM     25  C   UNL     1      -2.627  10.025  17.457  0.00  0.00    +0.000 A 
ATOM     26  C   UNL     1      -2.766  11.051  18.361  0.00  0.00    +0.000 A 
ATOM     27  O   UNL     1      -1.558  11.380  18.898  0.00  0.00    +0.000 OA
ENDBRANCH  22  23
ENDBRANCH   3  22
TORSDOF 6
ENDMDL
MODEL 5
REMARK VINA RESULT:      -6.7      4.325      7.722
REMARK  Name = 
REMARK  6 active torsions:
REMARK  status: ('A' for Active; 'I' for Inactive)
REMARK    1  A    between atoms: N_3  and  C_4
REMARK    2  A    between atoms: C_4  and  C_5
REMARK    3  A    between atoms: C_14  and  C_15
REMARK    4  A    between atoms: C_17  and  O_18
REMARK    5  A    between atoms: C_19  and  C_20
REMARK    6  A    between atoms: C_20  and  O_21
REMARK                            x       y       z     vdW  Elec       q    Type
REMARK                         _______ _______ _______ _____ _____    ______ ____
ROOT
ATOM      1  O   UNL     1       0.658   9.015  21.432  0.00  0.00    +0.000 OA
ATOM      2  C   UNL     1       1.269   8.238  20.700  0.00  0.00    +0.000 C 
ATOM      3  N   UNL     1       1.690   8.593  19.458  0.00  0.00    +0.000 N 
ATOM      4  N   UNL     1       1.425   6.944  21.095  0.00  0.00    +0.000 N 
ATOM      5  C   UNL     1       2.099   5.918  20.494  0.00  0.00    +0.000 A 
ATOM      6  N   UNL     1       1.896   4.642  20.745  0.00  0.00    +0.000 NA
ATOM      7  N   UNL     1       2.678   3.826  19.947  0.00  0.00    +0.000 NA
ATOM      8  C   UNL     1       3.500   4.517  19.179  0.00  0.00    +0.000 A 
ATOM      9  S   UNL     1       3.387   6.209  19.420  0.00  0.00    +0.000 S 
ATOM     10  H   UNL     1       2.394   8.045  18.987  0.00  0.00    +0.000 HD
ATOM     11  H   UNL     1       0.855   6.683  21.884  0.00  0.00    +0.000 HD
ENDROOT
BRANCH   8  12
ATOM     12  C   UNL     1       4.470   3.925  18.203  0.00  0.00    +0.000 C 
ATOM     13  C   UNL     1       4.282   4.427  16.782  0.00  0.00    +0.000 C 
ATOM     14  C   UNL     1       5.683   4.334  16.217  0.00  0.00    +0.000 C 
ATOM     15  C   UNL     1       6.571   4.661  17.414  0.00  0.00    +0.000 C 
ATOM     16  O   UNL     1       5.827   4.256  18.586  0.00  0.00    +0.000 OA
BRANCH  14  17
ATOM     17  O   UNL     1       5.909   3.000  15.756  0.00  0.00    +0.000 OA
ATOM     18  H   UNL     1       5.065   2.612  15.464  0.00  0.00    +0.000 HD
ENDBRANCH  14  17
BRANCH  15  19
ATOM     19  C   UNL     1       6.896   6.157  17.516  0.00  0.00    +0.000 C 
BRANCH  19  20
ATOM     20  O   UNL     1       7.679   6.583  16.402  0.00  0.00    +0.000 OA
ATOM     21  H   UNL     1       8.413   7.114  16.762  0.00  0.00    +0.000 HD
ENDBRANCH  19  20
ENDBRANCH  15  19
ENDBRANCH   8  12
BRANCH   3  22
ATOM     22  C   UNL     1       1.487   9.920  18.936  0.00  0.00    +0.000 C 
BRANCH  22  23
ATOM     23  C   UNL     1       0.075  10.058  18.496  0.00  0.00    +0.000 A 
ATOM     24  C   UNL     1      -1.001  10.751  19.015  0.00  0.00    +0.000 A 
ATOM     25  C   UNL     1      -2.075  10.558  18.115  0.00  0.00    +0.000 A 
ATOM     26  C   UNL     1      -1.599   9.742  17.116  0.00  0.00    +0.000 A 
ATOM     27  O   UNL     1      -0.294   9.422  17.343  0.00  0.00    +0.000 OA
ENDBRANCH  22  23
ENDBRANCH   3  22
TORSDOF 6
ENDMDL
MODEL 6
REMARK VINA RESULT:      -6.7      1.276      1.490
REMARK  Name = 
REMARK  6 active torsions:
REMARK  status: ('A' for Active; 'I' for Inactive)
REMARK    1  A    between atoms: N_3  and  C_4
REMARK    2  A    between atoms: C_4  and  C_5
REMARK    3  A    between atoms: C_14  and  C_15
REMARK    4  A    between atoms: C_17  and  O_18
REMARK    5  A    between atoms: C_19  and  C_20
REMARK    6  A    between atoms: C_20  and  O_21
REMARK                            x       y       z     vdW  Elec       q    Type
REMARK                         _______ _______ _______ _____ _____    ______ ____
ROOT
ATOM      1  O   UNL     1       8.841   5.851  13.790  0.00  0.00    +0.000 OA
ATOM      2  C   UNL     1       7.753   5.497  14.241  0.00  0.00    +0.000 C 
ATOM      3  N   UNL     1       6.793   4.937  13.460  0.00  0.00    +0.000 N 
ATOM      4  N   UNL     1       7.450   5.786  15.537  0.00  0.00    +0.000 N 
ATOM      5  C   UNL     1       6.346   5.460  16.275  0.00  0.00    +0.000 A 
ATOM      6  N   UNL     1       5.974   6.077  17.376  0.00  0.00    +0.000 NA
ATOM      7  N   UNL     1       4.788   5.571  17.877  0.00  0.00    +0.000 NA
ATOM      8  C   UNL     1       4.348   4.541  17.179  0.00  0.00    +0.000 A 
ATOM      9  S   UNL     1       5.389   4.107  15.889  0.00  0.00    +0.000 S 
ATOM     10  H   UNL     1       6.029   4.432  13.882  0.00  0.00    +0.000 HD
ATOM     11  H   UNL     1       8.082   6.440  15.971  0.00  0.00    +0.000 HD
ENDROOT
BRANCH   8  12
ATOM     12  C   UNL     1       3.091   3.779  17.466  0.00  0.00    +0.000 C 
ATOM     13  C   UNL     1       3.322   2.505  18.261  0.00  0.00    +0.000 C 
ATOM     14  C   UNL     1       2.023   2.357  19.021  0.00  0.00    +0.000 C 
ATOM     15  C   UNL     1       1.613   3.799  19.308  0.00  0.00    +0.000 C 
ATOM     16  O   UNL     1       2.180   4.595  18.243  0.00  0.00    +0.000 OA
BRANCH  14  17
ATOM     17  O   UNL     1       1.067   1.706  18.183  0.00  0.00    +0.000 OA
ATOM     18  H   UNL     1       0.189   2.105  18.322  0.00  0.00    +0.000 HD
ENDBRANCH  14  17
BRANCH  15  19
ATOM     19  C   UNL     1       2.143   4.307  20.654  0.00  0.00    +0.000 C 
BRANCH  19  20
ATOM     20  O   UNL     1       2.414   5.707  20.599  0.00  0.00    +0.000 OA
ATOM     21  H   UNL     1       2.013   6.037  19.773  0.00  0.00    +0.000 HD
ENDBRANCH  19  20
ENDBRANCH  15  19
ENDBRANCH   8  12
BRANCH   3  22
ATOM     22  C   UNL     1       7.007   4.676  12.059  0.00  0.00    +0.000 C 
BRANCH  22  23
ATOM     23  C   UNL     1       6.602   3.279  11.758  0.00  0.00    +0.000 A 
ATOM     24  C   UNL     1       5.380   2.637  11.781  0.00  0.00    +0.000 A 
ATOM     25  C   UNL     1       5.610   1.319  11.325  0.00  0.00    +0.000 A 
ATOM     26  C   UNL     1       6.959   1.227  11.075  0.00  0.00    +0.000 A 
ATOM     27  O   UNL     1       7.575   2.412  11.344  0.00  0.00    +0.000 OA
ENDBRANCH  22  23
ENDBRANCH   3  22
TORSDOF 6
ENDMDL
MODEL 7
REMARK VINA RESULT:      -6.7      5.125      7.517
REMARK  Name = 
REMARK  6 active torsions:
REMARK  status: ('A' for Active; 'I' for Inactive)
REMARK    1  A    between atoms: N_3  and  C_4
REMARK    2  A    between atoms: C_4  and  C_5
REMARK    3  A    between atoms: C_14  and  C_15
REMARK    4  A    between atoms: C_17  and  O_18
REMARK    5  A    between atoms: C_19  and  C_20
REMARK    6  A    between atoms: C_20  and  O_21
REMARK                            x       y       z     vdW  Elec       q    Type
REMARK                         _______ _______ _______ _____ _____    ______ ____
ROOT
ATOM      1  O   UNL     1       4.628   5.236  16.899  0.00  0.00    +0.000 OA
ATOM      2  C   UNL     1       3.729   5.860  17.460  0.00  0.00    +0.000 C 
ATOM      3  N   UNL     1       2.706   5.238  18.100  0.00  0.00    +0.000 N 
ATOM      4  N   UNL     1       3.689   7.215  17.334  0.00  0.00    +0.000 N 
ATOM      5  C   UNL     1       2.837   8.125  17.895  0.00  0.00    +0.000 A 
ATOM      6  N   UNL     1       2.641   9.344  17.441  0.00  0.00    +0.000 NA
ATOM      7  N   UNL     1       1.679  10.021  18.171  0.00  0.00    +0.000 NA
ATOM      8  C   UNL     1       1.242   9.315  19.197  0.00  0.00    +0.000 A 
ATOM      9  S   UNL     1       2.014   7.793  19.348  0.00  0.00    +0.000 S 
ATOM     10  H   UNL     1       2.134   5.749  18.756  0.00  0.00    +0.000 HD
ATOM     11  H   UNL     1       4.306   7.581  16.625  0.00  0.00    +0.000 HD
ENDROOT
BRANCH   8  12
ATOM     12  C   UNL     1       0.200   9.768  20.173  0.00  0.00    +0.000 C 
ATOM     13  C   UNL     1       0.685  10.854  21.118  0.00  0.00    +0.000 C 
ATOM     14  C   UNL     1      -0.587  11.615  21.419  0.00  0.00    +0.000 C 
ATOM     15  C   UNL     1      -1.368  11.533  20.110  0.00  0.00    +0.000 C 
ATOM     16  O   UNL     1      -0.942  10.310  19.466  0.00  0.00    +0.000 OA
BRANCH  14  17
ATOM     17  O   UNL     1      -1.283  10.953  22.477  0.00  0.00    +0.000 OA
ATOM     18  H   UNL     1      -0.736  10.223  22.818  0.00  0.00    +0.000 HD
ENDBRANCH  14  17
BRANCH  15  19
ATOM     19  C   UNL     1      -1.084  12.718  19.179  0.00  0.00    +0.000 C 
BRANCH  19  20
ATOM     20  O   UNL     1      -1.710  12.530  17.911  0.00  0.00    +0.000 OA
ATOM     21  H   UNL     1      -1.103  12.896  17.241  0.00  0.00    +0.000 HD
ENDBRANCH  19  20
ENDBRANCH  15  19
ENDBRANCH   8  12
BRANCH   3  22
ATOM     22  C   UNL     1       2.633   3.802  18.204  0.00  0.00    +0.000 C 
BRANCH  22  23
ATOM     23  C   UNL     1       2.258   3.435  19.595  0.00  0.00    +0.000 A 
ATOM     24  C   UNL     1       1.067   3.505  20.289  0.00  0.00    +0.000 A 
ATOM     25  C   UNL     1       1.311   2.942  21.563  0.00  0.00    +0.000 A 
ATOM     26  C   UNL     1       2.639   2.585  21.579  0.00  0.00    +0.000 A 
ATOM     27  O   UNL     1       3.228   2.890  20.389  0.00  0.00    +0.000 OA
ENDBRANCH  22  23
ENDBRANCH   3  22
TORSDOF 6
ENDMDL
MODEL 8
REMARK VINA RESULT:      -6.6      4.866      7.621
REMARK  Name = 
REMARK  6 active torsions:
REMARK  status: ('A' for Active; 'I' for Inactive)
REMARK    1  A    between atoms: N_3  and  C_4
REMARK    2  A    between atoms: C_4  and  C_5
REMARK    3  A    between atoms: C_14  and  C_15
REMARK    4  A    between atoms: C_17  and  O_18
REMARK    5  A    between atoms: C_19  and  C_20
REMARK    6  A    between atoms: C_20  and  O_21
REMARK                            x       y       z     vdW  Elec       q    Type
REMARK                         _______ _______ _______ _____ _____    ______ ____
ROOT
ATOM      1  O   UNL     1       2.013  10.409  17.201  0.00  0.00    +0.000 OA
ATOM      2  C   UNL     1       2.150   9.395  17.882  0.00  0.00    +0.000 C 
ATOM      3  N   UNL     1       1.419   9.173  19.005  0.00  0.00    +0.000 N 
ATOM      4  N   UNL     1       3.149   8.522  17.574  0.00  0.00    +0.000 N 
ATOM      5  C   UNL     1       3.468   7.318  18.136  0.00  0.00    +0.000 A 
ATOM      6  N   UNL     1       4.640   6.729  18.027  0.00  0.00    +0.000 NA
ATOM      7  N   UNL     1       4.696   5.549  18.748  0.00  0.00    +0.000 NA
ATOM      8  C   UNL     1       3.540   5.252  19.312  0.00  0.00    +0.000 A 
ATOM      9  S   UNL     1       2.305   6.384  18.956  0.00  0.00    +0.000 S 
ATOM     10  H   UNL     1       1.363   8.245  19.397  0.00  0.00    +0.000 HD
ATOM     11  H   UNL     1       3.820   8.881  16.912  0.00  0.00    +0.000 HD
ENDROOT
BRANCH   8  12
ATOM     12  C   UNL     1       3.280   4.045  20.159  0.00  0.00    +0.000 C 
ATOM     13  C   UNL     1       2.085   4.200  21.084  0.00  0.00    +0.000 C 
ATOM     14  C   UNL     1       1.595   2.775  21.222  0.00  0.00    +0.000 C 
ATOM     15  C   UNL     1       1.882   2.166  19.852  0.00  0.00    +0.000 C 
ATOM     16  O   UNL     1       3.011   2.895  19.320  0.00  0.00    +0.000 OA
BRANCH  14  17
ATOM     17  O   UNL     1       2.349   2.123  22.245  0.00  0.00    +0.000 OA
ATOM     18  H   UNL     1       3.237   1.908  21.906  0.00  0.00    +0.000 HD
ENDBRANCH  14  17
BRANCH  15  19
ATOM     19  C   UNL     1       0.697   2.298  18.888  0.00  0.00    +0.000 C 
BRANCH  19  20
ATOM     20  O   UNL     1       1.020   3.163  17.800  0.00  0.00    +0.000 OA
ATOM     21  H   UNL     1       1.086   4.064  18.168  0.00  0.00    +0.000 HD
ENDBRANCH  19  20
ENDBRANCH  15  19
ENDBRANCH   8  12
BRANCH   3  22
ATOM     22  C   UNL     1       0.400  10.093  19.445  0.00  0.00    +0.000 C 
BRANCH  22  23
ATOM     23  C   UNL     1       0.032   9.774  20.849  0.00  0.00    +0.000 A 
ATOM     24  C   UNL     1      -0.038   8.585  21.548  0.00  0.00    +0.000 A 
ATOM     25  C   UNL     1      -0.380   8.921  22.878  0.00  0.00    +0.000 A 
ATOM     26  C   UNL     1      -0.522  10.288  22.906  0.00  0.00    +0.000 A 
ATOM     27  O   UNL     1      -0.283  10.818  21.673  0.00  0.00    +0.000 OA
ENDBRANCH  22  23
ENDBRANCH   3  22
TORSDOF 6
ENDMDL
MODEL 9
REMARK VINA RESULT:      -6.6      5.628      7.484
REMARK  Name = 
REMARK  6 active torsions:
REMARK  status: ('A' for Active; 'I' for Inactive)
REMARK    1  A    between atoms: N_3  and  C_4
REMARK    2  A    between atoms: C_4  and  C_5
REMARK    3  A    between atoms: C_14  and  C_15
REMARK    4  A    between atoms: C_17  and  O_18
REMARK    5  A    between atoms: C_19  and  C_20
REMARK    6  A    between atoms: C_20  and  O_21
REMARK                            x       y       z     vdW  Elec       q    Type
REMARK                         _______ _______ _______ _____ _____    ______ ____
ROOT
ATOM      1  O   UNL     1       3.875   4.640  19.594  0.00  0.00    +0.000 OA
ATOM      2  C   UNL     1       3.428   5.759  19.348  0.00  0.00    +0.000 C 
ATOM      3  N   UNL     1       3.862   6.497  18.293  0.00  0.00    +0.000 N 
ATOM      4  N   UNL     1       2.561   6.332  20.229  0.00  0.00    +0.000 N 
ATOM      5  C   UNL     1       1.895   7.523  20.158  0.00  0.00    +0.000 A 
ATOM      6  N   UNL     1       1.379   8.154  21.191  0.00  0.00    +0.000 NA
ATOM      7  N   UNL     1       0.817   9.366  20.830  0.00  0.00    +0.000 NA
ATOM      8  C   UNL     1       0.860   9.569  19.527  0.00  0.00    +0.000 A 
ATOM      9  S   UNL     1       1.559   8.265  18.663  0.00  0.00    +0.000 S 
ATOM     10  H   UNL     1       3.317   7.280  17.966  0.00  0.00    +0.000 HD
ATOM     11  H   UNL     1       2.501   5.855  21.116  0.00  0.00    +0.000 HD
ENDROOT
BRANCH   8  12
ATOM     12  C   UNL     1       0.338  10.786  18.826  0.00  0.00    +0.000 C 
ATOM     13  C   UNL     1      -1.054  10.600  18.245  0.00  0.00    +0.000 C 
ATOM     14  C   UNL     1      -1.617  12.003  18.298  0.00  0.00    +0.000 C 
ATOM     15  C   UNL     1      -1.000  12.586  19.566  0.00  0.00    +0.000 C 
ATOM     16  O   UNL     1       0.258  11.897  19.752  0.00  0.00    +0.000 OA
BRANCH  14  17
ATOM     17  O   UNL     1      -1.187  12.718  17.138  0.00  0.00    +0.000 OA
ATOM     18  H   UNL     1      -1.874  12.662  16.450  0.00  0.00    +0.000 HD
ENDBRANCH  14  17
BRANCH  15  19
ATOM     19  C   UNL     1      -1.880  12.371  20.803  0.00  0.00    +0.000 C 
BRANCH  19  20
ATOM     20  O   UNL     1      -1.254  11.480  21.724  0.00  0.00    +0.000 OA
ATOM     21  H   UNL     1      -1.484  11.794  22.619  0.00  0.00    +0.000 HD
ENDBRANCH  19  20
ENDBRANCH  15  19
ENDBRANCH   8  12
BRANCH   3  22
ATOM     22  C   UNL     1       4.841   5.993  17.363  0.00  0.00    +0.000 C 
BRANCH  22  23
ATOM     23  C   UNL     1       6.175   6.542  17.719  0.00  0.00    +0.000 A 
ATOM     24  C   UNL     1       7.174   6.093  18.559  0.00  0.00    +0.000 A 
ATOM     25  C   UNL     1       8.245   7.007  18.434  0.00  0.00    +0.000 A 
ATOM     26  C   UNL     1       7.827   7.971  17.547  0.00  0.00    +0.000 A 
ATOM     27  O   UNL     1       6.564   7.704  17.113  0.00  0.00    +0.000 OA
ENDBRANCH  22  23
ENDBRANCH   3  22
TORSDOF 6
ENDMDL
