MODEL 1
REMARK VINA RESULT:      -8.1      0.000      0.000
REMARK  Name = 
REMARK  6 active torsions:
REMARK  status: ('A' for Active; 'I' for Inactive)
REMARK    1  A    between atoms: C_1  and  C_2
REMARK    2  A    between atoms: C_6  and  C_7
REMARK    3  A    between atoms: C_13  and  C_14
REMARK    4  A    between atoms: N_15  and  C_16
REMARK    5  A    between atoms: C_19  and  S_20
REMARK    6  A    between atoms: S_20  and  N_21
REMARK                            x       y       z     vdW  Elec       q    Type
REMARK                         _______ _______ _______ _____ _____    ______ ____
ROOT
ATOM      1  C   UNL     1       0.960   4.503  20.446  0.00  0.00    +0.000 C 
ATOM      2  C   UNL     1       2.101   4.682  19.452  0.00  0.00    +0.000 A 
ATOM      3  N   UNL     1       2.570   3.539  19.056  0.00  0.00    +0.000 NA
ATOM      4  C   UNL     1       3.560   3.467  18.123  0.00  0.00    +0.000 A 
ATOM      5  O   UNL     1       4.017   2.390  17.755  0.00  0.00    +0.000 OA
ATOM      6  C   UNL     1       4.072   4.747  17.543  0.00  0.00    +0.000 A 
ATOM      7  C   UNL     1       3.587   5.926  18.010  0.00  0.00    +0.000 A 
ATOM      8  C   UNL     1       4.196   7.223  17.494  0.00  0.00    +0.000 C 
ATOM      9  N   UNL     1       2.564   5.945  19.012  0.00  0.00    +0.000 N 
ENDROOT
BRANCH   6  10
ATOM     10  C   UNL     1       5.103   4.649  16.489  0.00  0.00    +0.000 A 
ATOM     11  C   UNL     1       4.734   4.453  15.151  0.00  0.00    +0.000 A 
ATOM     12  C   UNL     1       5.713   4.361  14.162  0.00  0.00    +0.000 A 
ATOM     13  C   UNL     1       7.061   4.471  14.501  0.00  0.00    +0.000 A 
ATOM     14  C   UNL     1       7.434   4.667  15.830  0.00  0.00    +0.000 A 
ATOM     15  C   UNL     1       6.459   4.755  16.824  0.00  0.00    +0.000 A 
ENDBRANCH   6  10
BRANCH   9  16
ATOM     16  C   UNL     1       2.013   7.174  19.540  0.00  0.00    +0.000 A 
ATOM     17  C   UNL     1       1.808   7.369  20.920  0.00  0.00    +0.000 A 
ATOM     18  C   UNL     1       1.207   8.525  21.434  0.00  0.00    +0.000 A 
ATOM     19  C   UNL     1       0.909   9.579  20.579  0.00  0.00    +0.000 A 
ATOM     20  C   UNL     1       1.141   9.456  19.214  0.00  0.00    +0.000 A 
ATOM     21  C   UNL     1       1.642   8.247  18.704  0.00  0.00    +0.000 A 
BRANCH  19  22
ATOM     22  S   UNL     1       0.222  11.063  21.243  0.00  0.00    +0.000 S 
ATOM     23  O   UNL     1       1.236  12.089  21.282  0.00  0.00    +0.000 OA
ATOM     24  O   UNL     1      -1.077  11.280  20.659  0.00  0.00    +0.000 OA
BRANCH  22  25
ATOM     25  N   UNL     1      -0.050  10.619  22.838  0.00  0.00    +0.000 NA
ATOM     26  H   UNL     1       0.180   9.633  22.969  0.00  0.00    +0.000 HD
ATOM     27  H   UNL     1       0.445  11.249  23.469  0.00  0.00    +0.000 HD
ENDBRANCH  22  25
ENDBRANCH  19  22
ENDBRANCH   9  16
TORSDOF 4
ENDMDL
MODEL 2
REMARK VINA RESULT:      -8.1      0.038      1.363
REMARK  Name = 
REMARK  6 active torsions:
REMARK  status: ('A' for Active; 'I' for Inactive)
REMARK    1  A    between atoms: C_1  and  C_2
REMARK    2  A    between atoms: C_6  and  C_7
REMARK    3  A    between atoms: C_13  and  C_14
REMARK    4  A    between atoms: N_15  and  C_16
REMARK    5  A    between atoms: C_19  and  S_20
REMARK    6  A    between atoms: S_20  and  N_21
REMARK                            x       y       z     vdW  Elec       q    Type
REMARK                         _______ _______ _______ _____ _____    ______ ____
ROOT
ATOM      1  C   UNL     1       0.950   4.459  20.426  0.00  0.00    +0.000 C 
ATOM      2  C   UNL     1       2.093   4.646  19.435  0.00  0.00    +0.000 A 
ATOM      3  N   UNL     1       2.567   3.507  19.036  0.00  0.00    +0.000 NA
ATOM      4  C   UNL     1       3.559   3.442  18.104  0.00  0.00    +0.000 A 
ATOM      5  O   UNL     1       4.021   2.369  17.732  0.00  0.00    +0.000 OA
ATOM      6  C   UNL     1       4.067   4.727  17.530  0.00  0.00    +0.000 A 
ATOM      7  C   UNL     1       3.576   5.902  18.001  0.00  0.00    +0.000 A 
ATOM      8  C   UNL     1       4.181   7.203  17.491  0.00  0.00    +0.000 C 
ATOM      9  N   UNL     1       2.551   5.913  19.001  0.00  0.00    +0.000 N 
ENDROOT
BRANCH   6  10
ATOM     10  C   UNL     1       5.100   4.637  16.478  0.00  0.00    +0.000 A 
ATOM     11  C   UNL     1       6.459   4.744  16.806  0.00  0.00    +0.000 A 
ATOM     12  C   UNL     1       7.429   4.659  15.807  0.00  0.00    +0.000 A 
ATOM     13  C   UNL     1       7.049   4.460  14.480  0.00  0.00    +0.000 A 
ATOM     14  C   UNL     1       5.700   4.352  14.148  0.00  0.00    +0.000 A 
ATOM     15  C   UNL     1       4.725   4.441  15.142  0.00  0.00    +0.000 A 
ENDBRANCH   6  10
BRANCH   9  16
ATOM     16  C   UNL     1       1.994   7.138  19.533  0.00  0.00    +0.000 A 
ATOM     17  C   UNL     1       1.635   8.218  18.704  0.00  0.00    +0.000 A 
ATOM     18  C   UNL     1       1.164   9.434  19.216  0.00  0.00    +0.000 A 
ATOM     19  C   UNL     1       0.919   9.552  20.579  0.00  0.00    +0.000 A 
ATOM     20  C   UNL     1       1.207   8.495  21.434  0.00  0.00    +0.000 A 
ATOM     21  C   UNL     1       1.781   7.323  20.915  0.00  0.00    +0.000 A 
BRANCH  19  22
ATOM     22  S   UNL     1       0.253  11.061  21.209  0.00  0.00    +0.000 S 
ATOM     23  O   UNL     1       1.287  12.066  21.247  0.00  0.00    +0.000 OA
ATOM     24  O   UNL     1      -1.032  11.296  20.600  0.00  0.00    +0.000 OA
BRANCH  22  25
ATOM     25  N   UNL     1      -0.054  10.649  22.805  0.00  0.00    +0.000 NA
ATOM     26  H   UNL     1      -0.644  11.358  23.242  0.00  0.00    +0.000 HD
ATOM     27  H   UNL     1      -0.431   9.703  22.860  0.00  0.00    +0.000 HD
ENDBRANCH  22  25
ENDBRANCH  19  22
ENDBRANCH   9  16
TORSDOF 4
ENDMDL
MODEL 3
REMARK VINA RESULT:      -8.0      0.714      1.303
REMARK  Name = 
REMARK  6 active torsions:
REMARK  status: ('A' for Active; 'I' for Inactive)
REMARK    1  A    between atoms: C_1  and  C_2
REMARK    2  A    between atoms: C_6  and  C_7
REMARK    3  A    between atoms: C_13  and  C_14
REMARK    4  A    between atoms: N_15  and  C_16
REMARK    5  A    between atoms: C_19  and  S_20
REMARK    6  A    between atoms: S_20  and  N_21
REMARK                            x       y       z     vdW  Elec       q    Type
REMARK                         _______ _______ _______ _____ _____    ______ ____
ROOT
ATOM      1  C   UNL     1       0.950   4.495  20.444  0.00  0.00    +0.000 C 
ATOM      2  C   UNL     1       2.096   4.684  19.456  0.00  0.00    +0.000 A 
ATOM      3  N   UNL     1       2.571   3.546  19.055  0.00  0.00    +0.000 NA
ATOM      4  C   UNL     1       3.565   3.483  18.125  0.00  0.00    +0.000 A 
ATOM      5  O   UNL     1       4.027   2.411  17.753  0.00  0.00    +0.000 OA
ATOM      6  C   UNL     1       4.075   4.769  17.556  0.00  0.00    +0.000 A 
ATOM      7  C   UNL     1       3.584   5.943  18.029  0.00  0.00    +0.000 A 
ATOM      8  C   UNL     1       4.190   7.245  17.524  0.00  0.00    +0.000 C 
ATOM      9  N   UNL     1       2.556   5.952  19.026  0.00  0.00    +0.000 N 
ENDROOT
BRANCH   6  10
ATOM     10  C   UNL     1       5.111   4.681  16.507  0.00  0.00    +0.000 A 
ATOM     11  C   UNL     1       6.468   4.808  16.836  0.00  0.00    +0.000 A 
ATOM     12  C   UNL     1       7.440   4.725  15.839  0.00  0.00    +0.000 A 
ATOM     13  C   UNL     1       7.064   4.508  14.514  0.00  0.00    +0.000 A 
ATOM     14  C   UNL     1       5.717   4.381  14.180  0.00  0.00    +0.000 A 
ATOM     15  C   UNL     1       4.740   4.468  15.173  0.00  0.00    +0.000 A 
ENDBRANCH   6  10
BRANCH   9  16
ATOM     16  C   UNL     1       1.998   7.175  19.560  0.00  0.00    +0.000 A 
ATOM     17  C   UNL     1       1.796   7.365  20.941  0.00  0.00    +0.000 A 
ATOM     18  C   UNL     1       1.189   8.516  21.461  0.00  0.00    +0.000 A 
ATOM     19  C   UNL     1       0.880   9.570  20.609  0.00  0.00    +0.000 A 
ATOM     20  C   UNL     1       1.109   9.452  19.243  0.00  0.00    +0.000 A 
ATOM     21  C   UNL     1       1.617   8.249  18.728  0.00  0.00    +0.000 A 
BRANCH  19  22
ATOM     22  S   UNL     1       0.185  11.047  21.280  0.00  0.00    +0.000 S 
ATOM     23  O   UNL     1      -0.902  11.492  20.444  0.00  0.00    +0.000 OA
ATOM     24  O   UNL     1       0.053  10.896  22.707  0.00  0.00    +0.000 OA
BRANCH  22  25
ATOM     25  N   UNL     1       1.434  12.141  21.039  0.00  0.00    +0.000 NA
ATOM     26  H   UNL     1       1.561  12.312  20.041  0.00  0.00    +0.000 HD
ATOM     27  H   UNL     1       1.274  12.986  21.588  0.00  0.00    +0.000 HD
ENDBRANCH  22  25
ENDBRANCH  19  22
ENDBRANCH   9  16
TORSDOF 4
ENDMDL
MODEL 4
REMARK VINA RESULT:      -7.9      0.720      1.294
REMARK  Name = 
REMARK  6 active torsions:
REMARK  status: ('A' for Active; 'I' for Inactive)
REMARK    1  A    between atoms: C_1  and  C_2
REMARK    2  A    between atoms: C_6  and  C_7
REMARK    3  A    between atoms: C_13  and  C_14
REMARK    4  A    between atoms: N_15  and  C_16
REMARK    5  A    between atoms: C_19  and  S_20
REMARK    6  A    between atoms: S_20  and  N_21
REMARK                            x       y       z     vdW  Elec       q    Type
REMARK                         _______ _______ _______ _____ _____    ______ ____
ROOT
ATOM      1  C   UNL     1       0.991   4.498  20.456  0.00  0.00    +0.000 C 
ATOM      2  C   UNL     1       2.127   4.698  19.460  0.00  0.00    +0.000 A 
ATOM      3  N   UNL     1       2.615   3.565  19.061  0.00  0.00    +0.000 NA
ATOM      4  C   UNL     1       3.604   3.510  18.125  0.00  0.00    +0.000 A 
ATOM      5  O   UNL     1       4.078   2.443  17.755  0.00  0.00    +0.000 OA
ATOM      6  C   UNL     1       4.094   4.800  17.547  0.00  0.00    +0.000 A 
ATOM      7  C   UNL     1       3.589   5.970  18.017  0.00  0.00    +0.000 A 
ATOM      8  C   UNL     1       4.175   7.278  17.503  0.00  0.00    +0.000 C 
ATOM      9  N   UNL     1       2.568   5.970  19.021  0.00  0.00    +0.000 N 
ENDROOT
BRANCH   6  10
ATOM     10  C   UNL     1       5.124   4.722  16.491  0.00  0.00    +0.000 A 
ATOM     11  C   UNL     1       4.756   4.513  15.155  0.00  0.00    +0.000 A 
ATOM     12  C   UNL     1       5.735   4.439  14.164  0.00  0.00    +0.000 A 
ATOM     13  C   UNL     1       7.081   4.581  14.500  0.00  0.00    +0.000 A 
ATOM     14  C   UNL     1       7.453   4.790  15.826  0.00  0.00    +0.000 A 
ATOM     15  C   UNL     1       6.478   4.859  16.822  0.00  0.00    +0.000 A 
ENDBRANCH   6  10
BRANCH   9  16
ATOM     16  C   UNL     1       1.997   7.188  19.553  0.00  0.00    +0.000 A 
ATOM     17  C   UNL     1       1.622   8.263  18.723  0.00  0.00    +0.000 A 
ATOM     18  C   UNL     1       1.137   9.473  19.235  0.00  0.00    +0.000 A 
ATOM     19  C   UNL     1       0.894   9.591  20.598  0.00  0.00    +0.000 A 
ATOM     20  C   UNL     1       1.198   8.539  21.454  0.00  0.00    +0.000 A 
ATOM     21  C   UNL     1       1.786   7.373  20.936  0.00  0.00    +0.000 A 
BRANCH  19  22
ATOM     22  S   UNL     1       0.211  11.093  21.227  0.00  0.00    +0.000 S 
ATOM     23  O   UNL     1      -0.831  11.555  20.344  0.00  0.00    +0.000 OA
ATOM     24  O   UNL     1       0.019  10.960  22.649  0.00  0.00    +0.000 OA
BRANCH  22  25
ATOM     25  N   UNL     1       1.495  12.152  21.025  0.00  0.00    +0.000 NA
ATOM     26  H   UNL     1       1.340  12.735  20.201  0.00  0.00    +0.000 HD
ATOM     27  H   UNL     1       1.656  12.680  21.883  0.00  0.00    +0.000 HD
ENDBRANCH  22  25
ENDBRANCH  19  22
ENDBRANCH   9  16
TORSDOF 4
ENDMDL
MODEL 5
REMARK VINA RESULT:      -7.7      3.266      7.865
REMARK  Name = 
REMARK  6 active torsions:
REMARK  status: ('A' for Active; 'I' for Inactive)
REMARK    1  A    between atoms: C_1  and  C_2
REMARK    2  A    between atoms: C_6  and  C_7
REMARK    3  A    between atoms: C_13  and  C_14
REMARK    4  A    between atoms: N_15  and  C_16
REMARK    5  A    between atoms: C_19  and  S_20
REMARK    6  A    between atoms: S_20  and  N_21
REMARK                            x       y       z     vdW  Elec       q    Type
REMARK                         _______ _______ _______ _____ _____    ______ ____
ROOT
ATOM      1  C   UNL     1       2.504   5.157  20.840  0.00  0.00    +0.000 C 
ATOM      2  C   UNL     1       1.967   6.500  20.359  0.00  0.00    +0.000 A 
ATOM      3  N   UNL     1       1.067   6.969  21.166  0.00  0.00    +0.000 NA
ATOM      4  C   UNL     1       0.494   8.187  20.955  0.00  0.00    +0.000 A 
ATOM      5  O   UNL     1      -0.367   8.629  21.707  0.00  0.00    +0.000 OA
ATOM      6  C   UNL     1       0.955   8.984  19.777  0.00  0.00    +0.000 A 
ATOM      7  C   UNL     1       1.869   8.445  18.930  0.00  0.00    +0.000 A 
ATOM      8  C   UNL     1       2.246   9.218  17.673  0.00  0.00    +0.000 C 
ATOM      9  N   UNL     1       2.421   7.148  19.185  0.00  0.00    +0.000 N 
ENDROOT
BRANCH   6  10
ATOM     10  C   UNL     1       0.367  10.327  19.595  0.00  0.00    +0.000 A 
ATOM     11  C   UNL     1       0.968  11.451  20.180  0.00  0.00    +0.000 A 
ATOM     12  C   UNL     1       0.407  12.715  20.005  0.00  0.00    +0.000 A 
ATOM     13  C   UNL     1      -0.750  12.865  19.240  0.00  0.00    +0.000 A 
ATOM     14  C   UNL     1      -1.351  11.753  18.656  0.00  0.00    +0.000 A 
ATOM     15  C   UNL     1      -0.797  10.485  18.832  0.00  0.00    +0.000 A 
ENDBRANCH   6  10
BRANCH   9  16
ATOM     16  C   UNL     1       3.399   6.531  18.315  0.00  0.00    +0.000 A 
ATOM     17  C   UNL     1       4.622   7.155  18.004  0.00  0.00    +0.000 A 
ATOM     18  C   UNL     1       5.542   6.600  17.105  0.00  0.00    +0.000 A 
ATOM     19  C   UNL     1       5.311   5.330  16.589  0.00  0.00    +0.000 A 
ATOM     20  C   UNL     1       4.142   4.649  16.908  0.00  0.00    +0.000 A 
ATOM     21  C   UNL     1       3.182   5.269  17.724  0.00  0.00    +0.000 A 
BRANCH  19  22
ATOM     22  S   UNL     1       6.511   4.603  15.517  0.00  0.00    +0.000 S 
ATOM     23  O   UNL     1       5.996   3.364  14.988  0.00  0.00    +0.000 OA
ATOM     24  O   UNL     1       7.072   5.630  14.677  0.00  0.00    +0.000 OA
BRANCH  22  25
ATOM     25  N   UNL     1       7.715   4.177  16.605  0.00  0.00    +0.000 NA
ATOM     26  H   UNL     1       7.298   3.790  17.453  0.00  0.00    +0.000 HD
ATOM     27  H   UNL     1       8.394   3.563  16.158  0.00  0.00    +0.000 HD
ENDBRANCH  22  25
ENDBRANCH  19  22
ENDBRANCH   9  16
TORSDOF 4
ENDMDL
MODEL 6
REMARK VINA RESULT:      -7.7      3.274      7.815
REMARK  Name = 
REMARK  6 active torsions:
REMARK  status: ('A' for Active; 'I' for Inactive)
REMARK    1  A    between atoms: C_1  and  C_2
REMARK    2  A    between atoms: C_6  and  C_7
REMARK    3  A    between atoms: C_13  and  C_14
REMARK    4  A    between atoms: N_15  and  C_16
REMARK    5  A    between atoms: C_19  and  S_20
REMARK    6  A    between atoms: S_20  and  N_21
REMARK                            x       y       z     vdW  Elec       q    Type
REMARK                         _______ _______ _______ _____ _____    ______ ____
ROOT
ATOM      1  C   UNL     1       2.540   5.171  20.784  0.00  0.00    +0.000 C 
ATOM      2  C   UNL     1       1.983   6.516  20.334  0.00  0.00    +0.000 A 
ATOM      3  N   UNL     1       1.096   6.965  21.166  0.00  0.00    +0.000 NA
ATOM      4  C   UNL     1       0.508   8.181  20.986  0.00  0.00    +0.000 A 
ATOM      5  O   UNL     1      -0.341   8.605  21.762  0.00  0.00    +0.000 OA
ATOM      6  C   UNL     1       0.940   9.001  19.811  0.00  0.00    +0.000 A 
ATOM      7  C   UNL     1       1.841   8.482  18.937  0.00  0.00    +0.000 A 
ATOM      8  C   UNL     1       2.186   9.277  17.686  0.00  0.00    +0.000 C 
ATOM      9  N   UNL     1       2.408   7.186  19.162  0.00  0.00    +0.000 N 
ENDROOT
BRANCH   6  10
ATOM     10  C   UNL     1       0.337  10.341  19.662  0.00  0.00    +0.000 A 
ATOM     11  C   UNL     1      -0.842  10.512  18.923  0.00  0.00    +0.000 A 
ATOM     12  C   UNL     1      -1.404  11.781  18.786  0.00  0.00    +0.000 A 
ATOM     13  C   UNL     1      -0.798  12.882  19.390  0.00  0.00    +0.000 A 
ATOM     14  C   UNL     1       0.374  12.719  20.127  0.00  0.00    +0.000 A 
ATOM     15  C   UNL     1       0.943  11.452  20.262  0.00  0.00    +0.000 A 
ENDBRANCH   6  10
BRANCH   9  16
ATOM     16  C   UNL     1       3.373   6.591  18.263  0.00  0.00    +0.000 A 
ATOM     17  C   UNL     1       3.191   5.306  17.714  0.00  0.00    +0.000 A 
ATOM     18  C   UNL     1       4.154   4.692  16.904  0.00  0.00    +0.000 A 
ATOM     19  C   UNL     1       5.279   5.410  16.515  0.00  0.00    +0.000 A 
ATOM     20  C   UNL     1       5.479   6.702  16.988  0.00  0.00    +0.000 A 
ATOM     21  C   UNL     1       4.557   7.260  17.888  0.00  0.00    +0.000 A 
BRANCH  19  22
ATOM     22  S   UNL     1       6.451   4.658  15.431  0.00  0.00    +0.000 S 
ATOM     23  O   UNL     1       6.011   3.326  15.094  0.00  0.00    +0.000 OA
ATOM     24  O   UNL     1       6.848   5.618  14.432  0.00  0.00    +0.000 OA
BRANCH  22  25
ATOM     25  N   UNL     1       7.771   4.466  16.448  0.00  0.00    +0.000 NA
ATOM     26  H   UNL     1       7.943   3.474  16.613  0.00  0.00    +0.000 HD
ATOM     27  H   UNL     1       8.576   4.973  16.082  0.00  0.00    +0.000 HD
ENDBRANCH  22  25
ENDBRANCH  19  22
ENDBRANCH   9  16
TORSDOF 4
ENDMDL
MODEL 7
REMARK VINA RESULT:      -7.7      3.264      7.802
REMARK  Name = 
REMARK  6 active torsions:
REMARK  status: ('A' for Active; 'I' for Inactive)
REMARK    1  A    between atoms: C_1  and  C_2
REMARK    2  A    between atoms: C_6  and  C_7
REMARK    3  A    between atoms: C_13  and  C_14
REMARK    4  A    between atoms: N_15  and  C_16
REMARK    5  A    between atoms: C_19  and  S_20
REMARK    6  A    between atoms: S_20  and  N_21
REMARK                            x       y       z     vdW  Elec       q    Type
REMARK                         _______ _______ _______ _____ _____    ______ ____
ROOT
ATOM      1  C   UNL     1       2.538   5.107  20.837  0.00  0.00    +0.000 C 
ATOM      2  C   UNL     1       1.993   6.445  20.353  0.00  0.00    +0.000 A 
ATOM      3  N   UNL     1       1.066   6.895  21.141  0.00  0.00    +0.000 NA
ATOM      4  C   UNL     1       0.480   8.106  20.925  0.00  0.00    +0.000 A 
ATOM      5  O   UNL     1      -0.406   8.529  21.658  0.00  0.00    +0.000 OA
ATOM      6  C   UNL     1       0.959   8.919  19.764  0.00  0.00    +0.000 A 
ATOM      7  C   UNL     1       1.902   8.400  18.936  0.00  0.00    +0.000 A 
ATOM      8  C   UNL     1       2.299   9.188  17.695  0.00  0.00    +0.000 C 
ATOM      9  N   UNL     1       2.466   7.109  19.196  0.00  0.00    +0.000 N 
ENDROOT
BRANCH   6  10
ATOM     10  C   UNL     1       0.356  10.254  19.578  0.00  0.00    +0.000 A 
ATOM     11  C   UNL     1      -0.786  10.413  18.780  0.00  0.00    +0.000 A 
ATOM     12  C   UNL     1      -1.349  11.677  18.609  0.00  0.00    +0.000 A 
ATOM     13  C   UNL     1      -0.782  12.786  19.236  0.00  0.00    +0.000 A 
ATOM     14  C   UNL     1       0.353  12.634  20.031  0.00  0.00    +0.000 A 
ATOM     15  C   UNL     1       0.923  11.373  20.202  0.00  0.00    +0.000 A 
ENDBRANCH   6  10
BRANCH   9  16
ATOM     16  C   UNL     1       3.475   6.514  18.346  0.00  0.00    +0.000 A 
ATOM     17  C   UNL     1       4.725   7.125  18.128  0.00  0.00    +0.000 A 
ATOM     18  C   UNL     1       5.678   6.593  17.249  0.00  0.00    +0.000 A 
ATOM     19  C   UNL     1       5.449   5.356  16.660  0.00  0.00    +0.000 A 
ATOM     20  C   UNL     1       4.251   4.686  16.886  0.00  0.00    +0.000 A 
ATOM     21  C   UNL     1       3.263   5.287  17.682  0.00  0.00    +0.000 A 
BRANCH  19  22
ATOM     22  S   UNL     1       6.687   4.655  15.615  0.00  0.00    +0.000 S 
ATOM     23  O   UNL     1       6.691   5.340  14.345  0.00  0.00    +0.000 OA
ATOM     24  O   UNL     1       7.886   4.446  16.385  0.00  0.00    +0.000 OA
BRANCH  22  25
ATOM     25  N   UNL     1       6.049   3.133  15.318  0.00  0.00    +0.000 NA
ATOM     26  H   UNL     1       5.042   3.200  15.167  0.00  0.00    +0.000 HD
ATOM     27  H   UNL     1       6.553   2.680  14.556  0.00  0.00    +0.000 HD
ENDBRANCH  22  25
ENDBRANCH  19  22
ENDBRANCH   9  16
TORSDOF 4
ENDMDL
MODEL 8
REMARK VINA RESULT:      -7.7      3.267      7.863
REMARK  Name = 
REMARK  6 active torsions:
REMARK  status: ('A' for Active; 'I' for Inactive)
REMARK    1  A    between atoms: C_1  and  C_2
REMARK    2  A    between atoms: C_6  and  C_7
REMARK    3  A    between atoms: C_13  and  C_14
REMARK    4  A    between atoms: N_15  and  C_16
REMARK    5  A    between atoms: C_19  and  S_20
REMARK    6  A    between atoms: S_20  and  N_21
REMARK                            x       y       z     vdW  Elec       q    Type
REMARK                         _______ _______ _______ _____ _____    ______ ____
ROOT
ATOM      1  C   UNL     1       2.558   5.130  20.787  0.00  0.00    +0.000 C 
ATOM      2  C   UNL     1       2.006   6.472  20.319  0.00  0.00    +0.000 A 
ATOM      3  N   UNL     1       1.082   6.910  21.116  0.00  0.00    +0.000 NA
ATOM      4  C   UNL     1       0.490   8.121  20.915  0.00  0.00    +0.000 A 
ATOM      5  O   UNL     1      -0.393   8.534  21.657  0.00  0.00    +0.000 OA
ATOM      6  C   UNL     1       0.960   8.947  19.760  0.00  0.00    +0.000 A 
ATOM      7  C   UNL     1       1.901   8.440  18.923  0.00  0.00    +0.000 A 
ATOM      8  C   UNL     1       2.289   9.242  17.688  0.00  0.00    +0.000 C 
ATOM      9  N   UNL     1       2.471   7.149  19.167  0.00  0.00    +0.000 N 
ENDROOT
BRANCH   6  10
ATOM     10  C   UNL     1       0.352  10.282  19.590  0.00  0.00    +0.000 A 
ATOM     11  C   UNL     1       0.920  11.406  20.207  0.00  0.00    +0.000 A 
ATOM     12  C   UNL     1       0.339  12.663  20.042  0.00  0.00    +0.000 A 
ATOM     13  C   UNL     1      -0.805  12.806  19.258  0.00  0.00    +0.000 A 
ATOM     14  C   UNL     1      -1.374  11.693  18.642  0.00  0.00    +0.000 A 
ATOM     15  C   UNL     1      -0.800  10.433  18.807  0.00  0.00    +0.000 A 
ENDBRANCH   6  10
BRANCH   9  16
ATOM     16  C   UNL     1       3.477   6.565  18.306  0.00  0.00    +0.000 A 
ATOM     17  C   UNL     1       3.295   5.316  17.682  0.00  0.00    +0.000 A 
ATOM     18  C   UNL     1       4.292   4.709  16.908  0.00  0.00    +0.000 A 
ATOM     19  C   UNL     1       5.463   5.407  16.633  0.00  0.00    +0.000 A 
ATOM     20  C   UNL     1       5.669   6.667  17.182  0.00  0.00    +0.000 A 
ATOM     21  C   UNL     1       4.704   7.212  18.045  0.00  0.00    +0.000 A 
BRANCH  19  22
ATOM     22  S   UNL     1       6.684   4.669  15.593  0.00  0.00    +0.000 S 
ATOM     23  O   UNL     1       6.681   5.323  14.307  0.00  0.00    +0.000 OA
ATOM     24  O   UNL     1       7.889   4.468  16.356  0.00  0.00    +0.000 OA
BRANCH  22  25
ATOM     25  N   UNL     1       6.029   3.146  15.341  0.00  0.00    +0.000 NA
ATOM     26  H   UNL     1       5.207   3.215  14.740  0.00  0.00    +0.000 HD
ATOM     27  H   UNL     1       6.744   2.506  14.995  0.00  0.00    +0.000 HD
ENDBRANCH  22  25
ENDBRANCH  19  22
ENDBRANCH   9  16
TORSDOF 4
ENDMDL
MODEL 9
REMARK VINA RESULT:      -7.3      1.202      1.713
REMARK  Name = 
REMARK  6 active torsions:
REMARK  status: ('A' for Active; 'I' for Inactive)
REMARK    1  A    between atoms: C_1  and  C_2
REMARK    2  A    between atoms: C_6  and  C_7
REMARK    3  A    between atoms: C_13  and  C_14
REMARK    4  A    between atoms: N_15  and  C_16
REMARK    5  A    between atoms: C_19  and  S_20
REMARK    6  A    between atoms: S_20  and  N_21
REMARK                            x       y       z     vdW  Elec       q    Type
REMARK                         _______ _______ _______ _____ _____    ______ ____
ROOT
ATOM      1  C   UNL     1       1.300   5.306  20.694  0.00  0.00    +0.000 C 
ATOM      2  C   UNL     1       2.380   5.346  19.620  0.00  0.00    +0.000 A 
ATOM      3  N   UNL     1       2.959   4.193  19.484  0.00  0.00    +0.000 NA
ATOM      4  C   UNL     1       3.918   3.991  18.537  0.00  0.00    +0.000 A 
ATOM      5  O   UNL     1       4.477   2.908  18.413  0.00  0.00    +0.000 OA
ATOM      6  C   UNL     1       4.266   5.133  17.636  0.00  0.00    +0.000 A 
ATOM      7  C   UNL     1       3.670   6.337  17.833  0.00  0.00    +0.000 A 
ATOM      8  C   UNL     1       4.114   7.520  16.984  0.00  0.00    +0.000 C 
ATOM      9  N   UNL     1       2.686   6.501  18.861  0.00  0.00    +0.000 N 
ENDROOT
BRANCH   6  10
ATOM     10  C   UNL     1       5.264   4.881  16.577  0.00  0.00    +0.000 A 
ATOM     11  C   UNL     1       6.629   5.083  16.825  0.00  0.00    +0.000 A 
ATOM     12  C   UNL     1       7.566   4.843  15.820  0.00  0.00    +0.000 A 
ATOM     13  C   UNL     1       7.146   4.395  14.567  0.00  0.00    +0.000 A 
ATOM     14  C   UNL     1       5.791   4.191  14.315  0.00  0.00    +0.000 A 
ATOM     15  C   UNL     1       4.850   4.434  15.315  0.00  0.00    +0.000 A 
ENDBRANCH   6  10
BRANCH   9  16
ATOM     16  C   UNL     1       2.021   7.762  19.110  0.00  0.00    +0.000 A 
ATOM     17  C   UNL     1       1.714   8.202  20.413  0.00  0.00    +0.000 A 
ATOM     18  C   UNL     1       1.005   9.384  20.659  0.00  0.00    +0.000 A 
ATOM     19  C   UNL     1       0.694  10.228  19.599  0.00  0.00    +0.000 A 
ATOM     20  C   UNL     1       1.022   9.864  18.298  0.00  0.00    +0.000 A 
ATOM     21  C   UNL     1       1.635   8.623  18.061  0.00  0.00    +0.000 A 
BRANCH  19  22
ATOM     22  S   UNL     1      -0.132  11.754  19.925  0.00  0.00    +0.000 S 
ATOM     23  O   UNL     1      -1.524  11.499  20.202  0.00  0.00    +0.000 OA
ATOM     24  O   UNL     1       0.695  12.559  20.788  0.00  0.00    +0.000 OA
BRANCH  22  25
ATOM     25  N   UNL     1      -0.086  12.485  18.416  0.00  0.00    +0.000 NA
ATOM     26  H   UNL     1       0.790  12.996  18.302  0.00  0.00    +0.000 HD
ATOM     27  H   UNL     1      -0.264  11.798  17.684  0.00  0.00    +0.000 HD
ENDBRANCH  22  25
ENDBRANCH  19  22
ENDBRANCH   9  16
TORSDOF 4
ENDMDL
