MODEL 1
REMARK VINA RESULT:      -6.4      0.000      0.000
REMARK  Name = 
REMARK  6 active torsions:
REMARK  status: ('A' for Active; 'I' for Inactive)
REMARK    1  A    between atoms: C_2  and  O_3
REMARK    2  A    between atoms: C_2  and  C_4
REMARK    3  A    between atoms: C_4  and  C_5
REMARK    4  A    between atoms: C_5  and  C_6
REMARK    5  A    between atoms: C_6  and  C_7
REMARK    6  A    between atoms: N_19  and  C_20
REMARK                            x       y       z     vdW  Elec       q    Type
REMARK                         _______ _______ _______ _____ _____    ______ ____
ROOT
ATOM      1  C   UNL     1      -1.782  12.342  19.981  0.00  0.00    +0.000 C 
ATOM      2  C   UNL     1      -0.743  13.393  19.468  0.00  0.00    +0.000 C 
ATOM      3  C   UNL     1       0.650  12.840  19.173  0.00  0.00    +0.000 C 
ATOM      4  C   UNL     1       1.199  12.029  20.338  0.00  0.00    +0.000 C 
ATOM      5  N   UNL     1       0.235  11.004  20.721  0.00  0.00    +0.000 N 
ATOM      6  C   UNL     1       0.334   9.627  20.515  0.00  0.00    +0.000 C 
ATOM      7  O   UNL     1      -0.634   8.898  20.728  0.00  0.00    +0.000 OA
ATOM      8  N   UNL     1       1.556   9.170  20.069  0.00  0.00    +0.000 N 
ATOM      9  C   UNL     1      -1.068  11.548  21.134  0.00  0.00    +0.000 C 
ATOM     10  H   UNL     1       2.340   9.791  20.171  0.00  0.00    +0.000 HD
ENDROOT
BRANCH   8  11
ATOM     11  C   UNL     1       1.896   7.834  19.746  0.00  0.00    +0.000 A 
ATOM     12  C   UNL     1       1.783   6.765  20.638  0.00  0.00    +0.000 A 
ATOM     13  C   UNL     1       2.205   5.481  20.273  0.00  0.00    +0.000 A 
ATOM     14  C   UNL     1       2.725   5.255  19.003  0.00  0.00    +0.000 A 
ATOM     15 CL   UNL     1       3.283   3.687  18.573  0.00  0.00    +0.000 Cl
ATOM     16  C   UNL     1       2.803   6.298  18.087  0.00  0.00    +0.000 A 
ATOM     17  C   UNL     1       2.381   7.580  18.454  0.00  0.00    +0.000 A 
ENDBRANCH   8  11
BRANCH   1  18
ATOM     18  C   UNL     1      -3.059  13.065  20.485  0.00  0.00    +0.000 A 
ATOM     19  C   UNL     1      -3.014  14.100  21.428  0.00  0.00    +0.000 A 
ATOM     20  C   UNL     1      -4.199  14.694  21.852  0.00  0.00    +0.000 A 
ATOM     21  N   UNL     1      -5.423  14.325  21.428  0.00  0.00    +0.000 NA
ATOM     22  C   UNL     1      -5.467  13.320  20.534  0.00  0.00    +0.000 A 
ATOM     23  C   UNL     1      -4.340  12.674  20.043  0.00  0.00    +0.000 A 
ENDBRANCH   1  18
BRANCH   1  24
ATOM     24  C   UNL     1      -2.197  11.306  18.881  0.00  0.00    +0.000 C 
BRANCH  24  25
ATOM     25  C   UNL     1      -1.925  11.695  17.426  0.00  0.00    +0.000 C 
BRANCH  25  27
ATOM     26  O   UNL     1      -2.947   9.670  16.608  0.00  0.00    +0.000 OA
ATOM     27  C   UNL     1      -2.738  10.867  16.463  0.00  0.00    +0.000 C 
BRANCH  27  28
ATOM     28  O   UNL     1      -3.181  11.553  15.386  0.00  0.00    +0.000 OA
ATOM     29  H   UNL     1      -3.019  11.108  14.534  0.00  0.00    +0.000 HD
ENDBRANCH  27  28
ENDBRANCH  25  27
ENDBRANCH  24  25
ENDBRANCH   1  24
TORSDOF 6
ENDMDL
MODEL 2
REMARK VINA RESULT:      -6.3      0.476      1.008
REMARK  Name = 
REMARK  6 active torsions:
REMARK  status: ('A' for Active; 'I' for Inactive)
REMARK    1  A    between atoms: C_2  and  O_3
REMARK    2  A    between atoms: C_2  and  C_4
REMARK    3  A    between atoms: C_4  and  C_5
REMARK    4  A    between atoms: C_5  and  C_6
REMARK    5  A    between atoms: C_6  and  C_7
REMARK    6  A    between atoms: N_19  and  C_20
REMARK                            x       y       z     vdW  Elec       q    Type
REMARK                         _______ _______ _______ _____ _____    ______ ____
ROOT
ATOM      1  C   UNL     1      -1.602  12.347  19.889  0.00  0.00    +0.000 C 
ATOM      2  C   UNL     1      -0.552  13.325  19.265  0.00  0.00    +0.000 C 
ATOM      3  C   UNL     1       0.806  12.701  18.944  0.00  0.00    +0.000 C 
ATOM      4  C   UNL     1       1.379  11.944  20.132  0.00  0.00    +0.000 C 
ATOM      5  N   UNL     1       0.399  10.981  20.622  0.00  0.00    +0.000 N 
ATOM      6  C   UNL     1       0.439   9.591  20.499  0.00  0.00    +0.000 C 
ATOM      7  O   UNL     1      -0.542   8.914  20.800  0.00  0.00    +0.000 OA
ATOM      8  N   UNL     1       1.623   9.062  20.028  0.00  0.00    +0.000 N 
ATOM      9  C   UNL     1      -0.863  11.598  21.057  0.00  0.00    +0.000 C 
ATOM     10  H   UNL     1       2.431   9.657  20.056  0.00  0.00    +0.000 HD
ENDROOT
BRANCH   8  11
ATOM     11  C   UNL     1       1.900   7.696  19.776  0.00  0.00    +0.000 A 
ATOM     12  C   UNL     1       1.726   6.680  20.718  0.00  0.00    +0.000 A 
ATOM     13  C   UNL     1       2.088   5.360  20.421  0.00  0.00    +0.000 A 
ATOM     14  C   UNL     1       2.608   5.047  19.170  0.00  0.00    +0.000 A 
ATOM     15 CL   UNL     1       3.093   3.434  18.825  0.00  0.00    +0.000 Cl
ATOM     16  C   UNL     1       2.747   6.038  18.205  0.00  0.00    +0.000 A 
ATOM     17  C   UNL     1       2.384   7.356  18.504  0.00  0.00    +0.000 A 
ENDBRANCH   8  11
BRANCH   1  18
ATOM     18  C   UNL     1      -2.828  13.147  20.403  0.00  0.00    +0.000 A 
ATOM     19  C   UNL     1      -4.146  12.729  20.180  0.00  0.00    +0.000 A 
ATOM     20  C   UNL     1      -5.202  13.504  20.652  0.00  0.00    +0.000 A 
ATOM     21  N   UNL     1      -5.048  14.668  21.309  0.00  0.00    +0.000 NA
ATOM     22  C   UNL     1      -3.782  15.078  21.512  0.00  0.00    +0.000 A 
ATOM     23  C   UNL     1      -2.665  14.369  21.088  0.00  0.00    +0.000 A 
ENDBRANCH   1  18
BRANCH   1  24
ATOM     24  C   UNL     1      -2.104  11.262  18.877  0.00  0.00    +0.000 C 
BRANCH  24  25
ATOM     25  C   UNL     1      -2.047  11.623  17.390  0.00  0.00    +0.000 C 
BRANCH  25  27
ATOM     26  O   UNL     1      -4.289  10.750  17.230  0.00  0.00    +0.000 OA
ATOM     27  C   UNL     1      -3.323  11.258  16.675  0.00  0.00    +0.000 C 
BRANCH  27  28
ATOM     28  O   UNL     1      -3.295  11.492  15.344  0.00  0.00    +0.000 OA
ATOM     29  H   UNL     1      -2.608  10.995  14.864  0.00  0.00    +0.000 HD
ENDBRANCH  27  28
ENDBRANCH  25  27
ENDBRANCH  24  25
ENDBRANCH   1  24
TORSDOF 6
ENDMDL
MODEL 3
REMARK VINA RESULT:      -6.3      0.780      1.498
REMARK  Name = 
REMARK  6 active torsions:
REMARK  status: ('A' for Active; 'I' for Inactive)
REMARK    1  A    between atoms: C_2  and  O_3
REMARK    2  A    between atoms: C_2  and  C_4
REMARK    3  A    between atoms: C_4  and  C_5
REMARK    4  A    between atoms: C_5  and  C_6
REMARK    5  A    between atoms: C_6  and  C_7
REMARK    6  A    between atoms: N_19  and  C_20
REMARK                            x       y       z     vdW  Elec       q    Type
REMARK                         _______ _______ _______ _____ _____    ______ ____
ROOT
ATOM      1  C   UNL     1      -1.583  12.470  20.097  0.00  0.00    +0.000 C 
ATOM      2  C   UNL     1      -0.696  13.420  19.226  0.00  0.00    +0.000 C 
ATOM      3  C   UNL     1       0.584  12.791  18.677  0.00  0.00    +0.000 C 
ATOM      4  C   UNL     1       1.395  12.107  19.767  0.00  0.00    +0.000 C 
ATOM      5  N   UNL     1       0.550  11.165  20.491  0.00  0.00    +0.000 N 
ATOM      6  C   UNL     1       0.592   9.771  20.437  0.00  0.00    +0.000 C 
ATOM      7  O   UNL     1      -0.297   9.103  20.963  0.00  0.00    +0.000 OA
ATOM      8  N   UNL     1       1.670   9.226  19.771  0.00  0.00    +0.000 N 
ATOM      9  C   UNL     1      -0.613  11.795  21.134  0.00  0.00    +0.000 C 
ATOM     10  H   UNL     1       2.456   9.829  19.606  0.00  0.00    +0.000 HD
ENDROOT
BRANCH   8  11
ATOM     11  C   UNL     1       1.918   7.851  19.542  0.00  0.00    +0.000 A 
ATOM     12  C   UNL     1       2.294   7.323  18.305  0.00  0.00    +0.000 A 
ATOM     13  C   UNL     1       2.455   5.942  18.135  0.00  0.00    +0.000 A 
ATOM     14  C   UNL     1       2.260   5.083  19.210  0.00  0.00    +0.000 A 
ATOM     15 CL   UNL     1       2.415   3.385  18.988  0.00  0.00    +0.000 Cl
ATOM     16  C   UNL     1       1.930   5.594  20.460  0.00  0.00    +0.000 A 
ATOM     17  C   UNL     1       1.770   6.974  20.628  0.00  0.00    +0.000 A 
ENDBRANCH   8  11
BRANCH   1  18
ATOM     18  C   UNL     1      -2.699  13.288  20.800  0.00  0.00    +0.000 A 
ATOM     19  C   UNL     1      -3.792  12.680  21.431  0.00  0.00    +0.000 A 
ATOM     20  C   UNL     1      -4.768  13.473  22.028  0.00  0.00    +0.000 A 
ATOM     21  N   UNL     1      -4.752  14.819  22.026  0.00  0.00    +0.000 NA
ATOM     22  C   UNL     1      -3.710  15.403  21.407  0.00  0.00    +0.000 A 
ATOM     23  C   UNL     1      -2.682  14.698  20.794  0.00  0.00    +0.000 A 
ENDBRANCH   1  18
BRANCH   1  24
ATOM     24  C   UNL     1      -2.253  11.326  19.264  0.00  0.00    +0.000 C 
BRANCH  24  25
ATOM     25  C   UNL     1      -2.873  11.719  17.920  0.00  0.00    +0.000 C 
BRANCH  25  27
ATOM     26  O   UNL     1      -2.725  10.957  15.638  0.00  0.00    +0.000 OA
ATOM     27  C   UNL     1      -2.277  10.938  16.777  0.00  0.00    +0.000 C 
BRANCH  27  28
ATOM     28  O   UNL     1      -1.226  10.164  17.127  0.00  0.00    +0.000 OA
ATOM     29  H   UNL     1      -0.381  10.431  16.721  0.00  0.00    +0.000 HD
ENDBRANCH  27  28
ENDBRANCH  25  27
ENDBRANCH  24  25
ENDBRANCH   1  24
TORSDOF 6
ENDMDL
MODEL 4
REMARK VINA RESULT:      -6.3      3.865      8.996
REMARK  Name = 
REMARK  6 active torsions:
REMARK  status: ('A' for Active; 'I' for Inactive)
REMARK    1  A    between atoms: C_2  and  O_3
REMARK    2  A    between atoms: C_2  and  C_4
REMARK    3  A    between atoms: C_4  and  C_5
REMARK    4  A    between atoms: C_5  and  C_6
REMARK    5  A    between atoms: C_6  and  C_7
REMARK    6  A    between atoms: N_19  and  C_20
REMARK                            x       y       z     vdW  Elec       q    Type
REMARK                         _______ _______ _______ _____ _____    ______ ____
ROOT
ATOM      1  C   UNL     1       3.106   6.325  18.557  0.00  0.00    +0.000 C 
ATOM      2  C   UNL     1       2.870   5.851  20.029  0.00  0.00    +0.000 C 
ATOM      3  C   UNL     1       1.730   6.556  20.764  0.00  0.00    +0.000 C 
ATOM      4  C   UNL     1       1.843   8.070  20.672  0.00  0.00    +0.000 C 
ATOM      5  N   UNL     1       1.969   8.470  19.275  0.00  0.00    +0.000 N 
ATOM      6  C   UNL     1       1.012   9.107  18.484  0.00  0.00    +0.000 C 
ATOM      7  O   UNL     1       1.186   9.224  17.272  0.00  0.00    +0.000 OA
ATOM      8  N   UNL     1      -0.103   9.575  19.148  0.00  0.00    +0.000 N 
ATOM      9  C   UNL     1       3.146   7.896  18.604  0.00  0.00    +0.000 C 
ATOM     10  H   UNL     1      -0.036   9.661  20.147  0.00  0.00    +0.000 HD
ENDROOT
BRANCH   8  11
ATOM     11  C   UNL     1      -1.228  10.214  18.572  0.00  0.00    +0.000 A 
ATOM     12  C   UNL     1      -1.852  11.336  19.121  0.00  0.00    +0.000 A 
ATOM     13  C   UNL     1      -3.004  11.874  18.534  0.00  0.00    +0.000 A 
ATOM     14  C   UNL     1      -3.527  11.302  17.380  0.00  0.00    +0.000 A 
ATOM     15 CL   UNL     1      -4.966  11.936  16.687  0.00  0.00    +0.000 Cl
ATOM     16  C   UNL     1      -2.893  10.211  16.794  0.00  0.00    +0.000 A 
ATOM     17  C   UNL     1      -1.742   9.676  17.382  0.00  0.00    +0.000 A 
ENDBRANCH   8  11
BRANCH   1  18
ATOM     18  C   UNL     1       4.434   5.731  18.018  0.00  0.00    +0.000 A 
ATOM     19  C   UNL     1       5.362   5.089  18.849  0.00  0.00    +0.000 A 
ATOM     20  C   UNL     1       6.544   4.595  18.304  0.00  0.00    +0.000 A 
ATOM     21  N   UNL     1       6.882   4.709  17.006  0.00  0.00    +0.000 NA
ATOM     22  C   UNL     1       5.998   5.339  16.211  0.00  0.00    +0.000 A 
ATOM     23  C   UNL     1       4.789   5.855  16.659  0.00  0.00    +0.000 A 
ENDBRANCH   1  18
BRANCH   1  24
ATOM     24  C   UNL     1       1.946   5.911  17.589  0.00  0.00    +0.000 C 
BRANCH  24  25
ATOM     25  C   UNL     1       1.222   4.598  17.897  0.00  0.00    +0.000 C 
BRANCH  25  27
ATOM     26  O   UNL     1       2.534   3.088  16.551  0.00  0.00    +0.000 OA
ATOM     27  C   UNL     1       2.105   3.400  17.654  0.00  0.00    +0.000 C 
BRANCH  27  28
ATOM     28  O   UNL     1       2.346   2.660  18.758  0.00  0.00    +0.000 OA
ATOM     29  H   UNL     1       3.102   2.050  18.675  0.00  0.00    +0.000 HD
ENDBRANCH  27  28
ENDBRANCH  25  27
ENDBRANCH  24  25
ENDBRANCH   1  24
TORSDOF 6
ENDMDL
MODEL 5
REMARK VINA RESULT:      -6.2      0.610      1.103
REMARK  Name = 
REMARK  6 active torsions:
REMARK  status: ('A' for Active; 'I' for Inactive)
REMARK    1  A    between atoms: C_2  and  O_3
REMARK    2  A    between atoms: C_2  and  C_4
REMARK    3  A    between atoms: C_4  and  C_5
REMARK    4  A    between atoms: C_5  and  C_6
REMARK    5  A    between atoms: C_6  and  C_7
REMARK    6  A    between atoms: N_19  and  C_20
REMARK                            x       y       z     vdW  Elec       q    Type
REMARK                         _______ _______ _______ _____ _____    ______ ____
ROOT
ATOM      1  C   UNL     1      -1.512  12.421  19.922  0.00  0.00    +0.000 C 
ATOM      2  C   UNL     1      -0.495  13.384  19.226  0.00  0.00    +0.000 C 
ATOM      3  C   UNL     1       0.835  12.747  18.827  0.00  0.00    +0.000 C 
ATOM      4  C   UNL     1       1.475  11.993  19.983  0.00  0.00    +0.000 C 
ATOM      5  N   UNL     1       0.519  11.043  20.540  0.00  0.00    +0.000 N 
ATOM      6  C   UNL     1       0.540   9.652  20.426  0.00  0.00    +0.000 C 
ATOM      7  O   UNL     1      -0.426   8.986  20.794  0.00  0.00    +0.000 OA
ATOM      8  N   UNL     1       1.688   9.109  19.888  0.00  0.00    +0.000 N 
ATOM      9  C   UNL     1      -0.708  11.675  21.048  0.00  0.00    +0.000 C 
ATOM     10  H   UNL     1       2.502   9.697  19.860  0.00  0.00    +0.000 HD
ENDROOT
BRANCH   8  11
ATOM     11  C   UNL     1       1.938   7.739  19.630  0.00  0.00    +0.000 A 
ATOM     12  C   UNL     1       2.323   7.239  18.384  0.00  0.00    +0.000 A 
ATOM     13  C   UNL     1       2.485   5.863  18.183  0.00  0.00    +0.000 A 
ATOM     14  C   UNL     1       2.280   4.979  19.238  0.00  0.00    +0.000 A 
ATOM     15 CL   UNL     1       2.436   3.287  18.978  0.00  0.00    +0.000 Cl
ATOM     16  C   UNL     1       1.940   5.462  20.496  0.00  0.00    +0.000 A 
ATOM     17  C   UNL     1       1.779   6.838  20.694  0.00  0.00    +0.000 A 
ENDBRANCH   8  11
BRANCH   1  18
ATOM     18  C   UNL     1      -2.697  13.236  20.505  0.00  0.00    +0.000 A 
ATOM     19  C   UNL     1      -2.517  14.465  21.153  0.00  0.00    +0.000 A 
ATOM     20  C   UNL     1      -3.622  15.136  21.669  0.00  0.00    +0.000 A 
ATOM     21  N   UNL     1      -4.884  14.671  21.610  0.00  0.00    +0.000 NA
ATOM     22  C   UNL     1      -5.055  13.484  21.001  0.00  0.00    +0.000 A 
ATOM     23  C   UNL     1      -4.018  12.745  20.445  0.00  0.00    +0.000 A 
ENDBRANCH   1  18
BRANCH   1  24
ATOM     24  C   UNL     1      -2.085  11.332  18.952  0.00  0.00    +0.000 C 
BRANCH  24  25
ATOM     25  C   UNL     1      -2.111  11.678  17.461  0.00  0.00    +0.000 C 
BRANCH  25  27
ATOM     26  O   UNL     1      -3.462  10.076  16.269  0.00  0.00    +0.000 OA
ATOM     27  C   UNL     1      -3.366  11.180  16.791  0.00  0.00    +0.000 C 
BRANCH  27  28
ATOM     28  O   UNL     1      -4.373  12.080  16.767  0.00  0.00    +0.000 OA
ATOM     29  H   UNL     1      -4.582  12.423  15.878  0.00  0.00    +0.000 HD
ENDBRANCH  27  28
ENDBRANCH  25  27
ENDBRANCH  24  25
ENDBRANCH   1  24
TORSDOF 6
ENDMDL
MODEL 6
REMARK VINA RESULT:      -6.2      4.207      6.501
REMARK  Name = 
REMARK  6 active torsions:
REMARK  status: ('A' for Active; 'I' for Inactive)
REMARK    1  A    between atoms: C_2  and  O_3
REMARK    2  A    between atoms: C_2  and  C_4
REMARK    3  A    between atoms: C_4  and  C_5
REMARK    4  A    between atoms: C_5  and  C_6
REMARK    5  A    between atoms: C_6  and  C_7
REMARK    6  A    between atoms: N_19  and  C_20
REMARK                            x       y       z     vdW  Elec       q    Type
REMARK                         _______ _______ _______ _____ _____    ______ ____
ROOT
ATOM      1  C   UNL     1      -2.228  14.056  23.400  0.00  0.00    +0.000 C 
ATOM      2  C   UNL     1      -3.480  13.503  24.157  0.00  0.00    +0.000 C 
ATOM      3  C   UNL     1      -4.432  12.660  23.309  0.00  0.00    +0.000 C 
ATOM      4  C   UNL     1      -4.822  13.366  22.018  0.00  0.00    +0.000 C 
ATOM      5  N   UNL     1      -3.620  13.782  21.303  0.00  0.00    +0.000 N 
ATOM      6  C   UNL     1      -3.100  13.238  20.128  0.00  0.00    +0.000 C 
ATOM      7  O   UNL     1      -1.983  13.569  19.733  0.00  0.00    +0.000 OA
ATOM      8  N   UNL     1      -3.910  12.334  19.474  0.00  0.00    +0.000 N 
ATOM      9  C   UNL     1      -2.769  14.703  22.073  0.00  0.00    +0.000 C 
ATOM     10  H   UNL     1      -4.882  12.325  19.727  0.00  0.00    +0.000 HD
ENDROOT
BRANCH   8  11
ATOM     11  C   UNL     1      -3.598  11.615  18.294  0.00  0.00    +0.000 A 
ATOM     12  C   UNL     1      -2.477  10.794  18.156  0.00  0.00    +0.000 A 
ATOM     13  C   UNL     1      -2.193  10.169  16.935  0.00  0.00    +0.000 A 
ATOM     14  C   UNL     1      -3.044  10.348  15.849  0.00  0.00    +0.000 A 
ATOM     15 CL   UNL     1      -2.669   9.616  14.340  0.00  0.00    +0.000 Cl
ATOM     16  C   UNL     1      -4.188  11.126  15.981  0.00  0.00    +0.000 A 
ATOM     17  C   UNL     1      -4.469  11.749  17.202  0.00  0.00    +0.000 A 
ENDBRANCH   8  11
BRANCH   1  18
ATOM     18  C   UNL     1      -1.491  15.094  24.287  0.00  0.00    +0.000 A 
ATOM     19  C   UNL     1      -0.484  15.930  23.787  0.00  0.00    +0.000 A 
ATOM     20  C   UNL     1       0.151  16.827  24.641  0.00  0.00    +0.000 A 
ATOM     21  N   UNL     1      -0.124  16.942  25.954  0.00  0.00    +0.000 NA
ATOM     22  C   UNL     1      -1.081  16.129  26.438  0.00  0.00    +0.000 A 
ATOM     23  C   UNL     1      -1.777  15.210  25.663  0.00  0.00    +0.000 A 
ENDBRANCH   1  18
BRANCH   1  24
ATOM     24  C   UNL     1      -1.212  12.933  22.997  0.00  0.00    +0.000 C 
BRANCH  24  25
ATOM     25  C   UNL     1      -1.644  11.486  23.247  0.00  0.00    +0.000 C 
BRANCH  25  27
ATOM     26  O   UNL     1       0.423  10.809  22.207  0.00  0.00    +0.000 OA
ATOM     27  C   UNL     1      -0.569  10.504  22.856  0.00  0.00    +0.000 C 
BRANCH  27  28
ATOM     28  O   UNL     1      -0.817   9.233  23.241  0.00  0.00    +0.000 OA
ATOM     29  H   UNL     1      -1.754   9.050  23.439  0.00  0.00    +0.000 HD
ENDBRANCH  27  28
ENDBRANCH  25  27
ENDBRANCH  24  25
ENDBRANCH   1  24
TORSDOF 6
ENDMDL
MODEL 7
REMARK VINA RESULT:      -6.1      3.698      8.936
REMARK  Name = 
REMARK  6 active torsions:
REMARK  status: ('A' for Active; 'I' for Inactive)
REMARK    1  A    between atoms: C_2  and  O_3
REMARK    2  A    between atoms: C_2  and  C_4
REMARK    3  A    between atoms: C_4  and  C_5
REMARK    4  A    between atoms: C_5  and  C_6
REMARK    5  A    between atoms: C_6  and  C_7
REMARK    6  A    between atoms: N_19  and  C_20
REMARK                            x       y       z     vdW  Elec       q    Type
REMARK                         _______ _______ _______ _____ _____    ______ ____
ROOT
ATOM      1  C   UNL     1       2.937   6.476  18.627  0.00  0.00    +0.000 C 
ATOM      2  C   UNL     1       2.844   6.194  20.163  0.00  0.00    +0.000 C 
ATOM      3  C   UNL     1       1.740   6.955  20.898  0.00  0.00    +0.000 C 
ATOM      4  C   UNL     1       1.781   8.446  20.601  0.00  0.00    +0.000 C 
ATOM      5  N   UNL     1       1.774   8.661  19.158  0.00  0.00    +0.000 N 
ATOM      6  C   UNL     1       0.728   9.158  18.379  0.00  0.00    +0.000 C 
ATOM      7  O   UNL     1       0.797   9.118  17.151  0.00  0.00    +0.000 OA
ATOM      8  N   UNL     1      -0.346   9.675  19.072  0.00  0.00    +0.000 N 
ATOM      9  C   UNL     1       2.914   8.040  18.467  0.00  0.00    +0.000 C 
ATOM     10  H   UNL     1      -0.201   9.894  20.041  0.00  0.00    +0.000 HD
ENDROOT
BRANCH   8  11
ATOM     11  C   UNL     1      -1.541  10.197  18.518  0.00  0.00    +0.000 A 
ATOM     12  C   UNL     1      -2.155   9.687  17.371  0.00  0.00    +0.000 A 
ATOM     13  C   UNL     1      -3.297  10.298  16.840  0.00  0.00    +0.000 A 
ATOM     14  C   UNL     1      -3.843  11.413  17.466  0.00  0.00    +0.000 A 
ATOM     15 CL   UNL     1      -5.219  12.188  16.786  0.00  0.00    +0.000 Cl
ATOM     16  C   UNL     1      -3.271  11.907  18.633  0.00  0.00    +0.000 A 
ATOM     17  C   UNL     1      -2.131  11.295  19.162  0.00  0.00    +0.000 A 
ENDBRANCH   8  11
BRANCH   1  18
ATOM     18  C   UNL     1       4.240   5.858  18.056  0.00  0.00    +0.000 A 
ATOM     19  C   UNL     1       5.099   5.066  18.829  0.00  0.00    +0.000 A 
ATOM     20  C   UNL     1       6.263   4.557  18.260  0.00  0.00    +0.000 A 
ATOM     21  N   UNL     1       6.647   4.792  16.991  0.00  0.00    +0.000 NA
ATOM     22  C   UNL     1       5.830   5.564  16.252  0.00  0.00    +0.000 A 
ATOM     23  C   UNL     1       4.643   6.107  16.727  0.00  0.00    +0.000 A 
ENDBRANCH   1  18
BRANCH   1  24
ATOM     24  C   UNL     1       1.720   5.902  17.826  0.00  0.00    +0.000 C 
BRANCH  24  25
ATOM     25  C   UNL     1       1.715   4.394  17.560  0.00  0.00    +0.000 C 
BRANCH  25  27
ATOM     26  O   UNL     1       0.569   3.763  19.586  0.00  0.00    +0.000 OA
ATOM     27  C   UNL     1       1.517   3.602  18.827  0.00  0.00    +0.000 C 
BRANCH  27  28
ATOM     28  O   UNL     1       2.508   2.722  19.088  0.00  0.00    +0.000 OA
ATOM     29  H   UNL     1       2.486   2.348  19.988  0.00  0.00    +0.000 HD
ENDBRANCH  27  28
ENDBRANCH  25  27
ENDBRANCH  24  25
ENDBRANCH   1  24
TORSDOF 6
ENDMDL
MODEL 8
REMARK VINA RESULT:      -6.1      1.250      1.474
REMARK  Name = 
REMARK  6 active torsions:
REMARK  status: ('A' for Active; 'I' for Inactive)
REMARK    1  A    between atoms: C_2  and  O_3
REMARK    2  A    between atoms: C_2  and  C_4
REMARK    3  A    between atoms: C_4  and  C_5
REMARK    4  A    between atoms: C_5  and  C_6
REMARK    5  A    between atoms: C_6  and  C_7
REMARK    6  A    between atoms: N_19  and  C_20
REMARK                            x       y       z     vdW  Elec       q    Type
REMARK                         _______ _______ _______ _____ _____    ______ ____
ROOT
ATOM      1  C   UNL     1      -1.553  11.966  21.131  0.00  0.00    +0.000 C 
ATOM      2  C   UNL     1      -0.573  13.064  20.600  0.00  0.00    +0.000 C 
ATOM      3  C   UNL     1       0.751  12.541  20.045  0.00  0.00    +0.000 C 
ATOM      4  C   UNL     1       1.441  11.593  21.015  0.00  0.00    +0.000 C 
ATOM      5  N   UNL     1       0.517  10.536  21.410  0.00  0.00    +0.000 N 
ATOM      6  C   UNL     1       0.553   9.193  21.033  0.00  0.00    +0.000 C 
ATOM      7  O   UNL     1      -0.391   8.450  21.296  0.00  0.00    +0.000 OA
ATOM      8  N   UNL     1       1.688   8.785  20.364  0.00  0.00    +0.000 N 
ATOM      9  C   UNL     1      -0.700  11.035  22.068  0.00  0.00    +0.000 C 
ATOM     10  H   UNL     1       2.492   9.383  20.424  0.00  0.00    +0.000 HD
ENDROOT
BRANCH   8  11
ATOM     11  C   UNL     1       1.947   7.494  19.841  0.00  0.00    +0.000 A 
ATOM     12  C   UNL     1       1.800   6.314  20.574  0.00  0.00    +0.000 A 
ATOM     13  C   UNL     1       2.142   5.077  20.014  0.00  0.00    +0.000 A 
ATOM     14  C   UNL     1       2.615   5.013  18.708  0.00  0.00    +0.000 A 
ATOM     15 CL   UNL     1       3.076   3.498  18.038  0.00  0.00    +0.000 Cl
ATOM     16  C   UNL     1       2.725   6.173  17.949  0.00  0.00    +0.000 A 
ATOM     17  C   UNL     1       2.382   7.407  18.510  0.00  0.00    +0.000 A 
ENDBRANCH   8  11
BRANCH   1  18
ATOM     18  C   UNL     1      -2.727  12.631  21.896  0.00  0.00    +0.000 A 
ATOM     19  C   UNL     1      -2.991  12.367  23.247  0.00  0.00    +0.000 A 
ATOM     20  C   UNL     1      -4.072  12.984  23.868  0.00  0.00    +0.000 A 
ATOM     21  N   UNL     1      -4.921  13.824  23.248  0.00  0.00    +0.000 NA
ATOM     22  C   UNL     1      -4.677  14.067  21.947  0.00  0.00    +0.000 A 
ATOM     23  C   UNL     1      -3.618  13.509  21.243  0.00  0.00    +0.000 A 
ENDBRANCH   1  18
BRANCH   1  24
ATOM     24  C   UNL     1      -2.144  11.071  19.990  0.00  0.00    +0.000 C 
BRANCH  24  25
ATOM     25  C   UNL     1      -1.880  11.521  18.550  0.00  0.00    +0.000 C 
BRANCH  25  27
ATOM     26  O   UNL     1      -2.184   9.796  16.893  0.00  0.00    +0.000 OA
ATOM     27  C   UNL     1      -1.441  10.373  17.676  0.00  0.00    +0.000 C 
BRANCH  27  28
ATOM     28  O   UNL     1      -0.158   9.996  17.866  0.00  0.00    +0.000 OA
ATOM     29  H   UNL     1       0.323  10.528  18.526  0.00  0.00    +0.000 HD
ENDBRANCH  27  28
ENDBRANCH  25  27
ENDBRANCH  24  25
ENDBRANCH   1  24
TORSDOF 6
ENDMDL
MODEL 9
REMARK VINA RESULT:      -6.0      2.300      3.719
REMARK  Name = 
REMARK  6 active torsions:
REMARK  status: ('A' for Active; 'I' for Inactive)
REMARK    1  A    between atoms: C_2  and  O_3
REMARK    2  A    between atoms: C_2  and  C_4
REMARK    3  A    between atoms: C_4  and  C_5
REMARK    4  A    between atoms: C_5  and  C_6
REMARK    5  A    between atoms: C_6  and  C_7
REMARK    6  A    between atoms: N_19  and  C_20
REMARK                            x       y       z     vdW  Elec       q    Type
REMARK                         _______ _______ _______ _____ _____    ______ ____
ROOT
ATOM      1  C   UNL     1      -1.548  11.599  19.731  0.00  0.00    +0.000 C 
ATOM      2  C   UNL     1      -2.668  11.062  18.780  0.00  0.00    +0.000 C 
ATOM      3  C   UNL     1      -2.274   9.855  17.928  0.00  0.00    +0.000 C 
ATOM      4  C   UNL     1      -0.967  10.087  17.184  0.00  0.00    +0.000 C 
ATOM      5  N   UNL     1       0.069  10.498  18.125  0.00  0.00    +0.000 N 
ATOM      6  C   UNL     1       1.163   9.750  18.563  0.00  0.00    +0.000 C 
ATOM      7  O   UNL     1       1.857  10.155  19.494  0.00  0.00    +0.000 OA
ATOM      8  N   UNL     1       1.390   8.566  17.895  0.00  0.00    +0.000 N 
ATOM      9  C   UNL     1      -0.254  11.737  18.849  0.00  0.00    +0.000 C 
ATOM     10  H   UNL     1       0.938   8.451  17.005  0.00  0.00    +0.000 HD
ENDROOT
BRANCH   8  11
ATOM     11  C   UNL     1       2.402   7.615  18.174  0.00  0.00    +0.000 A 
ATOM     12  C   UNL     1       3.541   7.436  17.385  0.00  0.00    +0.000 A 
ATOM     13  C   UNL     1       4.465   6.427  17.682  0.00  0.00    +0.000 A 
ATOM     14  C   UNL     1       4.264   5.603  18.784  0.00  0.00    +0.000 A 
ATOM     15 CL   UNL     1       5.377   4.337  19.120  0.00  0.00    +0.000 Cl
ATOM     16  C   UNL     1       3.159   5.796  19.606  0.00  0.00    +0.000 A 
ATOM     17  C   UNL     1       2.237   6.804  19.307  0.00  0.00    +0.000 A 
ENDBRANCH   8  11
BRANCH   1  18
ATOM     18  C   UNL     1      -1.980  12.962  20.336  0.00  0.00    +0.000 A 
ATOM     19  C   UNL     1      -3.168  13.120  21.061  0.00  0.00    +0.000 A 
ATOM     20  C   UNL     1      -3.505  14.374  21.561  0.00  0.00    +0.000 A 
ATOM     21  N   UNL     1      -2.764  15.483  21.379  0.00  0.00    +0.000 NA
ATOM     22  C   UNL     1      -1.630  15.335  20.671  0.00  0.00    +0.000 A 
ATOM     23  C   UNL     1      -1.204  14.123  20.142  0.00  0.00    +0.000 A 
ENDBRANCH   1  18
BRANCH   1  24
ATOM     24  C   UNL     1      -1.218  10.615  20.903  0.00  0.00    +0.000 C 
BRANCH  24  25
ATOM     25  C   UNL     1      -0.159  11.070  21.911  0.00  0.00    +0.000 C 
BRANCH  25  27
ATOM     26  O   UNL     1       0.207   9.754  23.898  0.00  0.00    +0.000 OA
ATOM     27  C   UNL     1       0.400   9.912  22.699  0.00  0.00    +0.000 C 
BRANCH  27  28
ATOM     28  O   UNL     1       1.182   9.081  21.977  0.00  0.00    +0.000 OA
ATOM     29  H   UNL     1       1.349   9.380  21.064  0.00  0.00    +0.000 HD
ENDBRANCH  27  28
ENDBRANCH  25  27
ENDBRANCH  24  25
ENDBRANCH   1  24
TORSDOF 6
ENDMDL
