MODEL 1
REMARK VINA RESULT:      -7.8      0.000      0.000
REMARK  Name = 
REMARK  13 active torsions:
REMARK  status: ('A' for Active; 'I' for Inactive)
REMARK    1  A    between atoms: C_1  and  C_2
REMARK    2  A    between atoms: C_2  and  C_3
REMARK    3  A    between atoms: C_8  and  C_9
REMARK    4  A    between atoms: N_11  and  C_12
REMARK    5  A    between atoms: C_12  and  C_13
REMARK    6  A    between atoms: C_13  and  N_14
REMARK    7  A    between atoms: C_15  and  C_16
REMARK    8  A    between atoms: C_20  and  N_21
REMARK    9  A    between atoms: N_21  and  C_22
REMARK   10  A    between atoms: N_21  and  C_23
REMARK   11  A    between atoms: C_23  and  C_24
REMARK   12  A    between atoms: C_24  and  C_25
REMARK   13  A    between atoms: C_25  and  C_26
REMARK                            x       y       z     vdW  Elec       q    Type
REMARK                         _______ _______ _______ _____ _____    ______ ____
ROOT
ATOM      1  C   UNL     1       5.991   4.771  16.331  0.00  0.00    +0.000 A 
ATOM      2  N   UNL     1       4.772   4.193  16.050  0.00  0.00    +0.000 NA
ATOM      3  C   UNL     1       3.962   4.600  16.988  0.00  0.00    +0.000 A 
ATOM      4  C   UNL     1       2.590   4.283  17.187  0.00  0.00    +0.000 A 
ATOM      5  C   UNL     1       1.933   4.765  18.255  0.00  0.00    +0.000 A 
ATOM      6  C   UNL     1       2.603   5.627  19.223  0.00  0.00    +0.000 A 
ATOM      7  C   UNL     1       3.884   5.985  18.988  0.00  0.00    +0.000 A 
ATOM      8  N   UNL     1       4.584   5.462  17.891  0.00  0.00    +0.000 N 
ATOM      9  C   UNL     1       5.908   5.631  17.437  0.00  0.00    +0.000 A 
ENDROOT
BRANCH   6  10
ATOM     10  C   UNL     1       1.947   6.183  20.453  0.00  0.00    +0.000 C 
ATOM     11  O   UNL     1       1.435   5.449  21.293  0.00  0.00    +0.000 OA
ATOM     12  N   UNL     1       1.918   7.552  20.551  0.00  0.00    +0.000 N 
ATOM     13  H   UNL     1       2.317   8.142  19.837  0.00  0.00    +0.000 HD
BRANCH  12  14
ATOM     14  C   UNL     1       1.299   8.227  21.684  0.00  0.00    +0.000 C 
BRANCH  14  15
ATOM     15  C   UNL     1       0.304   9.311  21.247  0.00  0.00    +0.000 C 
BRANCH  15  16
ATOM     16  N   UNL     1       0.890  10.332  20.387  0.00  0.00    +0.000 N 
ATOM     17  C   UNL     1       0.894  11.662  20.730  0.00  0.00    +0.000 C 
ATOM     18  C   UNL     1       1.596  12.565  19.750  0.00  0.00    +0.000 C 
ATOM     19  O   UNL     1       0.354  12.101  21.740  0.00  0.00    +0.000 OA
ATOM     20  H   UNL     1       1.443  10.019  19.600  0.00  0.00    +0.000 HD
ENDBRANCH  15  16
ENDBRANCH  14  15
ENDBRANCH  12  14
ENDBRANCH   6  10
BRANCH   1  22
ATOM     21  C   UNL     1       6.759   4.167  14.010  0.00  0.00    +0.000 C 
ATOM     22  C   UNL     1       7.148   4.373  15.474  0.00  0.00    +0.000 C 
ENDBRANCH   1  22
BRANCH   9  23
ATOM     23  N   UNL     1       6.835   6.495  17.993  0.00  0.00    +0.000 N 
ATOM     24  C   UNL     1       7.885   6.063  18.913  0.00  0.00    +0.000 C 
BRANCH  23  25
ATOM     25  C   UNL     1       6.927   7.907  17.587  0.00  0.00    +0.000 C 
BRANCH  25  26
ATOM     26  C   UNL     1       8.271   8.550  17.930  0.00  0.00    +0.000 C 
BRANCH  26  27
ATOM     27  C   UNL     1       8.356  10.032  17.557  0.00  0.00    +0.000 C 
BRANCH  27  28
ATOM     28  C   UNL     1       9.356  10.744  18.439  0.00  0.00    +0.000 A 
ATOM     29  C   UNL     1      10.463  11.379  17.861  0.00  0.00    +0.000 A 
ATOM     30  C   UNL     1      11.430  11.988  18.665  0.00  0.00    +0.000 A 
ATOM     31  C   UNL     1      11.300  11.968  20.048  0.00  0.00    +0.000 A 
ATOM     32  C   UNL     1      10.202  11.342  20.638  0.00  0.00    +0.000 A 
ATOM     33  C   UNL     1       9.232  10.730  19.836  0.00  0.00    +0.000 A 
ENDBRANCH  27  28
ENDBRANCH  26  27
ENDBRANCH  25  26
ENDBRANCH  23  25
ENDBRANCH   9  23
TORSDOF 10
ENDMDL
MODEL 2
REMARK VINA RESULT:      -7.6      1.043      1.043
REMARK  Name = 
REMARK  13 active torsions:
REMARK  status: ('A' for Active; 'I' for Inactive)
REMARK    1  A    between atoms: C_1  and  C_2
REMARK    2  A    between atoms: C_2  and  C_3
REMARK    3  A    between atoms: C_8  and  C_9
REMARK    4  A    between atoms: N_11  and  C_12
REMARK    5  A    between atoms: C_12  and  C_13
REMARK    6  A    between atoms: C_13  and  N_14
REMARK    7  A    between atoms: C_15  and  C_16
REMARK    8  A    between atoms: C_20  and  N_21
REMARK    9  A    between atoms: N_21  and  C_22
REMARK   10  A    between atoms: N_21  and  C_23
REMARK   11  A    between atoms: C_23  and  C_24
REMARK   12  A    between atoms: C_24  and  C_25
REMARK   13  A    between atoms: C_25  and  C_26
REMARK                            x       y       z     vdW  Elec       q    Type
REMARK                         _______ _______ _______ _____ _____    ______ ____
ROOT
ATOM      1  C   UNL     1       6.041   4.580  16.248  0.00  0.00    +0.000 A 
ATOM      2  N   UNL     1       4.828   3.981  15.985  0.00  0.00    +0.000 NA
ATOM      3  C   UNL     1       4.032   4.357  16.948  0.00  0.00    +0.000 A 
ATOM      4  C   UNL     1       2.671   4.010  17.173  0.00  0.00    +0.000 A 
ATOM      5  C   UNL     1       2.029   4.462  18.262  0.00  0.00    +0.000 A 
ATOM      6  C   UNL     1       2.703   5.324  19.228  0.00  0.00    +0.000 A 
ATOM      7  C   UNL     1       3.971   5.712  18.969  0.00  0.00    +0.000 A 
ATOM      8  N   UNL     1       4.657   5.219  17.849  0.00  0.00    +0.000 N 
ATOM      9  C   UNL     1       5.966   5.422  17.368  0.00  0.00    +0.000 A 
ENDROOT
BRANCH   6  10
ATOM     10  C   UNL     1       2.064   5.848  20.480  0.00  0.00    +0.000 C 
ATOM     11  O   UNL     1       1.817   5.111  21.431  0.00  0.00    +0.000 OA
ATOM     12  N   UNL     1       1.737   7.182  20.475  0.00  0.00    +0.000 N 
ATOM     13  H   UNL     1       1.920   7.768  19.674  0.00  0.00    +0.000 HD
BRANCH  12  14
ATOM     14  C   UNL     1       1.097   7.819  21.617  0.00  0.00    +0.000 C 
BRANCH  14  15
ATOM     15  C   UNL     1       1.490   9.296  21.760  0.00  0.00    +0.000 C 
BRANCH  15  16
ATOM     16  N   UNL     1       0.426  10.223  21.390  0.00  0.00    +0.000 N 
ATOM     17  C   UNL     1      -0.412  10.784  22.322  0.00  0.00    +0.000 C 
ATOM     18  C   UNL     1      -1.410  11.764  21.766  0.00  0.00    +0.000 C 
ATOM     19  O   UNL     1      -0.379  10.503  23.515  0.00  0.00    +0.000 OA
ATOM     20  H   UNL     1       0.423  10.575  20.441  0.00  0.00    +0.000 HD
ENDBRANCH  15  16
ENDBRANCH  14  15
ENDBRANCH  12  14
ENDBRANCH   6  10
BRANCH   1  22
ATOM     21  C   UNL     1       6.952   4.612  13.901  0.00  0.00    +0.000 C 
ATOM     22  C   UNL     1       7.186   4.218  15.359  0.00  0.00    +0.000 C 
ENDBRANCH   1  22
BRANCH   9  23
ATOM     23  N   UNL     1       6.888   6.296  17.916  0.00  0.00    +0.000 N 
ATOM     24  C   UNL     1       7.609   6.029  19.157  0.00  0.00    +0.000 C 
BRANCH  23  25
ATOM     25  C   UNL     1       7.324   7.513  17.210  0.00  0.00    +0.000 C 
BRANCH  25  26
ATOM     26  C   UNL     1       8.131   8.467  18.090  0.00  0.00    +0.000 C 
BRANCH  26  27
ATOM     27  C   UNL     1       8.298   9.864  17.488  0.00  0.00    +0.000 C 
BRANCH  27  28
ATOM     28  C   UNL     1       9.086  10.754  18.423  0.00  0.00    +0.000 A 
ATOM     29  C   UNL     1       9.650  11.941  17.940  0.00  0.00    +0.000 A 
ATOM     30  C   UNL     1      10.434  12.744  18.774  0.00  0.00    +0.000 A 
ATOM     31  C   UNL     1      10.660  12.367  20.092  0.00  0.00    +0.000 A 
ATOM     32  C   UNL     1      10.103  11.189  20.587  0.00  0.00    +0.000 A 
ATOM     33  C   UNL     1       9.319  10.382  19.755  0.00  0.00    +0.000 A 
ENDBRANCH  27  28
ENDBRANCH  26  27
ENDBRANCH  25  26
ENDBRANCH  23  25
ENDBRANCH   9  23
TORSDOF 10
ENDMDL
MODEL 3
REMARK VINA RESULT:      -7.4      5.083     11.056
REMARK  Name = 
REMARK  13 active torsions:
REMARK  status: ('A' for Active; 'I' for Inactive)
REMARK    1  A    between atoms: C_1  and  C_2
REMARK    2  A    between atoms: C_2  and  C_3
REMARK    3  A    between atoms: C_8  and  C_9
REMARK    4  A    between atoms: N_11  and  C_12
REMARK    5  A    between atoms: C_12  and  C_13
REMARK    6  A    between atoms: C_13  and  N_14
REMARK    7  A    between atoms: C_15  and  C_16
REMARK    8  A    between atoms: C_20  and  N_21
REMARK    9  A    between atoms: N_21  and  C_22
REMARK   10  A    between atoms: N_21  and  C_23
REMARK   11  A    between atoms: C_23  and  C_24
REMARK   12  A    between atoms: C_24  and  C_25
REMARK   13  A    between atoms: C_25  and  C_26
REMARK                            x       y       z     vdW  Elec       q    Type
REMARK                         _______ _______ _______ _____ _____    ______ ____
ROOT
ATOM      1  C   UNL     1      -1.663  12.090  21.234  0.00  0.00    +0.000 A 
ATOM      2  N   UNL     1      -1.211  11.308  22.275  0.00  0.00    +0.000 NA
ATOM      3  C   UNL     1      -0.378  10.457  21.742  0.00  0.00    +0.000 A 
ATOM      4  C   UNL     1       0.355   9.410  22.366  0.00  0.00    +0.000 A 
ATOM      5  C   UNL     1       1.131   8.596  21.631  0.00  0.00    +0.000 A 
ATOM      6  C   UNL     1       1.248   8.772  20.187  0.00  0.00    +0.000 A 
ATOM      7  C   UNL     1       0.610   9.815  19.612  0.00  0.00    +0.000 A 
ATOM      8  N   UNL     1      -0.226  10.650  20.370  0.00  0.00    +0.000 N 
ATOM      9  C   UNL     1      -1.022  11.762  20.030  0.00  0.00    +0.000 A 
ENDROOT
BRANCH   6  10
ATOM     10  C   UNL     1       2.072   7.891  19.294  0.00  0.00    +0.000 C 
ATOM     11  O   UNL     1       2.155   8.101  18.087  0.00  0.00    +0.000 OA
ATOM     12  N   UNL     1       2.682   6.823  19.903  0.00  0.00    +0.000 N 
ATOM     13  H   UNL     1       2.580   6.648  20.891  0.00  0.00    +0.000 HD
BRANCH  12  14
ATOM     14  C   UNL     1       3.498   5.878  19.154  0.00  0.00    +0.000 C 
BRANCH  14  15
ATOM     15  C   UNL     1       2.691   4.670  18.658  0.00  0.00    +0.000 C 
BRANCH  15  16
ATOM     16  N   UNL     1       1.901   4.025  19.701  0.00  0.00    +0.000 N 
ATOM     17  C   UNL     1       2.449   3.121  20.577  0.00  0.00    +0.000 C 
ATOM     18  C   UNL     1       1.501   2.602  21.625  0.00  0.00    +0.000 C 
ATOM     19  O   UNL     1       3.613   2.738  20.514  0.00  0.00    +0.000 OA
ATOM     20  H   UNL     1       0.970   4.382  19.871  0.00  0.00    +0.000 HD
ENDBRANCH  15  16
ENDBRANCH  14  15
ENDBRANCH  12  14
ENDBRANCH   6  10
BRANCH   1  22
ATOM     21  C   UNL     1      -3.703  12.594  22.622  0.00  0.00    +0.000 C 
ATOM     22  C   UNL     1      -2.736  13.083  21.544  0.00  0.00    +0.000 C 
ENDBRANCH   1  22
BRANCH   9  23
ATOM     23  N   UNL     1      -1.073  12.351  18.779  0.00  0.00    +0.000 N 
ATOM     24  C   UNL     1      -0.231  13.478  18.386  0.00  0.00    +0.000 C 
BRANCH  23  25
ATOM     25  C   UNL     1      -1.887  11.792  17.686  0.00  0.00    +0.000 C 
BRANCH  25  26
ATOM     26  C   UNL     1      -3.026  10.898  18.176  0.00  0.00    +0.000 C 
BRANCH  26  27
ATOM     27  C   UNL     1      -4.380  11.227  17.542  0.00  0.00    +0.000 C 
BRANCH  27  28
ATOM     28  C   UNL     1      -5.414  11.495  18.612  0.00  0.00    +0.000 A 
ATOM     29  C   UNL     1      -6.330  10.494  18.959  0.00  0.00    +0.000 A 
ATOM     30  C   UNL     1      -7.332  10.745  19.900  0.00  0.00    +0.000 A 
ATOM     31  C   UNL     1      -7.427  11.994  20.500  0.00  0.00    +0.000 A 
ATOM     32  C   UNL     1      -6.521  13.000  20.168  0.00  0.00    +0.000 A 
ATOM     33  C   UNL     1      -5.517  12.753  19.224  0.00  0.00    +0.000 A 
ENDBRANCH  27  28
ENDBRANCH  26  27
ENDBRANCH  25  26
ENDBRANCH  23  25
ENDBRANCH   9  23
TORSDOF 10
ENDMDL
MODEL 4
REMARK VINA RESULT:      -7.4      4.898      8.927
REMARK  Name = 
REMARK  13 active torsions:
REMARK  status: ('A' for Active; 'I' for Inactive)
REMARK    1  A    between atoms: C_1  and  C_2
REMARK    2  A    between atoms: C_2  and  C_3
REMARK    3  A    between atoms: C_8  and  C_9
REMARK    4  A    between atoms: N_11  and  C_12
REMARK    5  A    between atoms: C_12  and  C_13
REMARK    6  A    between atoms: C_13  and  N_14
REMARK    7  A    between atoms: C_15  and  C_16
REMARK    8  A    between atoms: C_20  and  N_21
REMARK    9  A    between atoms: N_21  and  C_22
REMARK   10  A    between atoms: N_21  and  C_23
REMARK   11  A    between atoms: C_23  and  C_24
REMARK   12  A    between atoms: C_24  and  C_25
REMARK   13  A    between atoms: C_25  and  C_26
REMARK                            x       y       z     vdW  Elec       q    Type
REMARK                         _______ _______ _______ _____ _____    ______ ____
ROOT
ATOM      1  C   UNL     1       4.169   3.356  19.872  0.00  0.00    +0.000 A 
ATOM      2  N   UNL     1       5.440   3.854  20.065  0.00  0.00    +0.000 NA
ATOM      3  C   UNL     1       5.885   4.157  18.876  0.00  0.00    +0.000 A 
ATOM      4  C   UNL     1       7.150   4.686  18.501  0.00  0.00    +0.000 A 
ATOM      5  C   UNL     1       7.444   4.884  17.205  0.00  0.00    +0.000 A 
ATOM      6  C   UNL     1       6.474   4.572  16.160  0.00  0.00    +0.000 A 
ATOM      7  C   UNL     1       5.248   4.143  16.527  0.00  0.00    +0.000 A 
ATOM      8  N   UNL     1       4.945   3.906  17.877  0.00  0.00    +0.000 N 
ATOM      9  C   UNL     1       3.786   3.433  18.525  0.00  0.00    +0.000 A 
ENDROOT
BRANCH   6  10
ATOM     10  C   UNL     1       6.735   4.740  14.691  0.00  0.00    +0.000 C 
ATOM     11  O   UNL     1       7.155   5.799  14.232  0.00  0.00    +0.000 OA
ATOM     12  N   UNL     1       6.434   3.659  13.901  0.00  0.00    +0.000 N 
ATOM     13  H   UNL     1       6.061   2.806  14.290  0.00  0.00    +0.000 HD
BRANCH  12  14
ATOM     14  C   UNL     1       6.622   3.689  12.457  0.00  0.00    +0.000 C 
BRANCH  14  15
ATOM     15  C   UNL     1       5.395   3.169  11.695  0.00  0.00    +0.000 C 
BRANCH  15  16
ATOM     16  N   UNL     1       5.315   1.714  11.636  0.00  0.00    +0.000 N 
ATOM     17  C   UNL     1       6.370   0.940  11.219  0.00  0.00    +0.000 C 
ATOM     18  C   UNL     1       6.128  -0.544  11.280  0.00  0.00    +0.000 C 
ATOM     19  O   UNL     1       7.426   1.406  10.803  0.00  0.00    +0.000 OA
ATOM     20  H   UNL     1       4.514   1.273  12.069  0.00  0.00    +0.000 HD
ENDBRANCH  15  16
ENDBRANCH  14  15
ENDBRANCH  12  14
ENDBRANCH   6  10
BRANCH   1  22
ATOM     21  C   UNL     1       2.279   3.675  21.505  0.00  0.00    +0.000 C 
ATOM     22  C   UNL     1       3.462   2.811  21.070  0.00  0.00    +0.000 C 
ENDBRANCH   1  22
BRANCH   9  23
ATOM     23  N   UNL     1       2.581   3.164  17.901  0.00  0.00    +0.000 N 
ATOM     24  C   UNL     1       2.017   1.821  17.786  0.00  0.00    +0.000 C 
BRANCH  23  25
ATOM     25  C   UNL     1       1.692   4.238  17.426  0.00  0.00    +0.000 C 
BRANCH  25  26
ATOM     26  C   UNL     1       1.525   5.376  18.434  0.00  0.00    +0.000 C 
BRANCH  26  27
ATOM     27  C   UNL     1       2.521   6.521  18.237  0.00  0.00    +0.000 C 
BRANCH  27  28
ATOM     28  C   UNL     1       1.951   7.816  18.769  0.00  0.00    +0.000 A 
ATOM     29  C   UNL     1       1.797   8.911  17.910  0.00  0.00    +0.000 A 
ATOM     30  C   UNL     1       1.331  10.135  18.398  0.00  0.00    +0.000 A 
ATOM     31  C   UNL     1       1.017  10.274  19.744  0.00  0.00    +0.000 A 
ATOM     32  C   UNL     1       1.164   9.192  20.611  0.00  0.00    +0.000 A 
ATOM     33  C   UNL     1       1.631   7.965  20.126  0.00  0.00    +0.000 A 
ENDBRANCH  27  28
ENDBRANCH  26  27
ENDBRANCH  25  26
ENDBRANCH  23  25
ENDBRANCH   9  23
TORSDOF 10
ENDMDL
MODEL 5
REMARK VINA RESULT:      -7.4      3.088      7.214
REMARK  Name = 
REMARK  13 active torsions:
REMARK  status: ('A' for Active; 'I' for Inactive)
REMARK    1  A    between atoms: C_1  and  C_2
REMARK    2  A    between atoms: C_2  and  C_3
REMARK    3  A    between atoms: C_8  and  C_9
REMARK    4  A    between atoms: N_11  and  C_12
REMARK    5  A    between atoms: C_12  and  C_13
REMARK    6  A    between atoms: C_13  and  N_14
REMARK    7  A    between atoms: C_15  and  C_16
REMARK    8  A    between atoms: C_20  and  N_21
REMARK    9  A    between atoms: N_21  and  C_22
REMARK   10  A    between atoms: N_21  and  C_23
REMARK   11  A    between atoms: C_23  and  C_24
REMARK   12  A    between atoms: C_24  and  C_25
REMARK   13  A    between atoms: C_25  and  C_26
REMARK                            x       y       z     vdW  Elec       q    Type
REMARK                         _______ _______ _______ _____ _____    ______ ____
ROOT
ATOM      1  C   UNL     1       2.821   2.552  17.946  0.00  0.00    +0.000 A 
ATOM      2  N   UNL     1       3.145   3.148  16.746  0.00  0.00    +0.000 NA
ATOM      3  C   UNL     1       4.187   3.894  16.991  0.00  0.00    +0.000 A 
ATOM      4  C   UNL     1       4.910   4.741  16.107  0.00  0.00    +0.000 A 
ATOM      5  C   UNL     1       5.935   5.479  16.565  0.00  0.00    +0.000 A 
ATOM      6  C   UNL     1       6.336   5.420  17.967  0.00  0.00    +0.000 A 
ATOM      7  C   UNL     1       5.694   4.557  18.784  0.00  0.00    +0.000 A 
ATOM      8  N   UNL     1       4.604   3.806  18.319  0.00  0.00    +0.000 N 
ATOM      9  C   UNL     1       3.748   2.879  18.947  0.00  0.00    +0.000 A 
ENDROOT
BRANCH   6  10
ATOM     10  C   UNL     1       7.451   6.231  18.560  0.00  0.00    +0.000 C 
ATOM     11  O   UNL     1       8.096   5.825  19.523  0.00  0.00    +0.000 OA
ATOM     12  N   UNL     1       7.669   7.460  17.988  0.00  0.00    +0.000 N 
ATOM     13  H   UNL     1       7.111   7.791  17.216  0.00  0.00    +0.000 HD
BRANCH  12  14
ATOM     14  C   UNL     1       8.709   8.357  18.474  0.00  0.00    +0.000 C 
BRANCH  14  15
ATOM     15  C   UNL     1       8.365   9.834  18.239  0.00  0.00    +0.000 C 
BRANCH  15  16
ATOM     16  N   UNL     1       9.525  10.718  18.268  0.00  0.00    +0.000 N 
ATOM     17  C   UNL     1      10.008  11.251  19.437  0.00  0.00    +0.000 C 
ATOM     18  C   UNL     1      11.248  12.092  19.284  0.00  0.00    +0.000 C 
ATOM     19  O   UNL     1       9.472  11.086  20.528  0.00  0.00    +0.000 OA
ATOM     20  H   UNL     1      10.071  10.800  17.420  0.00  0.00    +0.000 HD
ENDBRANCH  15  16
ENDBRANCH  14  15
ENDBRANCH  12  14
ENDBRANCH   6  10
BRANCH   1  22
ATOM     21  C   UNL     1       0.456   2.381  18.792  0.00  0.00    +0.000 C 
ATOM     22  C   UNL     1       1.576   1.728  17.983  0.00  0.00    +0.000 C 
ENDBRANCH   1  22
BRANCH   9  23
ATOM     23  N   UNL     1       3.885   2.425  20.247  0.00  0.00    +0.000 N 
ATOM     24  C   UNL     1       5.045   1.673  20.718  0.00  0.00    +0.000 C 
BRANCH  23  25
ATOM     25  C   UNL     1       2.929   2.791  21.306  0.00  0.00    +0.000 C 
BRANCH  25  26
ATOM     26  C   UNL     1       2.726   4.300  21.444  0.00  0.00    +0.000 C 
BRANCH  26  27
ATOM     27  C   UNL     1       1.463   4.815  20.750  0.00  0.00    +0.000 C 
BRANCH  27  28
ATOM     28  C   UNL     1       1.731   6.143  20.079  0.00  0.00    +0.000 A 
ATOM     29  C   UNL     1       1.340   7.331  20.709  0.00  0.00    +0.000 A 
ATOM     30  C   UNL     1       1.523   8.563  20.076  0.00  0.00    +0.000 A 
ATOM     31  C   UNL     1       2.097   8.619  18.812  0.00  0.00    +0.000 A 
ATOM     32  C   UNL     1       2.494   7.445  18.173  0.00  0.00    +0.000 A 
ATOM     33  C   UNL     1       2.311   6.208  18.803  0.00  0.00    +0.000 A 
ENDBRANCH  27  28
ENDBRANCH  26  27
ENDBRANCH  25  26
ENDBRANCH  23  25
ENDBRANCH   9  23
TORSDOF 10
ENDMDL
MODEL 6
REMARK VINA RESULT:      -7.3      4.190      6.232
REMARK  Name = 
REMARK  13 active torsions:
REMARK  status: ('A' for Active; 'I' for Inactive)
REMARK    1  A    between atoms: C_1  and  C_2
REMARK    2  A    between atoms: C_2  and  C_3
REMARK    3  A    between atoms: C_8  and  C_9
REMARK    4  A    between atoms: N_11  and  C_12
REMARK    5  A    between atoms: C_12  and  C_13
REMARK    6  A    between atoms: C_13  and  N_14
REMARK    7  A    between atoms: C_15  and  C_16
REMARK    8  A    between atoms: C_20  and  N_21
REMARK    9  A    between atoms: N_21  and  C_22
REMARK   10  A    between atoms: N_21  and  C_23
REMARK   11  A    between atoms: C_23  and  C_24
REMARK   12  A    between atoms: C_24  and  C_25
REMARK   13  A    between atoms: C_25  and  C_26
REMARK                            x       y       z     vdW  Elec       q    Type
REMARK                         _______ _______ _______ _____ _____    ______ ____
ROOT
ATOM      1  C   UNL     1       2.624   4.343  20.214  0.00  0.00    +0.000 A 
ATOM      2  N   UNL     1       1.898   5.037  21.158  0.00  0.00    +0.000 NA
ATOM      3  C   UNL     1       1.738   6.236  20.670  0.00  0.00    +0.000 A 
ATOM      4  C   UNL     1       1.082   7.358  21.247  0.00  0.00    +0.000 A 
ATOM      5  C   UNL     1       1.067   8.537  20.604  0.00  0.00    +0.000 A 
ATOM      6  C   UNL     1       1.710   8.692  19.303  0.00  0.00    +0.000 A 
ATOM      7  C   UNL     1       2.265   7.603  18.727  0.00  0.00    +0.000 A 
ATOM      8  N   UNL     1       2.310   6.376  19.406  0.00  0.00    +0.000 N 
ATOM      9  C   UNL     1       2.847   5.118  19.066  0.00  0.00    +0.000 A 
ENDROOT
BRANCH   6  10
ATOM     10  C   UNL     1       1.760   9.979  18.535  0.00  0.00    +0.000 C 
ATOM     11  O   UNL     1       2.251  10.036  17.411  0.00  0.00    +0.000 OA
ATOM     12  N   UNL     1       1.266  11.085  19.182  0.00  0.00    +0.000 N 
ATOM     13  H   UNL     1       0.893  11.027  20.118  0.00  0.00    +0.000 HD
BRANCH  12  14
ATOM     14  C   UNL     1       1.267  12.402  18.561  0.00  0.00    +0.000 C 
BRANCH  14  15
ATOM     15  C   UNL     1      -0.141  13.004  18.462  0.00  0.00    +0.000 C 
BRANCH  15  16
ATOM     16  N   UNL     1      -0.981  12.369  17.453  0.00  0.00    +0.000 N 
ATOM     17  C   UNL     1      -2.103  11.651  17.783  0.00  0.00    +0.000 C 
ATOM     18  C   UNL     1      -2.881  11.118  16.610  0.00  0.00    +0.000 C 
ATOM     19  O   UNL     1      -2.449  11.431  18.940  0.00  0.00    +0.000 OA
ATOM     20  H   UNL     1      -0.809  12.608  16.485  0.00  0.00    +0.000 HD
ENDBRANCH  15  16
ENDBRANCH  14  15
ENDBRANCH  12  14
ENDBRANCH   6  10
BRANCH   1  22
ATOM     21  C   UNL     1       4.420   2.594  19.978  0.00  0.00    +0.000 C 
ATOM     22  C   UNL     1       3.060   2.959  20.572  0.00  0.00    +0.000 C 
ENDBRANCH   1  22
BRANCH   9  23
ATOM     23  N   UNL     1       3.414   4.799  17.845  0.00  0.00    +0.000 N 
ATOM     24  C   UNL     1       2.815   3.859  16.902  0.00  0.00    +0.000 C 
BRANCH  23  25
ATOM     25  C   UNL     1       4.606   5.497  17.333  0.00  0.00    +0.000 C 
BRANCH  25  26
ATOM     26  C   UNL     1       5.599   4.566  16.636  0.00  0.00    +0.000 C 
BRANCH  26  27
ATOM     27  C   UNL     1       6.696   5.306  15.866  0.00  0.00    +0.000 C 
BRANCH  27  28
ATOM     28  C   UNL     1       6.729   4.852  14.424  0.00  0.00    +0.000 A 
ATOM     29  C   UNL     1       5.834   3.868  13.985  0.00  0.00    +0.000 A 
ATOM     30  C   UNL     1       5.892   3.392  12.673  0.00  0.00    +0.000 A 
ATOM     31  C   UNL     1       6.842   3.892  11.792  0.00  0.00    +0.000 A 
ATOM     32  C   UNL     1       7.739   4.873  12.213  0.00  0.00    +0.000 A 
ATOM     33  C   UNL     1       7.684   5.353  13.527  0.00  0.00    +0.000 A 
ENDBRANCH  27  28
ENDBRANCH  26  27
ENDBRANCH  25  26
ENDBRANCH  23  25
ENDBRANCH   9  23
TORSDOF 10
ENDMDL
MODEL 7
REMARK VINA RESULT:      -7.2      4.162     10.905
REMARK  Name = 
REMARK  13 active torsions:
REMARK  status: ('A' for Active; 'I' for Inactive)
REMARK    1  A    between atoms: C_1  and  C_2
REMARK    2  A    between atoms: C_2  and  C_3
REMARK    3  A    between atoms: C_8  and  C_9
REMARK    4  A    between atoms: N_11  and  C_12
REMARK    5  A    between atoms: C_12  and  C_13
REMARK    6  A    between atoms: C_13  and  N_14
REMARK    7  A    between atoms: C_15  and  C_16
REMARK    8  A    between atoms: C_20  and  N_21
REMARK    9  A    between atoms: N_21  and  C_22
REMARK   10  A    between atoms: N_21  and  C_23
REMARK   11  A    between atoms: C_23  and  C_24
REMARK   12  A    between atoms: C_24  and  C_25
REMARK   13  A    between atoms: C_25  and  C_26
REMARK                            x       y       z     vdW  Elec       q    Type
REMARK                         _______ _______ _______ _____ _____    ______ ____
ROOT
ATOM      1  C   UNL     1      -1.421  11.613  21.211  0.00  0.00    +0.000 A 
ATOM      2  N   UNL     1      -0.829  10.825  22.175  0.00  0.00    +0.000 NA
ATOM      3  C   UNL     1      -0.003  10.043  21.535  0.00  0.00    +0.000 A 
ATOM      4  C   UNL     1       0.843   9.022  22.047  0.00  0.00    +0.000 A 
ATOM      5  C   UNL     1       1.591   8.281  21.212  0.00  0.00    +0.000 A 
ATOM      6  C   UNL     1       1.560   8.512  19.771  0.00  0.00    +0.000 A 
ATOM      7  C   UNL     1       0.813   9.533  19.299  0.00  0.00    +0.000 A 
ATOM      8  N   UNL     1       0.007  10.291  20.162  0.00  0.00    +0.000 N 
ATOM      9  C   UNL     1      -0.879  11.364  19.941  0.00  0.00    +0.000 A 
ENDROOT
BRANCH   6  10
ATOM     10  C   UNL     1       2.344   7.712  18.773  0.00  0.00    +0.000 C 
ATOM     11  O   UNL     1       2.942   8.252  17.847  0.00  0.00    +0.000 OA
ATOM     12  N   UNL     1       2.312   6.349  18.937  0.00  0.00    +0.000 N 
ATOM     13  H   UNL     1       1.791   5.919  19.686  0.00  0.00    +0.000 HD
BRANCH  12  14
ATOM     14  C   UNL     1       3.014   5.451  18.031  0.00  0.00    +0.000 C 
BRANCH  14  15
ATOM     15  C   UNL     1       4.373   5.004  18.586  0.00  0.00    +0.000 C 
BRANCH  15  16
ATOM     16  N   UNL     1       5.487   5.840  18.153  0.00  0.00    +0.000 N 
ATOM     17  C   UNL     1       6.697   5.839  18.803  0.00  0.00    +0.000 C 
ATOM     18  C   UNL     1       7.749   6.718  18.181  0.00  0.00    +0.000 C 
ATOM     19  O   UNL     1       6.915   5.196  19.824  0.00  0.00    +0.000 OA
ATOM     20  H   UNL     1       5.403   6.304  17.258  0.00  0.00    +0.000 HD
ENDBRANCH  15  16
ENDBRANCH  14  15
ENDBRANCH  12  14
ENDBRANCH   6  10
BRANCH   1  22
ATOM     21  C   UNL     1      -2.115  14.003  21.596  0.00  0.00    +0.000 C 
ATOM     22  C   UNL     1      -2.514  12.529  21.658  0.00  0.00    +0.000 C 
ENDBRANCH   1  22
BRANCH   9  23
ATOM     23  N   UNL     1      -1.082  11.990  18.724  0.00  0.00    +0.000 N 
ATOM     24  C   UNL     1      -0.456  13.259  18.359  0.00  0.00    +0.000 C 
BRANCH  23  25
ATOM     25  C   UNL     1      -1.839  11.351  17.634  0.00  0.00    +0.000 C 
BRANCH  25  26
ATOM     26  C   UNL     1      -3.219  10.855  18.066  0.00  0.00    +0.000 C 
BRANCH  26  27
ATOM     27  C   UNL     1      -4.292  11.947  18.062  0.00  0.00    +0.000 C 
BRANCH  27  28
ATOM     28  C   UNL     1      -5.406  11.597  19.023  0.00  0.00    +0.000 A 
ATOM     29  C   UNL     1      -6.156  10.431  18.821  0.00  0.00    +0.000 A 
ATOM     30  C   UNL     1      -7.229  10.125  19.661  0.00  0.00    +0.000 A 
ATOM     31  C   UNL     1      -7.562  10.978  20.706  0.00  0.00    +0.000 A 
ATOM     32  C   UNL     1      -6.824  12.141  20.921  0.00  0.00    +0.000 A 
ATOM     33  C   UNL     1      -5.748  12.452  20.081  0.00  0.00    +0.000 A 
ENDBRANCH  27  28
ENDBRANCH  26  27
ENDBRANCH  25  26
ENDBRANCH  23  25
ENDBRANCH   9  23
TORSDOF 10
ENDMDL
MODEL 8
REMARK VINA RESULT:      -7.2      4.100      9.189
REMARK  Name = 
REMARK  13 active torsions:
REMARK  status: ('A' for Active; 'I' for Inactive)
REMARK    1  A    between atoms: C_1  and  C_2
REMARK    2  A    between atoms: C_2  and  C_3
REMARK    3  A    between atoms: C_8  and  C_9
REMARK    4  A    between atoms: N_11  and  C_12
REMARK    5  A    between atoms: C_12  and  C_13
REMARK    6  A    between atoms: C_13  and  N_14
REMARK    7  A    between atoms: C_15  and  C_16
REMARK    8  A    between atoms: C_20  and  N_21
REMARK    9  A    between atoms: N_21  and  C_22
REMARK   10  A    between atoms: N_21  and  C_23
REMARK   11  A    between atoms: C_23  and  C_24
REMARK   12  A    between atoms: C_24  and  C_25
REMARK   13  A    between atoms: C_25  and  C_26
REMARK                            x       y       z     vdW  Elec       q    Type
REMARK                         _______ _______ _______ _____ _____    ______ ____
ROOT
ATOM      1  C   UNL     1      -1.046  10.941  18.294  0.00  0.00    +0.000 A 
ATOM      2  N   UNL     1      -1.256  12.279  18.038  0.00  0.00    +0.000 NA
ATOM      3  C   UNL     1      -0.243  12.905  18.571  0.00  0.00    +0.000 A 
ATOM      4  C   UNL     1       0.026  14.300  18.616  0.00  0.00    +0.000 A 
ATOM      5  C   UNL     1       1.109  14.760  19.264  0.00  0.00    +0.000 A 
ATOM      6  C   UNL     1       2.035  13.845  19.923  0.00  0.00    +0.000 A 
ATOM      7  C   UNL     1       1.815  12.517  19.811  0.00  0.00    +0.000 A 
ATOM      8  N   UNL     1       0.670  12.032  19.161  0.00  0.00    +0.000 N 
ATOM      9  C   UNL     1       0.183  10.728  18.935  0.00  0.00    +0.000 A 
ENDROOT
BRANCH   6  10
ATOM     10  C   UNL     1       3.250  14.281  20.688  0.00  0.00    +0.000 C 
ATOM     11  O   UNL     1       3.450  13.907  21.840  0.00  0.00    +0.000 OA
ATOM     12  N   UNL     1       4.090  15.150  20.036  0.00  0.00    +0.000 N 
ATOM     13  H   UNL     1       3.896  15.471  19.100  0.00  0.00    +0.000 HD
BRANCH  12  14
ATOM     14  C   UNL     1       5.297  15.667  20.666  0.00  0.00    +0.000 C 
BRANCH  14  15
ATOM     15  C   UNL     1       6.573  15.041  20.087  0.00  0.00    +0.000 C 
BRANCH  15  16
ATOM     16  N   UNL     1       7.412  14.389  21.087  0.00  0.00    +0.000 N 
ATOM     17  C   UNL     1       8.483  13.603  20.741  0.00  0.00    +0.000 C 
ATOM     18  C   UNL     1       9.271  13.060  21.904  0.00  0.00    +0.000 C 
ATOM     19  O   UNL     1       8.778  13.334  19.581  0.00  0.00    +0.000 OA
ATOM     20  H   UNL     1       7.285  14.662  22.053  0.00  0.00    +0.000 HD
ENDBRANCH  15  16
ENDBRANCH  14  15
ENDBRANCH  12  14
ENDBRANCH   6  10
BRANCH   1  22
ATOM     21  C   UNL     1      -2.439  10.039  16.400  0.00  0.00    +0.000 C 
ATOM     22  C   UNL     1      -2.130   9.993  17.896  0.00  0.00    +0.000 C 
ENDBRANCH   1  22
BRANCH   9  23
ATOM     23  N   UNL     1       0.848   9.562  19.271  0.00  0.00    +0.000 N 
ATOM     24  C   UNL     1       0.794   8.961  20.601  0.00  0.00    +0.000 C 
BRANCH  23  25
ATOM     25  C   UNL     1       1.553   8.749  18.266  0.00  0.00    +0.000 C 
BRANCH  25  26
ATOM     26  C   UNL     1       2.481   7.700  18.878  0.00  0.00    +0.000 C 
BRANCH  26  27
ATOM     27  C   UNL     1       2.679   6.466  17.995  0.00  0.00    +0.000 C 
BRANCH  27  28
ATOM     28  C   UNL     1       2.108   5.237  18.665  0.00  0.00    +0.000 A 
ATOM     29  C   UNL     1       1.737   4.131  17.889  0.00  0.00    +0.000 A 
ATOM     30  C   UNL     1       1.150   3.012  18.485  0.00  0.00    +0.000 A 
ATOM     31  C   UNL     1       0.927   2.988  19.856  0.00  0.00    +0.000 A 
ATOM     32  C   UNL     1       1.293   4.081  20.642  0.00  0.00    +0.000 A 
ATOM     33  C   UNL     1       1.881   5.204  20.049  0.00  0.00    +0.000 A 
ENDBRANCH  27  28
ENDBRANCH  26  27
ENDBRANCH  25  26
ENDBRANCH  23  25
ENDBRANCH   9  23
TORSDOF 10
ENDMDL
MODEL 9
REMARK VINA RESULT:      -7.1      4.613      9.036
REMARK  Name = 
REMARK  13 active torsions:
REMARK  status: ('A' for Active; 'I' for Inactive)
REMARK    1  A    between atoms: C_1  and  C_2
REMARK    2  A    between atoms: C_2  and  C_3
REMARK    3  A    between atoms: C_8  and  C_9
REMARK    4  A    between atoms: N_11  and  C_12
REMARK    5  A    between atoms: C_12  and  C_13
REMARK    6  A    between atoms: C_13  and  N_14
REMARK    7  A    between atoms: C_15  and  C_16
REMARK    8  A    between atoms: C_20  and  N_21
REMARK    9  A    between atoms: N_21  and  C_22
REMARK   10  A    between atoms: N_21  and  C_23
REMARK   11  A    between atoms: C_23  and  C_24
REMARK   12  A    between atoms: C_24  and  C_25
REMARK   13  A    between atoms: C_25  and  C_26
REMARK                            x       y       z     vdW  Elec       q    Type
REMARK                         _______ _______ _______ _____ _____    ______ ____
ROOT
ATOM      1  C   UNL     1      -0.777  11.031  18.245  0.00  0.00    +0.000 A 
ATOM      2  N   UNL     1      -1.144  12.352  18.098  0.00  0.00    +0.000 NA
ATOM      3  C   UNL     1      -0.283  13.039  18.797  0.00  0.00    +0.000 A 
ATOM      4  C   UNL     1      -0.216  14.443  19.006  0.00  0.00    +0.000 A 
ATOM      5  C   UNL     1       0.726  14.963  19.812  0.00  0.00    +0.000 A 
ATOM      6  C   UNL     1       1.701  14.106  20.478  0.00  0.00    +0.000 A 
ATOM      7  C   UNL     1       1.679  12.781  20.214  0.00  0.00    +0.000 A 
ATOM      8  N   UNL     1       0.681  12.229  19.398  0.00  0.00    +0.000 N 
ATOM      9  C   UNL     1       0.403  10.907  18.995  0.00  0.00    +0.000 A 
ENDROOT
BRANCH   6  10
ATOM     10  C   UNL     1       2.765  14.606  21.410  0.00  0.00    +0.000 C 
ATOM     11  O   UNL     1       2.503  14.934  22.564  0.00  0.00    +0.000 OA
ATOM     12  N   UNL     1       4.027  14.712  20.880  0.00  0.00    +0.000 N 
ATOM     13  H   UNL     1       4.221  14.466  19.921  0.00  0.00    +0.000 HD
BRANCH  12  14
ATOM     14  C   UNL     1       5.151  15.199  21.668  0.00  0.00    +0.000 C 
BRANCH  14  15
ATOM     15  C   UNL     1       6.170  14.094  21.979  0.00  0.00    +0.000 C 
BRANCH  15  16
ATOM     16  N   UNL     1       5.797  13.253  23.111  0.00  0.00    +0.000 N 
ATOM     17  C   UNL     1       6.512  12.132  23.455  0.00  0.00    +0.000 C 
ATOM     18  C   UNL     1       6.017  11.421  24.687  0.00  0.00    +0.000 C 
ATOM     19  O   UNL     1       7.468  11.716  22.810  0.00  0.00    +0.000 OA
ATOM     20  H   UNL     1       5.089  13.606  23.741  0.00  0.00    +0.000 HD
ENDBRANCH  15  16
ENDBRANCH  14  15
ENDBRANCH  12  14
ENDBRANCH   6  10
BRANCH   1  22
ATOM     21  C   UNL     1      -3.123  10.478  17.519  0.00  0.00    +0.000 C 
ATOM     22  C   UNL     1      -1.676  10.003  17.640  0.00  0.00    +0.000 C 
ENDBRANCH   1  22
BRANCH   9  23
ATOM     23  N   UNL     1       1.187   9.805  19.287  0.00  0.00    +0.000 N 
ATOM     24  C   UNL     1       0.997   8.978  20.476  0.00  0.00    +0.000 C 
BRANCH  23  25
ATOM     25  C   UNL     1       2.191   9.289  18.342  0.00  0.00    +0.000 C 
BRANCH  25  26
ATOM     26  C   UNL     1       1.867   7.891  17.817  0.00  0.00    +0.000 C 
BRANCH  26  27
ATOM     27  C   UNL     1       2.902   6.834  18.207  0.00  0.00    +0.000 C 
BRANCH  27  28
ATOM     28  C   UNL     1       2.218   5.590  18.728  0.00  0.00    +0.000 A 
ATOM     29  C   UNL     1       1.977   5.453  20.101  0.00  0.00    +0.000 A 
ATOM     30  C   UNL     1       1.404   4.284  20.607  0.00  0.00    +0.000 A 
ATOM     31  C   UNL     1       1.068   3.245  19.749  0.00  0.00    +0.000 A 
ATOM     32  C   UNL     1       1.299   3.367  18.379  0.00  0.00    +0.000 A 
ATOM     33  C   UNL     1       1.875   4.536  17.868  0.00  0.00    +0.000 A 
ENDBRANCH  27  28
ENDBRANCH  26  27
ENDBRANCH  25  26
ENDBRANCH  23  25
ENDBRANCH   9  23
TORSDOF 10
ENDMDL
