MODEL 1
REMARK VINA RESULT:      -8.0      0.000      0.000
REMARK  Name = 
REMARK  7 active torsions:
REMARK  status: ('A' for Active; 'I' for Inactive)
REMARK    1  A    between atoms: C_2  and  C_3
REMARK    2  A    between atoms: C_3  and  N_4
REMARK    3  A    between atoms: C_10  and  O_11
REMARK    4  A    between atoms: O_11  and  C_12
REMARK    5  A    between atoms: C_12  and  C_14
REMARK    6  A    between atoms: C_14  and  C_15
REMARK    7  A    between atoms: N_27  and  C_28
REMARK                            x       y       z     vdW  Elec       q    Type
REMARK                         _______ _______ _______ _____ _____    ______ ____
ROOT
ATOM      1  N   UNL     1       4.399   6.068  18.117  0.00  0.00    +0.000 N 
ATOM      2  C   UNL     1       4.208   5.798  19.621  0.00  0.00    +0.000 C 
ATOM      3  C   UNL     1       2.714   5.703  19.933  0.00  0.00    +0.000 C 
ATOM      4  C   UNL     1       1.871   5.959  18.676  0.00  0.00    +0.000 C 
ATOM      5  C   UNL     1       2.240   4.899  17.635  0.00  0.00    +0.000 C 
ATOM      6  C   UNL     1       3.733   4.941  17.317  0.00  0.00    +0.000 C 
ATOM      7  C   UNL     1       2.205   7.352  18.100  0.00  0.00    +0.000 C 
ATOM      8  C   UNL     1       3.710   7.414  17.754  0.00  0.00    +0.000 C 
ENDROOT
BRANCH   1   9
ATOM      9  C   UNL     1       5.927   6.109  17.744  0.00  0.00    +0.000 C 
BRANCH   9  11
ATOM     10  O   UNL     1       6.931   4.121  16.839  0.00  0.00    +0.000 OA
ATOM     11  C   UNL     1       6.382   5.190  16.596  0.00  0.00    +0.000 C 
ATOM     12  N   UNL     1       6.130   5.689  15.327  0.00  0.00    +0.000 N 
ATOM     13  H   UNL     1       5.857   6.659  15.212  0.00  0.00    +0.000 HD
BRANCH  12  14
ATOM     14  C   UNL     1       6.350   4.974  14.125  0.00  0.00    +0.000 A 
ATOM     15  C   UNL     1       7.465   5.187  13.309  0.00  0.00    +0.000 A 
ATOM     16  C   UNL     1       7.650   4.445  12.142  0.00  0.00    +0.000 A 
ATOM     17  C   UNL     1       6.721   3.479  11.778  0.00  0.00    +0.000 A 
ATOM     18  C   UNL     1       5.602   3.255  12.578  0.00  0.00    +0.000 A 
ATOM     19  C   UNL     1       5.419   3.994  13.753  0.00  0.00    +0.000 A 
ENDBRANCH  12  14
ENDBRANCH   9  11
ENDBRANCH   1   9
BRANCH   7  20
ATOM     20  O   UNL     1       1.926   8.378  19.072  0.00  0.00    +0.000 OA
BRANCH  20  21
ATOM     21  C   UNL     1       1.421   9.554  18.588  0.00  0.00    +0.000 C 
ATOM     22  O   UNL     1       1.978  10.200  17.708  0.00  0.00    +0.000 OA
BRANCH  21  23
ATOM     23  C   UNL     1       0.116   9.974  19.320  0.00  0.00    +0.000 C 
ATOM     24  C   UNL     1      -0.398   8.774  20.167  0.00  0.00    +0.000 C 
ATOM     25  C   UNL     1       0.309   8.537  21.507  0.00  0.00    +0.000 C 
ATOM     26  C   UNL     1      -0.318   9.308  22.669  0.00  0.00    +0.000 C 
ATOM     27  C   UNL     1      -0.116  10.818  22.640  0.00  0.00    +0.000 C 
ATOM     28  C   UNL     1      -0.554  11.494  21.343  0.00  0.00    +0.000 C 
ATOM     29  C   UNL     1       0.426  11.220  20.202  0.00  0.00    +0.000 C 
BRANCH  23  30
ATOM     30  C   UNL     1      -0.906  10.271  18.221  0.00  0.00    +0.000 C 
ATOM     31  C   UNL     1      -1.388   9.455  17.260  0.00  0.00    +0.000 C 
ATOM     32  C   UNL     1      -2.307  10.171  16.415  0.00  0.00    +0.000 C 
ATOM     33  C   UNL     1      -2.408  11.436  16.838  0.00  0.00    +0.000 C 
ATOM     34  C   UNL     1      -1.531  11.644  18.038  0.00  0.00    +0.000 C 
ENDBRANCH  23  30
ENDBRANCH  21  23
ENDBRANCH  20  21
ENDBRANCH   7  20
TORSDOF 7
ENDMDL
MODEL 2
REMARK VINA RESULT:      -8.0      3.137      9.563
REMARK  Name = 
REMARK  7 active torsions:
REMARK  status: ('A' for Active; 'I' for Inactive)
REMARK    1  A    between atoms: C_2  and  C_3
REMARK    2  A    between atoms: C_3  and  N_4
REMARK    3  A    between atoms: C_10  and  O_11
REMARK    4  A    between atoms: O_11  and  C_12
REMARK    5  A    between atoms: C_12  and  C_14
REMARK    6  A    between atoms: C_14  and  C_15
REMARK    7  A    between atoms: N_27  and  C_28
REMARK                            x       y       z     vdW  Elec       q    Type
REMARK                         _______ _______ _______ _____ _____    ______ ____
ROOT
ATOM      1  N   UNL     1      -0.108  10.432  19.253  0.00  0.00    +0.000 N 
ATOM      2  C   UNL     1      -1.021   9.379  19.910  0.00  0.00    +0.000 C 
ATOM      3  C   UNL     1      -0.212   8.568  20.922  0.00  0.00    +0.000 C 
ATOM      4  C   UNL     1       1.259   9.008  20.933  0.00  0.00    +0.000 C 
ATOM      5  C   UNL     1       1.307  10.489  21.317  0.00  0.00    +0.000 C 
ATOM      6  C   UNL     1       0.483  11.333  20.345  0.00  0.00    +0.000 C 
ATOM      7  C   UNL     1       1.860   8.846  19.521  0.00  0.00    +0.000 C 
ATOM      8  C   UNL     1       1.054   9.705  18.520  0.00  0.00    +0.000 C 
ENDROOT
BRANCH   1   9
ATOM      9  C   UNL     1      -0.920  11.332  18.250  0.00  0.00    +0.000 C 
BRANCH   9  11
ATOM     10  O   UNL     1      -2.869  10.084  17.599  0.00  0.00    +0.000 OA
ATOM     11  C   UNL     1      -2.437  11.080  18.169  0.00  0.00    +0.000 C 
ATOM     12  N   UNL     1      -3.214  12.061  18.765  0.00  0.00    +0.000 N 
ATOM     13  H   UNL     1      -2.792  12.943  19.036  0.00  0.00    +0.000 HD
BRANCH  12  14
ATOM     14  C   UNL     1      -4.620  11.988  18.920  0.00  0.00    +0.000 A 
ATOM     15  C   UNL     1      -5.471  11.533  17.908  0.00  0.00    +0.000 A 
ATOM     16  C   UNL     1      -6.849  11.460  18.112  0.00  0.00    +0.000 A 
ATOM     17  C   UNL     1      -7.393  11.840  19.332  0.00  0.00    +0.000 A 
ATOM     18  C   UNL     1      -6.559  12.299  20.350  0.00  0.00    +0.000 A 
ATOM     19  C   UNL     1      -5.175  12.366  20.150  0.00  0.00    +0.000 A 
ENDBRANCH  12  14
ENDBRANCH   9  11
ENDBRANCH   1   9
BRANCH   7  20
ATOM     20  O   UNL     1       1.782   7.471  19.096  0.00  0.00    +0.000 OA
BRANCH  20  21
ATOM     21  C   UNL     1       2.829   7.005  18.347  0.00  0.00    +0.000 C 
ATOM     22  O   UNL     1       3.469   7.722  17.588  0.00  0.00    +0.000 OA
BRANCH  21  23
ATOM     23  C   UNL     1       3.054   5.480  18.544  0.00  0.00    +0.000 C 
ATOM     24  C   UNL     1       3.101   5.168  20.069  0.00  0.00    +0.000 C 
ATOM     25  C   UNL     1       1.747   5.089  20.786  0.00  0.00    +0.000 C 
ATOM     26  C   UNL     1       1.132   3.689  20.769  0.00  0.00    +0.000 C 
ATOM     27  C   UNL     1       0.629   3.210  19.413  0.00  0.00    +0.000 C 
ATOM     28  C   UNL     1       1.661   3.279  18.290  0.00  0.00    +0.000 C 
ATOM     29  C   UNL     1       1.902   4.716  17.828  0.00  0.00    +0.000 C 
BRANCH  23  30
ATOM     30  C   UNL     1       4.426   5.175  17.941  0.00  0.00    +0.000 C 
ATOM     31  C   UNL     1       4.737   4.737  16.703  0.00  0.00    +0.000 C 
ATOM     32  C   UNL     1       6.159   4.548  16.584  0.00  0.00    +0.000 C 
ATOM     33  C   UNL     1       6.748   4.866  17.742  0.00  0.00    +0.000 C 
ATOM     34  C   UNL     1       5.714   5.305  18.737  0.00  0.00    +0.000 C 
ENDBRANCH  23  30
ENDBRANCH  21  23
ENDBRANCH  20  21
ENDBRANCH   7  20
TORSDOF 7
ENDMDL
MODEL 3
REMARK VINA RESULT:      -7.9      3.332     10.040
REMARK  Name = 
REMARK  7 active torsions:
REMARK  status: ('A' for Active; 'I' for Inactive)
REMARK    1  A    between atoms: C_2  and  C_3
REMARK    2  A    between atoms: C_3  and  N_4
REMARK    3  A    between atoms: C_10  and  O_11
REMARK    4  A    between atoms: O_11  and  C_12
REMARK    5  A    between atoms: C_12  and  C_14
REMARK    6  A    between atoms: C_14  and  C_15
REMARK    7  A    between atoms: N_27  and  C_28
REMARK                            x       y       z     vdW  Elec       q    Type
REMARK                         _______ _______ _______ _____ _____    ______ ____
ROOT
ATOM      1  N   UNL     1       0.559  10.854  20.042  0.00  0.00    +0.000 N 
ATOM      2  C   UNL     1       1.793  11.305  19.238  0.00  0.00    +0.000 C 
ATOM      3  C   UNL     1       1.948  10.414  18.005  0.00  0.00    +0.000 C 
ATOM      4  C   UNL     1       0.872   9.319  17.977  0.00  0.00    +0.000 C 
ATOM      5  C   UNL     1      -0.497  10.002  17.939  0.00  0.00    +0.000 C 
ATOM      6  C   UNL     1      -0.681  10.928  19.140  0.00  0.00    +0.000 C 
ATOM      7  C   UNL     1       0.962   8.468  19.262  0.00  0.00    +0.000 C 
ATOM      8  C   UNL     1       0.762   9.380  20.493  0.00  0.00    +0.000 C 
ENDROOT
BRANCH   1   9
ATOM      9  C   UNL     1       0.328  11.789  21.286  0.00  0.00    +0.000 C 
BRANCH   9  11
ATOM     10  O   UNL     1      -1.079  10.616  22.842  0.00  0.00    +0.000 OA
ATOM     11  C   UNL     1      -0.972  11.570  22.081  0.00  0.00    +0.000 C 
ATOM     12  N   UNL     1      -1.959  12.515  21.837  0.00  0.00    +0.000 N 
ATOM     13  H   UNL     1      -1.865  13.150  21.053  0.00  0.00    +0.000 HD
BRANCH  12  14
ATOM     14  C   UNL     1      -3.188  12.589  22.536  0.00  0.00    +0.000 A 
ATOM     15  C   UNL     1      -3.277  12.493  23.928  0.00  0.00    +0.000 A 
ATOM     16  C   UNL     1      -4.508  12.590  24.575  0.00  0.00    +0.000 A 
ATOM     17  C   UNL     1      -5.668  12.787  23.837  0.00  0.00    +0.000 A 
ATOM     18  C   UNL     1      -5.598  12.883  22.449  0.00  0.00    +0.000 A 
ATOM     19  C   UNL     1      -4.362  12.792  21.798  0.00  0.00    +0.000 A 
ENDBRANCH  12  14
ENDBRANCH   9  11
ENDBRANCH   1   9
BRANCH   7  20
ATOM     20  O   UNL     1       2.260   7.851  19.366  0.00  0.00    +0.000 OA
BRANCH  20  21
ATOM     21  C   UNL     1       2.294   6.589  19.896  0.00  0.00    +0.000 C 
ATOM     22  O   UNL     1       1.768   6.309  20.966  0.00  0.00    +0.000 OA
BRANCH  21  23
ATOM     23  C   UNL     1       3.111   5.607  19.012  0.00  0.00    +0.000 C 
ATOM     24  C   UNL     1       3.145   6.148  17.553  0.00  0.00    +0.000 C 
ATOM     25  C   UNL     1       4.147   7.276  17.272  0.00  0.00    +0.000 C 
ATOM     26  C   UNL     1       5.529   6.771  16.856  0.00  0.00    +0.000 C 
ATOM     27  C   UNL     1       6.340   6.100  17.956  0.00  0.00    +0.000 C 
ATOM     28  C   UNL     1       5.623   4.957  18.670  0.00  0.00    +0.000 C 
ATOM     29  C   UNL     1       4.539   5.471  19.617  0.00  0.00    +0.000 C 
BRANCH  23  30
ATOM     30  C   UNL     1       2.338   4.287  19.025  0.00  0.00    +0.000 C 
ATOM     31  C   UNL     1       1.352   3.866  18.206  0.00  0.00    +0.000 C 
ATOM     32  C   UNL     1       0.887   2.566  18.614  0.00  0.00    +0.000 C 
ATOM     33  C   UNL     1       1.575   2.164  19.688  0.00  0.00    +0.000 C 
ATOM     34  C   UNL     1       2.581   3.211  20.071  0.00  0.00    +0.000 C 
ENDBRANCH  23  30
ENDBRANCH  21  23
ENDBRANCH  20  21
ENDBRANCH   7  20
TORSDOF 7
ENDMDL
MODEL 4
REMARK VINA RESULT:      -7.8      3.028      9.535
REMARK  Name = 
REMARK  7 active torsions:
REMARK  status: ('A' for Active; 'I' for Inactive)
REMARK    1  A    between atoms: C_2  and  C_3
REMARK    2  A    between atoms: C_3  and  N_4
REMARK    3  A    between atoms: C_10  and  O_11
REMARK    4  A    between atoms: O_11  and  C_12
REMARK    5  A    between atoms: C_12  and  C_14
REMARK    6  A    between atoms: C_14  and  C_15
REMARK    7  A    between atoms: N_27  and  C_28
REMARK                            x       y       z     vdW  Elec       q    Type
REMARK                         _______ _______ _______ _____ _____    ______ ____
ROOT
ATOM      1  N   UNL     1       0.034  10.374  19.697  0.00  0.00    +0.000 N 
ATOM      2  C   UNL     1      -0.991   9.321  20.157  0.00  0.00    +0.000 C 
ATOM      3  C   UNL     1      -0.310   8.327  21.097  0.00  0.00    +0.000 C 
ATOM      4  C   UNL     1       1.184   8.646  21.249  0.00  0.00    +0.000 C 
ATOM      5  C   UNL     1       1.310  10.057  21.827  0.00  0.00    +0.000 C 
ATOM      6  C   UNL     1       0.614  11.080  20.930  0.00  0.00    +0.000 C 
ATOM      7  C   UNL     1       1.865   8.619  19.864  0.00  0.00    +0.000 C 
ATOM      8  C   UNL     1       1.189   9.659  18.942  0.00  0.00    +0.000 C 
ENDROOT
BRANCH   1   9
ATOM      9  C   UNL     1      -0.645  11.455  18.777  0.00  0.00    +0.000 C 
BRANCH   9  11
ATOM     10  O   UNL     1      -2.281  12.595  20.119  0.00  0.00    +0.000 OA
ATOM     11  C   UNL     1      -2.079  11.875  19.149  0.00  0.00    +0.000 C 
ATOM     12  N   UNL     1      -3.061  11.360  18.316  0.00  0.00    +0.000 N 
ATOM     13  H   UNL     1      -2.831  10.619  17.663  0.00  0.00    +0.000 HD
BRANCH  12  14
ATOM     14  C   UNL     1      -4.434  11.701  18.387  0.00  0.00    +0.000 A 
ATOM     15  C   UNL     1      -5.133  11.782  19.595  0.00  0.00    +0.000 A 
ATOM     16  C   UNL     1      -6.481  12.140  19.619  0.00  0.00    +0.000 A 
ATOM     17  C   UNL     1      -7.146  12.424  18.433  0.00  0.00    +0.000 A 
ATOM     18  C   UNL     1      -6.465  12.346  17.220  0.00  0.00    +0.000 A 
ATOM     19  C   UNL     1      -5.110  11.994  17.195  0.00  0.00    +0.000 A 
ENDBRANCH  12  14
ENDBRANCH   9  11
ENDBRANCH   1   9
BRANCH   7  20
ATOM     20  O   UNL     1       1.719   7.320  19.257  0.00  0.00    +0.000 OA
BRANCH  20  21
ATOM     21  C   UNL     1       2.758   6.893  18.474  0.00  0.00    +0.000 C 
ATOM     22  O   UNL     1       3.356   7.639  17.708  0.00  0.00    +0.000 OA
BRANCH  21  23
ATOM     23  C   UNL     1       3.030   5.373  18.643  0.00  0.00    +0.000 C 
ATOM     24  C   UNL     1       2.947   5.008  20.154  0.00  0.00    +0.000 C 
ATOM     25  C   UNL     1       1.537   4.848  20.737  0.00  0.00    +0.000 C 
ATOM     26  C   UNL     1       0.989   3.426  20.616  0.00  0.00    +0.000 C 
ATOM     27  C   UNL     1       0.637   2.976  19.204  0.00  0.00    +0.000 C 
ATOM     28  C   UNL     1       1.765   3.127  18.186  0.00  0.00    +0.000 C 
ATOM     29  C   UNL     1       1.984   4.589  17.796  0.00  0.00    +0.000 C 
BRANCH  23  30
ATOM     30  C   UNL     1       4.465   5.146  18.163  0.00  0.00    +0.000 C 
ATOM     31  C   UNL     1       5.624   5.293  18.838  0.00  0.00    +0.000 C 
ATOM     32  C   UNL     1       6.741   5.007  17.976  0.00  0.00    +0.000 C 
ATOM     33  C   UNL     1       6.292   4.680  16.759  0.00  0.00    +0.000 C 
ATOM     34  C   UNL     1       4.792   4.727  16.740  0.00  0.00    +0.000 C 
ENDBRANCH  23  30
ENDBRANCH  21  23
ENDBRANCH  20  21
ENDBRANCH   7  20
TORSDOF 7
ENDMDL
MODEL 5
REMARK VINA RESULT:      -7.8      3.127      9.998
REMARK  Name = 
REMARK  7 active torsions:
REMARK  status: ('A' for Active; 'I' for Inactive)
REMARK    1  A    between atoms: C_2  and  C_3
REMARK    2  A    between atoms: C_3  and  N_4
REMARK    3  A    between atoms: C_10  and  O_11
REMARK    4  A    between atoms: O_11  and  C_12
REMARK    5  A    between atoms: C_12  and  C_14
REMARK    6  A    between atoms: C_14  and  C_15
REMARK    7  A    between atoms: N_27  and  C_28
REMARK                            x       y       z     vdW  Elec       q    Type
REMARK                         _______ _______ _______ _____ _____    ______ ____
ROOT
ATOM      1  N   UNL     1       0.237  10.229  20.175  0.00  0.00    +0.000 N 
ATOM      2  C   UNL     1      -0.829   9.162  20.488  0.00  0.00    +0.000 C 
ATOM      3  C   UNL     1      -0.172   7.988  21.215  0.00  0.00    +0.000 C 
ATOM      4  C   UNL     1       1.341   8.203  21.357  0.00  0.00    +0.000 C 
ATOM      5  C   UNL     1       1.562   9.485  22.164  0.00  0.00    +0.000 C 
ATOM      6  C   UNL     1       0.894  10.681  21.486  0.00  0.00    +0.000 C 
ATOM      7  C   UNL     1       1.974   8.385  19.961  0.00  0.00    +0.000 C 
ATOM      8  C   UNL     1       1.326   9.601  19.260  0.00  0.00    +0.000 C 
ENDROOT
BRANCH   1   9
ATOM      9  C   UNL     1      -0.412  11.485  19.484  0.00  0.00    +0.000 C 
BRANCH   9  11
ATOM     10  O   UNL     1      -2.773  11.931  19.539  0.00  0.00    +0.000 OA
ATOM     11  C   UNL     1      -1.700  12.035  20.122  0.00  0.00    +0.000 C 
ATOM     12  N   UNL     1      -1.514  12.643  21.355  0.00  0.00    +0.000 N 
ATOM     13  H   UNL     1      -0.577  12.864  21.672  0.00  0.00    +0.000 HD
BRANCH  12  14
ATOM     14  C   UNL     1      -2.562  13.115  22.183  0.00  0.00    +0.000 A 
ATOM     15  C   UNL     1      -3.147  14.375  22.021  0.00  0.00    +0.000 A 
ATOM     16  C   UNL     1      -4.190  14.791  22.849  0.00  0.00    +0.000 A 
ATOM     17  C   UNL     1      -4.662  13.950  23.848  0.00  0.00    +0.000 A 
ATOM     18  C   UNL     1      -4.089  12.692  24.024  0.00  0.00    +0.000 A 
ATOM     19  C   UNL     1      -3.047  12.271  23.190  0.00  0.00    +0.000 A 
ENDBRANCH  12  14
ENDBRANCH   9  11
ENDBRANCH   1   9
BRANCH   7  20
ATOM     20  O   UNL     1       1.739   7.220  19.147  0.00  0.00    +0.000 OA
BRANCH  20  21
ATOM     21  C   UNL     1       2.793   6.783  18.390  0.00  0.00    +0.000 C 
ATOM     22  O   UNL     1       3.424   7.525  17.647  0.00  0.00    +0.000 OA
BRANCH  21  23
ATOM     23  C   UNL     1       3.036   5.257  18.554  0.00  0.00    +0.000 C 
ATOM     24  C   UNL     1       3.030   4.904  20.070  0.00  0.00    +0.000 C 
ATOM     25  C   UNL     1       1.652   4.783  20.733  0.00  0.00    +0.000 C 
ATOM     26  C   UNL     1       1.062   3.374  20.654  0.00  0.00    +0.000 C 
ATOM     27  C   UNL     1       0.619   2.926  19.267  0.00  0.00    +0.000 C 
ATOM     28  C   UNL     1       1.691   3.042  18.186  0.00  0.00    +0.000 C 
ATOM     29  C   UNL     1       1.924   4.495  17.774  0.00  0.00    +0.000 C 
BRANCH  23  30
ATOM     30  C   UNL     1       4.435   4.991  17.995  0.00  0.00    +0.000 C 
ATOM     31  C   UNL     1       5.635   5.133  18.595  0.00  0.00    +0.000 C 
ATOM     32  C   UNL     1       6.693   4.805  17.676  0.00  0.00    +0.000 C 
ATOM     33  C   UNL     1       6.165   4.455  16.497  0.00  0.00    +0.000 C 
ATOM     34  C   UNL     1       4.667   4.531  16.566  0.00  0.00    +0.000 C 
ENDBRANCH  23  30
ENDBRANCH  21  23
ENDBRANCH  20  21
ENDBRANCH   7  20
TORSDOF 7
ENDMDL
MODEL 6
REMARK VINA RESULT:      -7.7      0.976      1.288
REMARK  Name = 
REMARK  7 active torsions:
REMARK  status: ('A' for Active; 'I' for Inactive)
REMARK    1  A    between atoms: C_2  and  C_3
REMARK    2  A    between atoms: C_3  and  N_4
REMARK    3  A    between atoms: C_10  and  O_11
REMARK    4  A    between atoms: O_11  and  C_12
REMARK    5  A    between atoms: C_12  and  C_14
REMARK    6  A    between atoms: C_14  and  C_15
REMARK    7  A    between atoms: N_27  and  C_28
REMARK                            x       y       z     vdW  Elec       q    Type
REMARK                         _______ _______ _______ _____ _____    ______ ____
ROOT
ATOM      1  N   UNL     1       3.959   6.106  18.194  0.00  0.00    +0.000 N 
ATOM      2  C   UNL     1       3.965   5.821  19.707  0.00  0.00    +0.000 C 
ATOM      3  C   UNL     1       2.525   5.763  20.218  0.00  0.00    +0.000 C 
ATOM      4  C   UNL     1       1.527   6.062  19.090  0.00  0.00    +0.000 C 
ATOM      5  C   UNL     1       1.719   5.007  17.997  0.00  0.00    +0.000 C 
ATOM      6  C   UNL     1       3.156   5.010  17.480  0.00  0.00    +0.000 C 
ATOM      7  C   UNL     1       1.823   7.452  18.489  0.00  0.00    +0.000 C 
ATOM      8  C   UNL     1       3.268   7.476  17.941  0.00  0.00    +0.000 C 
ENDROOT
BRANCH   1   9
ATOM      9  C   UNL     1       5.422   6.109  17.617  0.00  0.00    +0.000 C 
BRANCH   9  11
ATOM     10  O   UNL     1       5.205   6.915  15.363  0.00  0.00    +0.000 OA
ATOM     11  C   UNL     1       5.562   5.994  16.088  0.00  0.00    +0.000 C 
ATOM     12  N   UNL     1       6.093   4.790  15.650  0.00  0.00    +0.000 N 
ATOM     13  H   UNL     1       6.176   4.011  16.294  0.00  0.00    +0.000 HD
BRANCH  12  14
ATOM     14  C   UNL     1       6.424   4.502  14.303  0.00  0.00    +0.000 A 
ATOM     15  C   UNL     1       5.711   3.583  13.527  0.00  0.00    +0.000 A 
ATOM     16  C   UNL     1       6.062   3.345  12.198  0.00  0.00    +0.000 A 
ATOM     17  C   UNL     1       7.131   4.025  11.628  0.00  0.00    +0.000 A 
ATOM     18  C   UNL     1       7.854   4.941  12.389  0.00  0.00    +0.000 A 
ATOM     19  C   UNL     1       7.499   5.187  13.720  0.00  0.00    +0.000 A 
ENDBRANCH  12  14
ENDBRANCH   9  11
ENDBRANCH   1   9
BRANCH   7  20
ATOM     20  O   UNL     1       1.709   8.472  19.500  0.00  0.00    +0.000 OA
BRANCH  20  21
ATOM     21  C   UNL     1       1.262   9.697  19.083  0.00  0.00    +0.000 C 
ATOM     22  O   UNL     1       1.924  10.429  18.357  0.00  0.00    +0.000 OA
BRANCH  21  23
ATOM     23  C   UNL     1      -0.129  10.045  19.680  0.00  0.00    +0.000 C 
ATOM     24  C   UNL     1      -0.496   8.986  20.761  0.00  0.00    +0.000 C 
ATOM     25  C   UNL     1       0.167   9.162  22.134  0.00  0.00    +0.000 C 
ATOM     26  C   UNL     1      -0.634  10.050  23.086  0.00  0.00    +0.000 C 
ATOM     27  C   UNL     1      -0.668  11.531  22.728  0.00  0.00    +0.000 C 
ATOM     28  C   UNL     1      -1.135  11.833  21.306  0.00  0.00    +0.000 C 
ATOM     29  C   UNL     1      -0.065  11.484  20.272  0.00  0.00    +0.000 C 
BRANCH  23  30
ATOM     30  C   UNL     1      -1.125   9.928  18.524  0.00  0.00    +0.000 C 
ATOM     31  C   UNL     1      -0.887   9.768  17.206  0.00  0.00    +0.000 C 
ATOM     32  C   UNL     1      -2.128   9.747  16.476  0.00  0.00    +0.000 C 
ATOM     33  C   UNL     1      -3.148   9.892  17.328  0.00  0.00    +0.000 C 
ATOM     34  C   UNL     1      -2.627  10.020  18.730  0.00  0.00    +0.000 C 
ENDBRANCH  23  30
ENDBRANCH  21  23
ENDBRANCH  20  21
ENDBRANCH   7  20
TORSDOF 7
ENDMDL
MODEL 7
REMARK VINA RESULT:      -7.7      3.220      8.604
REMARK  Name = 
REMARK  7 active torsions:
REMARK  status: ('A' for Active; 'I' for Inactive)
REMARK    1  A    between atoms: C_2  and  C_3
REMARK    2  A    between atoms: C_3  and  N_4
REMARK    3  A    between atoms: C_10  and  O_11
REMARK    4  A    between atoms: O_11  and  C_12
REMARK    5  A    between atoms: C_12  and  C_14
REMARK    6  A    between atoms: C_14  and  C_15
REMARK    7  A    between atoms: N_27  and  C_28
REMARK                            x       y       z     vdW  Elec       q    Type
REMARK                         _______ _______ _______ _____ _____    ______ ____
ROOT
ATOM      1  N   UNL     1       0.150  10.253  19.962  0.00  0.00    +0.000 N 
ATOM      2  C   UNL     1      -0.899   9.188  20.333  0.00  0.00    +0.000 C 
ATOM      3  C   UNL     1      -0.234   8.088  21.161  0.00  0.00    +0.000 C 
ATOM      4  C   UNL     1       1.270   8.350  21.319  0.00  0.00    +0.000 C 
ATOM      5  C   UNL     1       1.445   9.695  22.030  0.00  0.00    +0.000 C 
ATOM      6  C   UNL     1       0.766  10.819  21.248  0.00  0.00    +0.000 C 
ATOM      7  C   UNL     1       1.931   8.440  19.927  0.00  0.00    +0.000 C 
ATOM      8  C   UNL     1       1.273   9.583  19.122  0.00  0.00    +0.000 C 
ENDROOT
BRANCH   1   9
ATOM      9  C   UNL     1      -0.511  11.436  19.163  0.00  0.00    +0.000 C 
BRANCH   9  11
ATOM     10  O   UNL     1      -0.215  13.634  20.090  0.00  0.00    +0.000 OA
ATOM     11  C   UNL     1       0.175  12.810  19.271  0.00  0.00    +0.000 C 
ATOM     12  N   UNL     1       1.217  13.003  18.375  0.00  0.00    +0.000 N 
ATOM     13  H   UNL     1       1.345  12.356  17.605  0.00  0.00    +0.000 HD
BRANCH  12  14
ATOM     14  C   UNL     1       2.069  14.134  18.367  0.00  0.00    +0.000 A 
ATOM     15  C   UNL     1       1.599  15.439  18.548  0.00  0.00    +0.000 A 
ATOM     16  C   UNL     1       2.478  16.522  18.550  0.00  0.00    +0.000 A 
ATOM     17  C   UNL     1       3.839  16.313  18.374  0.00  0.00    +0.000 A 
ATOM     18  C   UNL     1       4.324  15.019  18.189  0.00  0.00    +0.000 A 
ATOM     19  C   UNL     1       3.444  13.931  18.193  0.00  0.00    +0.000 A 
ENDBRANCH  12  14
ENDBRANCH   9  11
ENDBRANCH   1   9
BRANCH   7  20
ATOM     20  O   UNL     1       1.741   7.211  19.200  0.00  0.00    +0.000 OA
BRANCH  20  21
ATOM     21  C   UNL     1       2.792   6.789  18.431  0.00  0.00    +0.000 C 
ATOM     22  O   UNL     1       3.428   7.547  17.709  0.00  0.00    +0.000 OA
BRANCH  21  23
ATOM     23  C   UNL     1       3.026   5.258  18.552  0.00  0.00    +0.000 C 
ATOM     24  C   UNL     1       3.120   4.878  20.060  0.00  0.00    +0.000 C 
ATOM     25  C   UNL     1       1.789   4.762  20.813  0.00  0.00    +0.000 C 
ATOM     26  C   UNL     1       1.177   3.362  20.752  0.00  0.00    +0.000 C 
ATOM     27  C   UNL     1       0.634   2.942  19.392  0.00  0.00    +0.000 C 
ATOM     28  C   UNL     1       1.631   3.065  18.242  0.00  0.00    +0.000 C 
ATOM     29  C   UNL     1       1.855   4.522  17.838  0.00  0.00    +0.000 C 
BRANCH  23  30
ATOM     30  C   UNL     1       4.380   4.985  17.895  0.00  0.00    +0.000 C 
ATOM     31  C   UNL     1       4.652   4.574  16.639  0.00  0.00    +0.000 C 
ATOM     32  C   UNL     1       6.072   4.410  16.465  0.00  0.00    +0.000 C 
ATOM     33  C   UNL     1       6.698   4.716  17.607  0.00  0.00    +0.000 C 
ATOM     34  C   UNL     1       5.693   5.121  18.647  0.00  0.00    +0.000 C 
ENDBRANCH  23  30
ENDBRANCH  21  23
ENDBRANCH  20  21
ENDBRANCH   7  20
TORSDOF 7
ENDMDL
MODEL 8
REMARK VINA RESULT:      -7.7      3.258      9.696
REMARK  Name = 
REMARK  7 active torsions:
REMARK  status: ('A' for Active; 'I' for Inactive)
REMARK    1  A    between atoms: C_2  and  C_3
REMARK    2  A    between atoms: C_3  and  N_4
REMARK    3  A    between atoms: C_10  and  O_11
REMARK    4  A    between atoms: O_11  and  C_12
REMARK    5  A    between atoms: C_12  and  C_14
REMARK    6  A    between atoms: C_14  and  C_15
REMARK    7  A    between atoms: N_27  and  C_28
REMARK                            x       y       z     vdW  Elec       q    Type
REMARK                         _______ _______ _______ _____ _____    ______ ____
ROOT
ATOM      1  N   UNL     1      -0.325  10.661  18.989  0.00  0.00    +0.000 N 
ATOM      2  C   UNL     1      -1.113   9.642  19.835  0.00  0.00    +0.000 C 
ATOM      3  C   UNL     1      -0.186   9.032  20.886  0.00  0.00    +0.000 C 
ATOM      4  C   UNL     1       1.244   9.572  20.743  0.00  0.00    +0.000 C 
ATOM      5  C   UNL     1       1.197  11.091  20.929  0.00  0.00    +0.000 C 
ATOM      6  C   UNL     1       0.255  11.738  19.915  0.00  0.00    +0.000 C 
ATOM      7  C   UNL     1       1.775   9.267  19.326  0.00  0.00    +0.000 C 
ATOM      8  C   UNL     1       0.848   9.927  18.279  0.00  0.00    +0.000 C 
ENDROOT
BRANCH   1   9
ATOM      9  C   UNL     1      -1.261  11.360  17.936  0.00  0.00    +0.000 C 
BRANCH   9  11
ATOM     10  O   UNL     1      -3.346  10.192  17.674  0.00  0.00    +0.000 OA
ATOM     11  C   UNL     1      -2.777  11.177  18.131  0.00  0.00    +0.000 C 
ATOM     12  N   UNL     1      -3.393  12.204  18.829  0.00  0.00    +0.000 N 
ATOM     13  H   UNL     1      -2.893  13.070  18.998  0.00  0.00    +0.000 HD
BRANCH  12  14
ATOM     14  C   UNL     1      -4.751  12.199  19.232  0.00  0.00    +0.000 A 
ATOM     15  C   UNL     1      -5.144  12.235  20.574  0.00  0.00    +0.000 A 
ATOM     16  C   UNL     1      -6.494  12.247  20.924  0.00  0.00    +0.000 A 
ATOM     17  C   UNL     1      -7.469  12.225  19.935  0.00  0.00    +0.000 A 
ATOM     18  C   UNL     1      -7.095  12.187  18.593  0.00  0.00    +0.000 A 
ATOM     19  C   UNL     1      -5.740  12.181  18.240  0.00  0.00    +0.000 A 
ENDBRANCH  12  14
ENDBRANCH   9  11
ENDBRANCH   1   9
BRANCH   7  20
ATOM     20  O   UNL     1       1.781   7.846  19.086  0.00  0.00    +0.000 OA
BRANCH  20  21
ATOM     21  C   UNL     1       2.781   7.369  18.281  0.00  0.00    +0.000 C 
ATOM     22  O   UNL     1       3.342   8.064  17.443  0.00  0.00    +0.000 OA
BRANCH  21  23
ATOM     23  C   UNL     1       3.060   5.861  18.530  0.00  0.00    +0.000 C 
ATOM     24  C   UNL     1       3.049   5.590  20.063  0.00  0.00    +0.000 C 
ATOM     25  C   UNL     1       1.668   5.470  20.720  0.00  0.00    +0.000 C 
ATOM     26  C   UNL     1       1.114   4.045  20.714  0.00  0.00    +0.000 C 
ATOM     27  C   UNL     1       0.695   3.511  19.350  0.00  0.00    +0.000 C 
ATOM     28  C   UNL     1       1.773   3.596  18.273  0.00  0.00    +0.000 C 
ATOM     29  C   UNL     1       1.975   5.030  17.784  0.00  0.00    +0.000 C 
BRANCH  23  30
ATOM     30  C   UNL     1       4.470   5.600  17.997  0.00  0.00    +0.000 C 
ATOM     31  C   UNL     1       5.660   5.772  18.611  0.00  0.00    +0.000 C 
ATOM     32  C   UNL     1       6.735   5.436  17.715  0.00  0.00    +0.000 C 
ATOM     33  C   UNL     1       6.229   5.053  16.537  0.00  0.00    +0.000 C 
ATOM     34  C   UNL     1       4.730   5.110  16.583  0.00  0.00    +0.000 C 
ENDBRANCH  23  30
ENDBRANCH  21  23
ENDBRANCH  20  21
ENDBRANCH   7  20
TORSDOF 7
ENDMDL
MODEL 9
REMARK VINA RESULT:      -7.6      3.310      9.208
REMARK  Name = 
REMARK  7 active torsions:
REMARK  status: ('A' for Active; 'I' for Inactive)
REMARK    1  A    between atoms: C_2  and  C_3
REMARK    2  A    between atoms: C_3  and  N_4
REMARK    3  A    between atoms: C_10  and  O_11
REMARK    4  A    between atoms: O_11  and  C_12
REMARK    5  A    between atoms: C_12  and  C_14
REMARK    6  A    between atoms: C_14  and  C_15
REMARK    7  A    between atoms: N_27  and  C_28
REMARK                            x       y       z     vdW  Elec       q    Type
REMARK                         _______ _______ _______ _____ _____    ______ ____
ROOT
ATOM      1  N   UNL     1       0.171  10.290  19.921  0.00  0.00    +0.000 N 
ATOM      2  C   UNL     1      -0.892   9.244  20.308  0.00  0.00    +0.000 C 
ATOM      3  C   UNL     1      -0.246   8.161  21.172  0.00  0.00    +0.000 C 
ATOM      4  C   UNL     1       1.259   8.413  21.340  0.00  0.00    +0.000 C 
ATOM      5  C   UNL     1       1.438   9.774  22.017  0.00  0.00    +0.000 C 
ATOM      6  C   UNL     1       0.778  10.883  21.199  0.00  0.00    +0.000 C 
ATOM      7  C   UNL     1       1.936   8.461  19.954  0.00  0.00    +0.000 C 
ATOM      8  C   UNL     1       1.298   9.588  19.111  0.00  0.00    +0.000 C 
ENDROOT
BRANCH   1   9
ATOM      9  C   UNL     1      -0.470  11.458  19.084  0.00  0.00    +0.000 C 
BRANCH   9  11
ATOM     10  O   UNL     1       1.440  12.725  18.360  0.00  0.00    +0.000 OA
ATOM     11  C   UNL     1       0.363  12.744  18.945  0.00  0.00    +0.000 C 
ATOM     12  N   UNL     1      -0.205  13.862  19.538  0.00  0.00    +0.000 N 
ATOM     13  H   UNL     1      -0.992  13.753  20.168  0.00  0.00    +0.000 HD
BRANCH  12  14
ATOM     14  C   UNL     1       0.316  15.176  19.439  0.00  0.00    +0.000 A 
ATOM     15  C   UNL     1       1.431  15.606  20.166  0.00  0.00    +0.000 A 
ATOM     16  C   UNL     1       1.920  16.905  20.022  0.00  0.00    +0.000 A 
ATOM     17  C   UNL     1       1.301  17.788  19.147  0.00  0.00    +0.000 A 
ATOM     18  C   UNL     1       0.188  17.376  18.417  0.00  0.00    +0.000 A 
ATOM     19  C   UNL     1      -0.301  16.072  18.555  0.00  0.00    +0.000 A 
ENDBRANCH  12  14
ENDBRANCH   9  11
ENDBRANCH   1   9
BRANCH   7  20
ATOM     20  O   UNL     1       1.742   7.215  19.256  0.00  0.00    +0.000 OA
BRANCH  20  21
ATOM     21  C   UNL     1       2.779   6.789  18.471  0.00  0.00    +0.000 C 
ATOM     22  O   UNL     1       3.375   7.535  17.702  0.00  0.00    +0.000 OA
BRANCH  21  23
ATOM     23  C   UNL     1       3.053   5.269  18.639  0.00  0.00    +0.000 C 
ATOM     24  C   UNL     1       2.970   4.904  20.151  0.00  0.00    +0.000 C 
ATOM     25  C   UNL     1       1.560   4.742  20.732  0.00  0.00    +0.000 C 
ATOM     26  C   UNL     1       1.013   3.319  20.612  0.00  0.00    +0.000 C 
ATOM     27  C   UNL     1       0.663   2.869  19.199  0.00  0.00    +0.000 C 
ATOM     28  C   UNL     1       1.791   3.022  18.182  0.00  0.00    +0.000 C 
ATOM     29  C   UNL     1       2.010   4.483  17.792  0.00  0.00    +0.000 C 
BRANCH  23  30
ATOM     30  C   UNL     1       4.489   5.044  18.161  0.00  0.00    +0.000 C 
ATOM     31  C   UNL     1       5.648   5.199  18.834  0.00  0.00    +0.000 C 
ATOM     32  C   UNL     1       6.766   4.911  17.974  0.00  0.00    +0.000 C 
ATOM     33  C   UNL     1       6.317   4.575  16.759  0.00  0.00    +0.000 C 
ATOM     34  C   UNL     1       4.817   4.618  16.740  0.00  0.00    +0.000 C 
ENDBRANCH  23  30
ENDBRANCH  21  23
ENDBRANCH  20  21
ENDBRANCH   7  20
TORSDOF 7
ENDMDL
