MODEL 1
REMARK VINA RESULT:      -8.0      0.000      0.000
REMARK  Name = 
REMARK  5 active torsions:
REMARK  status: ('A' for Active; 'I' for Inactive)
REMARK    1  A    between atoms: C_1  and  C_2
REMARK    2  A    between atoms: C_2  and  O_3
REMARK    3  A    between atoms: C_2  and  C_14
REMARK    4  A    between atoms: O_3  and  C_4
REMARK    5  A    between atoms: N_16  and  C_17
REMARK                            x       y       z     vdW  Elec       q    Type
REMARK                         _______ _______ _______ _____ _____    ______ ____
ROOT
ATOM      1  C   UNL     1       2.799   2.717  20.192  0.00  0.00    +0.000 C 
ATOM      2  C   UNL     1       3.693   3.874  19.725  0.00  0.00    +0.000 C 
ENDROOT
BRANCH   2   3
ATOM      3  C   UNL     1       2.742   5.022  19.333  0.00  0.00    +0.000 C 
ATOM      4  O   UNL     1       1.862   4.791  18.501  0.00  0.00    +0.000 OA
ATOM      5  N   UNL     1       3.000   6.259  19.897  0.00  0.00    +0.000 N 
ATOM      6  H   UNL     1       3.830   6.326  20.476  0.00  0.00    +0.000 HD
BRANCH   5   7
ATOM      7  C   UNL     1       2.264   7.444  19.640  0.00  0.00    +0.000 A 
ATOM      8  C   UNL     1       1.484   8.086  20.611  0.00  0.00    +0.000 A 
ATOM      9  C   UNL     1       0.728   9.223  20.306  0.00  0.00    +0.000 A 
ATOM     10  C   UNL     1       0.756   9.742  19.021  0.00  0.00    +0.000 A 
ATOM     11 CL   UNL     1      -0.194  11.123  18.640  0.00  0.00    +0.000 Cl
ATOM     12  C   UNL     1       1.550   9.141  18.046  0.00  0.00    +0.000 A 
ATOM     13  C   UNL     1       2.309   8.001  18.356  0.00  0.00    +0.000 A 
ENDBRANCH   5   7
ENDBRANCH   2   3
BRANCH   2  14
ATOM     14  O   UNL     1       4.596   3.455  18.698  0.00  0.00    +0.000 OA
BRANCH  14  15
ATOM     15  C   UNL     1       5.593   4.355  18.355  0.00  0.00    +0.000 A 
ATOM     16  C   UNL     1       6.288   5.122  19.303  0.00  0.00    +0.000 A 
ATOM     17  C   UNL     1       7.270   6.030  18.917  0.00  0.00    +0.000 A 
ATOM     18  C   UNL     1       7.581   6.182  17.574  0.00  0.00    +0.000 A 
ATOM     19  C   UNL     1       6.940   5.409  16.603  0.00  0.00    +0.000 A 
ATOM     20  C   UNL     1       7.299   5.559  15.253  0.00  0.00    +0.000 A 
ATOM     21  C   UNL     1       6.698   4.788  14.262  0.00  0.00    +0.000 A 
ATOM     22  C   UNL     1       5.718   3.865  14.608  0.00  0.00    +0.000 A 
ATOM     23  C   UNL     1       5.340   3.714  15.948  0.00  0.00    +0.000 A 
ATOM     24  C   UNL     1       5.939   4.474  16.978  0.00  0.00    +0.000 A 
ENDBRANCH  14  15
ENDBRANCH   2  14
TORSDOF 4
ENDMDL
MODEL 2
REMARK VINA RESULT:      -8.0      0.248      1.032
REMARK  Name = 
REMARK  5 active torsions:
REMARK  status: ('A' for Active; 'I' for Inactive)
REMARK    1  A    between atoms: C_1  and  C_2
REMARK    2  A    between atoms: C_2  and  O_3
REMARK    3  A    between atoms: C_2  and  C_14
REMARK    4  A    between atoms: O_3  and  C_4
REMARK    5  A    between atoms: N_16  and  C_17
REMARK                            x       y       z     vdW  Elec       q    Type
REMARK                         _______ _______ _______ _____ _____    ______ ____
ROOT
ATOM      1  C   UNL     1       2.490   2.851  19.963  0.00  0.00    +0.000 C 
ATOM      2  C   UNL     1       3.495   3.948  19.585  0.00  0.00    +0.000 C 
ENDROOT
BRANCH   2   3
ATOM      3  C   UNL     1       2.658   5.153  19.111  0.00  0.00    +0.000 C 
ATOM      4  O   UNL     1       1.935   5.007  18.122  0.00  0.00    +0.000 OA
ATOM      5  N   UNL     1       2.841   6.342  19.796  0.00  0.00    +0.000 N 
ATOM      6  H   UNL     1       3.556   6.341  20.515  0.00  0.00    +0.000 HD
BRANCH   5   7
ATOM      7  C   UNL     1       2.193   7.567  19.494  0.00  0.00    +0.000 A 
ATOM      8  C   UNL     1       2.311   8.209  18.254  0.00  0.00    +0.000 A 
ATOM      9  C   UNL     1       1.700   9.443  18.010  0.00  0.00    +0.000 A 
ATOM     10  C   UNL     1       0.947  10.046  19.006  0.00  0.00    +0.000 A 
ATOM     11 CL   UNL     1       0.218  11.576  18.715  0.00  0.00    +0.000 Cl
ATOM     12  C   UNL     1       0.786   9.411  20.236  0.00  0.00    +0.000 A 
ATOM     13  C   UNL     1       1.399   8.171  20.477  0.00  0.00    +0.000 A 
ENDBRANCH   5   7
ENDBRANCH   2   3
BRANCH   2  14
ATOM     14  O   UNL     1       4.460   3.471  18.644  0.00  0.00    +0.000 OA
BRANCH  14  15
ATOM     15  C   UNL     1       5.497   4.339  18.338  0.00  0.00    +0.000 A 
ATOM     16  C   UNL     1       6.194   5.070  19.313  0.00  0.00    +0.000 A 
ATOM     17  C   UNL     1       7.217   5.948  18.964  0.00  0.00    +0.000 A 
ATOM     18  C   UNL     1       7.567   6.105  17.631  0.00  0.00    +0.000 A 
ATOM     19  C   UNL     1       6.924   5.367  16.633  0.00  0.00    +0.000 A 
ATOM     20  C   UNL     1       7.321   5.521  15.295  0.00  0.00    +0.000 A 
ATOM     21  C   UNL     1       6.719   4.784  14.279  0.00  0.00    +0.000 A 
ATOM     22  C   UNL     1       5.699   3.892  14.589  0.00  0.00    +0.000 A 
ATOM     23  C   UNL     1       5.282   3.738  15.917  0.00  0.00    +0.000 A 
ATOM     24  C   UNL     1       5.881   4.463  16.971  0.00  0.00    +0.000 A 
ENDBRANCH  14  15
ENDBRANCH   2  14
TORSDOF 4
ENDMDL
MODEL 3
REMARK VINA RESULT:      -7.9      4.939      6.789
REMARK  Name = 
REMARK  5 active torsions:
REMARK  status: ('A' for Active; 'I' for Inactive)
REMARK    1  A    between atoms: C_1  and  C_2
REMARK    2  A    between atoms: C_2  and  O_3
REMARK    3  A    between atoms: C_2  and  C_14
REMARK    4  A    between atoms: O_3  and  C_4
REMARK    5  A    between atoms: N_16  and  C_17
REMARK                            x       y       z     vdW  Elec       q    Type
REMARK                         _______ _______ _______ _____ _____    ______ ____
ROOT
ATOM      1  C   UNL     1       8.027   6.807  18.898  0.00  0.00    +0.000 C 
ATOM      2  C   UNL     1       7.803   7.675  17.652  0.00  0.00    +0.000 C 
ENDROOT
BRANCH   2   3
ATOM      3  C   UNL     1       8.146   9.120  18.067  0.00  0.00    +0.000 C 
ATOM      4  O   UNL     1       7.590  10.044  17.470  0.00  0.00    +0.000 OA
ATOM      5  N   UNL     1       9.119   9.271  19.040  0.00  0.00    +0.000 N 
ATOM      6  H   UNL     1       9.573   8.421  19.358  0.00  0.00    +0.000 HD
BRANCH   5   7
ATOM      7  C   UNL     1       9.597  10.512  19.532  0.00  0.00    +0.000 A 
ATOM      8  C   UNL     1       9.244  11.023  20.788  0.00  0.00    +0.000 A 
ATOM      9  C   UNL     1       9.692  12.276  21.218  0.00  0.00    +0.000 A 
ATOM     10  C   UNL     1      10.514  13.031  20.397  0.00  0.00    +0.000 A 
ATOM     11 CL   UNL     1      11.043  14.583  20.915  0.00  0.00    +0.000 Cl
ATOM     12  C   UNL     1      10.907  12.530  19.157  0.00  0.00    +0.000 A 
ATOM     13  C   UNL     1      10.457  11.271  18.729  0.00  0.00    +0.000 A 
ENDBRANCH   5   7
ENDBRANCH   2   3
BRANCH   2  14
ATOM     14  O   UNL     1       6.490   7.492  17.117  0.00  0.00    +0.000 OA
BRANCH  14  15
ATOM     15  C   UNL     1       6.178   6.212  16.686  0.00  0.00    +0.000 A 
ATOM     16  C   UNL     1       7.043   5.440  15.896  0.00  0.00    +0.000 A 
ATOM     17  C   UNL     1       6.685   4.165  15.466  0.00  0.00    +0.000 A 
ATOM     18  C   UNL     1       5.455   3.635  15.825  0.00  0.00    +0.000 A 
ATOM     19  C   UNL     1       4.581   4.356  16.643  0.00  0.00    +0.000 A 
ATOM     20  C   UNL     1       3.356   3.781  17.020  0.00  0.00    +0.000 A 
ATOM     21  C   UNL     1       2.471   4.461  17.853  0.00  0.00    +0.000 A 
ATOM     22  C   UNL     1       2.796   5.734  18.308  0.00  0.00    +0.000 A 
ATOM     23  C   UNL     1       4.008   6.325  17.931  0.00  0.00    +0.000 A 
ATOM     24  C   UNL     1       4.931   5.656  17.095  0.00  0.00    +0.000 A 
ENDBRANCH  14  15
ENDBRANCH   2  14
TORSDOF 4
ENDMDL
MODEL 4
REMARK VINA RESULT:      -7.7      4.963      6.901
REMARK  Name = 
REMARK  5 active torsions:
REMARK  status: ('A' for Active; 'I' for Inactive)
REMARK    1  A    between atoms: C_1  and  C_2
REMARK    2  A    between atoms: C_2  and  O_3
REMARK    3  A    between atoms: C_2  and  C_14
REMARK    4  A    between atoms: O_3  and  C_4
REMARK    5  A    between atoms: N_16  and  C_17
REMARK                            x       y       z     vdW  Elec       q    Type
REMARK                         _______ _______ _______ _____ _____    ______ ____
ROOT
ATOM      1  C   UNL     1       8.121   6.845  18.913  0.00  0.00    +0.000 C 
ATOM      2  C   UNL     1       7.736   7.664  17.673  0.00  0.00    +0.000 C 
ENDROOT
BRANCH   2   3
ATOM      3  C   UNL     1       8.101   9.128  17.993  0.00  0.00    +0.000 C 
ATOM      4  O   UNL     1       7.539  10.021  17.355  0.00  0.00    +0.000 OA
ATOM      5  N   UNL     1       9.099   9.326  18.931  0.00  0.00    +0.000 N 
ATOM      6  H   UNL     1       9.552   8.492  19.289  0.00  0.00    +0.000 HD
BRANCH   5   7
ATOM      7  C   UNL     1       9.599  10.589  19.337  0.00  0.00    +0.000 A 
ATOM      8  C   UNL     1      10.417  11.385  18.524  0.00  0.00    +0.000 A 
ATOM      9  C   UNL     1      10.935  12.602  18.978  0.00  0.00    +0.000 A 
ATOM     10  C   UNL     1      10.629  13.046  20.255  0.00  0.00    +0.000 A 
ATOM     11 CL   UNL     1      11.288  14.529  20.823  0.00  0.00    +0.000 Cl
ATOM     12  C   UNL     1       9.790  12.289  21.071  0.00  0.00    +0.000 A 
ATOM     13  C   UNL     1       9.269  11.069  20.611  0.00  0.00    +0.000 A 
ENDBRANCH   5   7
ENDBRANCH   2   3
BRANCH   2  14
ATOM     14  O   UNL     1       6.371   7.445  17.304  0.00  0.00    +0.000 OA
BRANCH  14  15
ATOM     15  C   UNL     1       6.060   6.178  16.838  0.00  0.00    +0.000 A 
ATOM     16  C   UNL     1       6.933   5.421  16.042  0.00  0.00    +0.000 A 
ATOM     17  C   UNL     1       6.575   4.159  15.576  0.00  0.00    +0.000 A 
ATOM     18  C   UNL     1       5.337   3.626  15.904  0.00  0.00    +0.000 A 
ATOM     19  C   UNL     1       4.455   4.331  16.726  0.00  0.00    +0.000 A 
ATOM     20  C   UNL     1       3.221   3.754  17.071  0.00  0.00    +0.000 A 
ATOM     21  C   UNL     1       2.328   4.418  17.907  0.00  0.00    +0.000 A 
ATOM     22  C   UNL     1       2.653   5.677  18.399  0.00  0.00    +0.000 A 
ATOM     23  C   UNL     1       3.872   6.272  18.053  0.00  0.00    +0.000 A 
ATOM     24  C   UNL     1       4.804   5.619  17.215  0.00  0.00    +0.000 A 
ENDBRANCH  14  15
ENDBRANCH   2  14
TORSDOF 4
ENDMDL
MODEL 5
REMARK VINA RESULT:      -7.7      2.887      7.415
REMARK  Name = 
REMARK  5 active torsions:
REMARK  status: ('A' for Active; 'I' for Inactive)
REMARK    1  A    between atoms: C_1  and  C_2
REMARK    2  A    between atoms: C_2  and  O_3
REMARK    3  A    between atoms: C_2  and  C_14
REMARK    4  A    between atoms: O_3  and  C_4
REMARK    5  A    between atoms: N_16  and  C_17
REMARK                            x       y       z     vdW  Elec       q    Type
REMARK                         _______ _______ _______ _____ _____    ______ ____
ROOT
ATOM      1  C   UNL     1       2.188   4.720  20.987  0.00  0.00    +0.000 C 
ATOM      2  C   UNL     1       1.822   5.860  20.027  0.00  0.00    +0.000 C 
ENDROOT
BRANCH   2   3
ATOM      3  C   UNL     1       2.409   5.472  18.654  0.00  0.00    +0.000 C 
ATOM      4  O   UNL     1       1.654   4.966  17.821  0.00  0.00    +0.000 OA
ATOM      5  N   UNL     1       3.770   5.656  18.489  0.00  0.00    +0.000 N 
ATOM      6  H   UNL     1       4.284   5.974  19.303  0.00  0.00    +0.000 HD
BRANCH   5   7
ATOM      7  C   UNL     1       4.502   5.332  17.318  0.00  0.00    +0.000 A 
ATOM      8  C   UNL     1       4.854   6.281  16.349  0.00  0.00    +0.000 A 
ATOM      9  C   UNL     1       5.529   5.915  15.180  0.00  0.00    +0.000 A 
ATOM     10  C   UNL     1       5.875   4.588  14.973  0.00  0.00    +0.000 A 
ATOM     11 CL   UNL     1       6.681   4.135  13.524  0.00  0.00    +0.000 Cl
ATOM     12  C   UNL     1       5.566   3.631  15.938  0.00  0.00    +0.000 A 
ATOM     13  C   UNL     1       4.889   4.002  17.111  0.00  0.00    +0.000 A 
ENDBRANCH   5   7
ENDBRANCH   2   3
BRANCH   2  14
ATOM     14  O   UNL     1       2.248   7.128  20.533  0.00  0.00    +0.000 OA
BRANCH  14  15
ATOM     15  C   UNL     1       1.615   8.242  20.005  0.00  0.00    +0.000 A 
ATOM     16  C   UNL     1       1.685   8.588  18.646  0.00  0.00    +0.000 A 
ATOM     17  C   UNL     1       1.052   9.726  18.157  0.00  0.00    +0.000 A 
ATOM     18  C   UNL     1       0.329  10.539  19.019  0.00  0.00    +0.000 A 
ATOM     19  C   UNL     1       0.203  10.209  20.371  0.00  0.00    +0.000 A 
ATOM     20  C   UNL     1      -0.563  11.031  21.213  0.00  0.00    +0.000 A 
ATOM     21  C   UNL     1      -0.730  10.719  22.560  0.00  0.00    +0.000 A 
ATOM     22  C   UNL     1      -0.119   9.586  23.084  0.00  0.00    +0.000 A 
ATOM     23  C   UNL     1       0.659   8.764  22.259  0.00  0.00    +0.000 A 
ATOM     24  C   UNL     1       0.838   9.048  20.887  0.00  0.00    +0.000 A 
ENDBRANCH  14  15
ENDBRANCH   2  14
TORSDOF 4
ENDMDL
MODEL 6
REMARK VINA RESULT:      -7.6      2.902      7.395
REMARK  Name = 
REMARK  5 active torsions:
REMARK  status: ('A' for Active; 'I' for Inactive)
REMARK    1  A    between atoms: C_1  and  C_2
REMARK    2  A    between atoms: C_2  and  O_3
REMARK    3  A    between atoms: C_2  and  C_14
REMARK    4  A    between atoms: O_3  and  C_4
REMARK    5  A    between atoms: N_16  and  C_17
REMARK                            x       y       z     vdW  Elec       q    Type
REMARK                         _______ _______ _______ _____ _____    ______ ____
ROOT
ATOM      1  C   UNL     1       2.192   4.758  20.953  0.00  0.00    +0.000 C 
ATOM      2  C   UNL     1       1.846   5.893  19.978  0.00  0.00    +0.000 C 
ENDROOT
BRANCH   2   3
ATOM      3  C   UNL     1       2.412   5.471  18.608  0.00  0.00    +0.000 C 
ATOM      4  O   UNL     1       1.645   4.948  17.797  0.00  0.00    +0.000 OA
ATOM      5  N   UNL     1       3.772   5.648  18.419  0.00  0.00    +0.000 N 
ATOM      6  H   UNL     1       4.298   5.983  19.218  0.00  0.00    +0.000 HD
BRANCH   5   7
ATOM      7  C   UNL     1       4.486   5.294  17.246  0.00  0.00    +0.000 A 
ATOM      8  C   UNL     1       4.910   3.986  16.974  0.00  0.00    +0.000 A 
ATOM      9  C   UNL     1       5.659   3.684  15.833  0.00  0.00    +0.000 A 
ATOM     10  C   UNL     1       5.983   4.691  14.937  0.00  0.00    +0.000 A 
ATOM     11 CL   UNL     1       6.927   4.324  13.547  0.00  0.00    +0.000 Cl
ATOM     12  C   UNL     1       5.544   5.994  15.167  0.00  0.00    +0.000 A 
ATOM     13  C   UNL     1       4.790   6.294  16.313  0.00  0.00    +0.000 A 
ENDBRANCH   5   7
ENDBRANCH   2   3
BRANCH   2  14
ATOM     14  O   UNL     1       2.306   7.157  20.463  0.00  0.00    +0.000 OA
BRANCH  14  15
ATOM     15  C   UNL     1       1.663   8.277  19.959  0.00  0.00    +0.000 A 
ATOM     16  C   UNL     1       1.725   8.649  18.607  0.00  0.00    +0.000 A 
ATOM     17  C   UNL     1       1.082   9.793  18.142  0.00  0.00    +0.000 A 
ATOM     18  C   UNL     1       0.355  10.582  19.022  0.00  0.00    +0.000 A 
ATOM     19  C   UNL     1       0.236  10.225  20.368  0.00  0.00    +0.000 A 
ATOM     20  C   UNL     1      -0.533  11.025  21.229  0.00  0.00    +0.000 A 
ATOM     21  C   UNL     1      -0.693  10.685  22.569  0.00  0.00    +0.000 A 
ATOM     22  C   UNL     1      -0.071   9.547  23.070  0.00  0.00    +0.000 A 
ATOM     23  C   UNL     1       0.710   8.747  22.226  0.00  0.00    +0.000 A 
ATOM     24  C   UNL     1       0.883   9.059  20.859  0.00  0.00    +0.000 A 
ENDBRANCH  14  15
ENDBRANCH   2  14
TORSDOF 4
ENDMDL
MODEL 7
REMARK VINA RESULT:      -7.5      0.944      2.487
REMARK  Name = 
REMARK  5 active torsions:
REMARK  status: ('A' for Active; 'I' for Inactive)
REMARK    1  A    between atoms: C_1  and  C_2
REMARK    2  A    between atoms: C_2  and  O_3
REMARK    3  A    between atoms: C_2  and  C_14
REMARK    4  A    between atoms: O_3  and  C_4
REMARK    5  A    between atoms: N_16  and  C_17
REMARK                            x       y       z     vdW  Elec       q    Type
REMARK                         _______ _______ _______ _____ _____    ______ ____
ROOT
ATOM      1  C   UNL     1       2.840   2.038  19.495  0.00  0.00    +0.000 C 
ATOM      2  C   UNL     1       3.587   3.299  19.953  0.00  0.00    +0.000 C 
ENDROOT
BRANCH   2   3
ATOM      3  C   UNL     1       2.714   4.495  19.523  0.00  0.00    +0.000 C 
ATOM      4  O   UNL     1       1.706   4.268  18.850  0.00  0.00    +0.000 OA
ATOM      5  N   UNL     1       3.177   5.754  19.866  0.00  0.00    +0.000 N 
ATOM      6  H   UNL     1       4.083   5.792  20.320  0.00  0.00    +0.000 HD
BRANCH   5   7
ATOM      7  C   UNL     1       2.539   6.976  19.536  0.00  0.00    +0.000 A 
ATOM      8  C   UNL     1       2.683   7.602  18.290  0.00  0.00    +0.000 A 
ATOM      9  C   UNL     1       2.082   8.835  18.018  0.00  0.00    +0.000 A 
ATOM     10  C   UNL     1       1.312   9.453  18.991  0.00  0.00    +0.000 A 
ATOM     11 CL   UNL     1       0.595  10.982  18.666  0.00  0.00    +0.000 Cl
ATOM     12  C   UNL     1       1.125   8.835  20.226  0.00  0.00    +0.000 A 
ATOM     13  C   UNL     1       1.729   7.596  20.496  0.00  0.00    +0.000 A 
ENDBRANCH   5   7
ENDBRANCH   2   3
BRANCH   2  14
ATOM     14  O   UNL     1       4.930   3.318  19.462  0.00  0.00    +0.000 OA
BRANCH  14  15
ATOM     15  C   UNL     1       5.124   3.932  18.234  0.00  0.00    +0.000 A 
ATOM     16  C   UNL     1       4.419   3.566  17.077  0.00  0.00    +0.000 A 
ATOM     17  C   UNL     1       4.656   4.193  15.857  0.00  0.00    +0.000 A 
ATOM     18  C   UNL     1       5.599   5.207  15.774  0.00  0.00    +0.000 A 
ATOM     19  C   UNL     1       6.294   5.628  16.911  0.00  0.00    +0.000 A 
ATOM     20  C   UNL     1       7.219   6.680  16.805  0.00  0.00    +0.000 A 
ATOM     21  C   UNL     1       7.911   7.141  17.921  0.00  0.00    +0.000 A 
ATOM     22  C   UNL     1       7.696   6.544  19.158  0.00  0.00    +0.000 A 
ATOM     23  C   UNL     1       6.787   5.486  19.277  0.00  0.00    +0.000 A 
ATOM     24  C   UNL     1       6.062   5.003  18.165  0.00  0.00    +0.000 A 
ENDBRANCH  14  15
ENDBRANCH   2  14
TORSDOF 4
ENDMDL
MODEL 8
REMARK VINA RESULT:      -7.3      1.459      1.742
REMARK  Name = 
REMARK  5 active torsions:
REMARK  status: ('A' for Active; 'I' for Inactive)
REMARK    1  A    between atoms: C_1  and  C_2
REMARK    2  A    between atoms: C_2  and  O_3
REMARK    3  A    between atoms: C_2  and  C_14
REMARK    4  A    between atoms: O_3  and  C_4
REMARK    5  A    between atoms: N_16  and  C_17
REMARK                            x       y       z     vdW  Elec       q    Type
REMARK                         _______ _______ _______ _____ _____    ______ ____
ROOT
ATOM      1  C   UNL     1       2.333   3.644  19.677  0.00  0.00    +0.000 C 
ATOM      2  C   UNL     1       3.019   5.016  19.729  0.00  0.00    +0.000 C 
ENDROOT
BRANCH   2   3
ATOM      3  C   UNL     1       1.979   5.996  20.308  0.00  0.00    +0.000 C 
ATOM      4  O   UNL     1       0.924   5.532  20.748  0.00  0.00    +0.000 OA
ATOM      5  N   UNL     1       2.281   7.343  20.220  0.00  0.00    +0.000 N 
ATOM      6  H   UNL     1       3.134   7.582  19.726  0.00  0.00    +0.000 HD
BRANCH   5   7
ATOM      7  C   UNL     1       1.444   8.399  20.663  0.00  0.00    +0.000 A 
ATOM      8  C   UNL     1       1.197   8.663  22.017  0.00  0.00    +0.000 A 
ATOM      9  C   UNL     1       0.324   9.679  22.416  0.00  0.00    +0.000 A 
ATOM     10  C   UNL     1      -0.308  10.457  21.458  0.00  0.00    +0.000 A 
ATOM     11 CL   UNL     1      -1.403  11.689  21.948  0.00  0.00    +0.000 Cl
ATOM     12  C   UNL     1      -0.054  10.237  20.105  0.00  0.00    +0.000 A 
ATOM     13  C   UNL     1       0.826   9.217  19.708  0.00  0.00    +0.000 A 
ENDBRANCH   5   7
ENDBRANCH   2   3
BRANCH   2  14
ATOM     14  O   UNL     1       3.554   5.382  18.454  0.00  0.00    +0.000 OA
BRANCH  14  15
ATOM     15  C   UNL     1       4.933   5.313  18.327  0.00  0.00    +0.000 A 
ATOM     16  C   UNL     1       5.810   5.515  19.404  0.00  0.00    +0.000 A 
ATOM     17  C   UNL     1       7.190   5.457  19.232  0.00  0.00    +0.000 A 
ATOM     18  C   UNL     1       7.720   5.189  17.978  0.00  0.00    +0.000 A 
ATOM     19  C   UNL     1       6.880   4.943  16.888  0.00  0.00    +0.000 A 
ATOM     20  C   UNL     1       7.443   4.641  15.638  0.00  0.00    +0.000 A 
ATOM     21  C   UNL     1       6.636   4.367  14.536  0.00  0.00    +0.000 A 
ATOM     22  C   UNL     1       5.253   4.408  14.670  0.00  0.00    +0.000 A 
ATOM     23  C   UNL     1       4.678   4.722  15.907  0.00  0.00    +0.000 A 
ATOM     24  C   UNL     1       5.469   4.993  17.046  0.00  0.00    +0.000 A 
ENDBRANCH  14  15
ENDBRANCH   2  14
TORSDOF 4
ENDMDL
MODEL 9
REMARK VINA RESULT:      -7.3      0.940      2.337
REMARK  Name = 
REMARK  5 active torsions:
REMARK  status: ('A' for Active; 'I' for Inactive)
REMARK    1  A    between atoms: C_1  and  C_2
REMARK    2  A    between atoms: C_2  and  O_3
REMARK    3  A    between atoms: C_2  and  C_14
REMARK    4  A    between atoms: O_3  and  C_4
REMARK    5  A    between atoms: N_16  and  C_17
REMARK                            x       y       z     vdW  Elec       q    Type
REMARK                         _______ _______ _______ _____ _____    ______ ____
ROOT
ATOM      1  C   UNL     1       2.500   2.009  18.938  0.00  0.00    +0.000 C 
ATOM      2  C   UNL     1       3.414   3.163  19.373  0.00  0.00    +0.000 C 
ENDROOT
BRANCH   2   3
ATOM      3  C   UNL     1       2.676   4.463  18.996  0.00  0.00    +0.000 C 
ATOM      4  O   UNL     1       1.840   4.416  18.091  0.00  0.00    +0.000 OA
ATOM      5  N   UNL     1       3.066   5.612  19.662  0.00  0.00    +0.000 N 
ATOM      6  H   UNL     1       3.848   5.519  20.300  0.00  0.00    +0.000 HD
BRANCH   5   7
ATOM      7  C   UNL     1       2.534   6.907  19.436  0.00  0.00    +0.000 A 
ATOM      8  C   UNL     1       1.758   7.591  20.382  0.00  0.00    +0.000 A 
ATOM      9  C   UNL     1       1.205   8.845  20.105  0.00  0.00    +0.000 A 
ATOM     10  C   UNL     1       1.435   9.440  18.873  0.00  0.00    +0.000 A 
ATOM     11 CL   UNL     1       0.733  10.969  18.522  0.00  0.00    +0.000 Cl
ATOM     12  C   UNL     1       2.231   8.796  17.928  0.00  0.00    +0.000 A 
ATOM     13  C   UNL     1       2.787   7.537  18.211  0.00  0.00    +0.000 A 
ENDBRANCH   5   7
ENDBRANCH   2   3
BRANCH   2  14
ATOM     14  O   UNL     1       4.726   3.028  18.820  0.00  0.00    +0.000 OA
BRANCH  14  15
ATOM     15  C   UNL     1       5.041   3.883  17.776  0.00  0.00    +0.000 A 
ATOM     16  C   UNL     1       4.432   3.805  16.514  0.00  0.00    +0.000 A 
ATOM     17  C   UNL     1       4.790   4.670  15.484  0.00  0.00    +0.000 A 
ATOM     18  C   UNL     1       5.762   5.636  15.700  0.00  0.00    +0.000 A 
ATOM     19  C   UNL     1       6.365   5.772  16.953  0.00  0.00    +0.000 A 
ATOM     20  C   UNL     1       7.321   6.781  17.153  0.00  0.00    +0.000 A 
ATOM     21  C   UNL     1       7.925   6.960  18.394  0.00  0.00    +0.000 A 
ATOM     22  C   UNL     1       7.588   6.121  19.450  0.00  0.00    +0.000 A 
ATOM     23  C   UNL     1       6.646   5.102  19.262  0.00  0.00    +0.000 A 
ATOM     24  C   UNL     1       6.009   4.901  18.018  0.00  0.00    +0.000 A 
ENDBRANCH  14  15
ENDBRANCH   2  14
TORSDOF 4
ENDMDL
