MODEL 1
REMARK VINA RESULT:      -7.5      0.000      0.000
REMARK  Name = 
REMARK  5 active torsions:
REMARK  status: ('A' for Active; 'I' for Inactive)
REMARK    1  A    between atoms: C_2  and  C_4
REMARK    2  A    between atoms: C_10  and  C_11
REMARK    3  A    between atoms: C_19  and  N_20
REMARK    4  A    between atoms: N_20  and  C_21
REMARK    5  A    between atoms: C_21  and  C_22
REMARK                            x       y       z     vdW  Elec       q    Type
REMARK                         _______ _______ _______ _____ _____    ______ ____
ROOT
ATOM      1  C   UNL     1      -1.590  12.762  21.196  0.00  0.00    +0.000 A 
ATOM      2  C   UNL     1      -1.666  12.352  22.518  0.00  0.00    +0.000 A 
ATOM      3  N   UNL     1      -1.049  11.262  23.016  0.00  0.00    +0.000 NA
ATOM      4  C   UNL     1      -0.330  10.508  22.175  0.00  0.00    +0.000 A 
ATOM      5  C   UNL     1       0.287   9.383  22.716  0.00  0.00    +0.000 A 
ATOM      6  C   UNL     1       1.048   8.492  21.948  0.00  0.00    +0.000 A 
ATOM      7  C   UNL     1       1.213   8.710  20.587  0.00  0.00    +0.000 A 
ATOM      8  C   UNL     1       0.604   9.864  20.069  0.00  0.00    +0.000 A 
ATOM      9  C   UNL     1      -0.184  10.802  20.800  0.00  0.00    +0.000 A 
ATOM     10  C   UNL     1      -0.851  11.979  20.275  0.00  0.00    +0.000 A 
ENDROOT
BRANCH   7  11
ATOM     11  C   UNL     1       1.969   7.805  19.692  0.00  0.00    +0.000 A 
ATOM     12  C   UNL     1       2.425   8.199  18.430  0.00  0.00    +0.000 A 
ATOM     13  C   UNL     1       3.126   7.305  17.616  0.00  0.00    +0.000 A 
ATOM     14  C   UNL     1       3.344   6.017  18.080  0.00  0.00    +0.000 A 
ATOM     15  N   UNL     1       2.919   5.577  19.277  0.00  0.00    +0.000 NA
ATOM     16  C   UNL     1       2.256   6.478  20.046  0.00  0.00    +0.000 A 
ENDBRANCH   7  11
BRANCH   1  18
ATOM     17  N   UNL     1      -3.643  13.878  20.475  0.00  0.00    +0.000 N 
ATOM     18  C   UNL     1      -2.318  13.994  20.789  0.00  0.00    +0.000 C 
ATOM     19  O   UNL     1      -1.762  15.088  20.751  0.00  0.00    +0.000 OA
ATOM     20  H   UNL     1      -4.136  14.745  20.310  0.00  0.00    +0.000 HD
ATOM     21  H   UNL     1      -4.201  13.071  20.721  0.00  0.00    +0.000 HD
ENDBRANCH   1  18
BRANCH  10  22
ATOM     22  N   UNL     1      -0.721  12.484  18.960  0.00  0.00    +0.000 N 
ATOM     23  H   UNL     1      -0.378  13.454  18.944  0.00  0.00    +0.000 HD
BRANCH  22  24
ATOM     24  C   UNL     1      -1.545  12.095  17.840  0.00  0.00    +0.000 C 
BRANCH  24  25
ATOM     25  C   UNL     1      -2.405  10.843  18.038  0.00  0.00    +0.000 C 
ATOM     26  C   UNL     1      -3.912  11.122  18.070  0.00  0.00    +0.000 C 
ATOM     27  C   UNL     1      -4.451  11.609  16.726  0.00  0.00    +0.000 C 
ATOM     28  C   UNL     1      -4.116  10.637  15.597  0.00  0.00    +0.000 C 
ATOM     29  C   UNL     1      -2.629  10.304  15.534  0.00  0.00    +0.000 C 
ATOM     30  C   UNL     1      -2.084   9.851  16.894  0.00  0.00    +0.000 C 
ENDBRANCH  24  25
ENDBRANCH  22  24
ENDBRANCH  10  22
TORSDOF 5
ENDMDL
MODEL 2
REMARK VINA RESULT:      -7.3      3.902      8.492
REMARK  Name = 
REMARK  5 active torsions:
REMARK  status: ('A' for Active; 'I' for Inactive)
REMARK    1  A    between atoms: C_2  and  C_4
REMARK    2  A    between atoms: C_10  and  C_11
REMARK    3  A    between atoms: C_19  and  N_20
REMARK    4  A    between atoms: N_20  and  C_21
REMARK    5  A    between atoms: C_21  and  C_22
REMARK                            x       y       z     vdW  Elec       q    Type
REMARK                         _______ _______ _______ _____ _____    ______ ____
ROOT
ATOM      1  C   UNL     1       4.376   5.721  17.862  0.00  0.00    +0.000 A 
ATOM      2  C   UNL     1       4.352   6.538  16.742  0.00  0.00    +0.000 A 
ATOM      3  N   UNL     1       3.683   7.706  16.663  0.00  0.00    +0.000 NA
ATOM      4  C   UNL     1       2.974   8.097  17.729  0.00  0.00    +0.000 A 
ATOM      5  C   UNL     1       2.286   9.302  17.615  0.00  0.00    +0.000 A 
ATOM      6  C   UNL     1       1.485   9.820  18.641  0.00  0.00    +0.000 A 
ATOM      7  C   UNL     1       1.350   9.127  19.836  0.00  0.00    +0.000 A 
ATOM      8  C   UNL     1       2.073   7.928  19.939  0.00  0.00    +0.000 A 
ATOM      9  C   UNL     1       2.899   7.351  18.929  0.00  0.00    +0.000 A 
ATOM     10  C   UNL     1       3.624   6.096  19.003  0.00  0.00    +0.000 A 
ENDROOT
BRANCH   7  11
ATOM     11  C   UNL     1       0.499   9.579  20.960  0.00  0.00    +0.000 A 
ATOM     12  C   UNL     1       0.473   8.927  22.197  0.00  0.00    +0.000 A 
ATOM     13  C   UNL     1      -0.355   9.384  23.225  0.00  0.00    +0.000 A 
ATOM     14  C   UNL     1      -1.161  10.487  22.986  0.00  0.00    +0.000 A 
ATOM     15  N   UNL     1      -1.189  11.145  21.815  0.00  0.00    +0.000 NA
ATOM     16  C   UNL     1      -0.361  10.682  20.846  0.00  0.00    +0.000 A 
ENDBRANCH   7  11
BRANCH   1  18
ATOM     17  N   UNL     1       4.996   3.647  16.726  0.00  0.00    +0.000 N 
ATOM     18  C   UNL     1       5.166   4.462  17.809  0.00  0.00    +0.000 C 
ATOM     19  O   UNL     1       5.962   4.163  18.696  0.00  0.00    +0.000 OA
ATOM     20  H   UNL     1       5.624   2.857  16.664  0.00  0.00    +0.000 HD
ATOM     21  H   UNL     1       4.553   3.951  15.869  0.00  0.00    +0.000 HD
ENDBRANCH   1  18
BRANCH  10  22
ATOM     22  N   UNL     1       3.752   5.285  20.155  0.00  0.00    +0.000 N 
ATOM     23  H   UNL     1       4.585   4.681  20.119  0.00  0.00    +0.000 HD
BRANCH  22  24
ATOM     24  C   UNL     1       2.649   4.780  20.937  0.00  0.00    +0.000 C 
BRANCH  24  25
ATOM     25  C   UNL     1       2.607   3.264  21.147  0.00  0.00    +0.000 C 
ATOM     26  C   UNL     1       1.201   2.709  21.401  0.00  0.00    +0.000 C 
ATOM     27  C   UNL     1       0.286   2.837  20.184  0.00  0.00    +0.000 C 
ATOM     28  C   UNL     1       0.897   2.184  18.946  0.00  0.00    +0.000 C 
ATOM     29  C   UNL     1       2.310   2.683  18.660  0.00  0.00    +0.000 C 
ATOM     30  C   UNL     1       3.215   2.587  19.894  0.00  0.00    +0.000 C 
ENDBRANCH  24  25
ENDBRANCH  22  24
ENDBRANCH  10  22
TORSDOF 5
ENDMDL
MODEL 3
REMARK VINA RESULT:      -7.2      4.225      8.789
REMARK  Name = 
REMARK  5 active torsions:
REMARK  status: ('A' for Active; 'I' for Inactive)
REMARK    1  A    between atoms: C_2  and  C_4
REMARK    2  A    between atoms: C_10  and  C_11
REMARK    3  A    between atoms: C_19  and  N_20
REMARK    4  A    between atoms: N_20  and  C_21
REMARK    5  A    between atoms: C_21  and  C_22
REMARK                            x       y       z     vdW  Elec       q    Type
REMARK                         _______ _______ _______ _____ _____    ______ ____
ROOT
ATOM      1  C   UNL     1       3.231   4.067  19.277  0.00  0.00    +0.000 A 
ATOM      2  C   UNL     1       2.549   3.831  20.460  0.00  0.00    +0.000 A 
ATOM      3  N   UNL     1       1.817   4.754  21.117  0.00  0.00    +0.000 NA
ATOM      4  C   UNL     1       1.762   5.990  20.607  0.00  0.00    +0.000 A 
ATOM      5  C   UNL     1       1.008   6.924  21.312  0.00  0.00    +0.000 A 
ATOM      6  C   UNL     1       0.884   8.260  20.909  0.00  0.00    +0.000 A 
ATOM      7  C   UNL     1       1.527   8.705  19.762  0.00  0.00    +0.000 A 
ATOM      8  C   UNL     1       2.260   7.740  19.053  0.00  0.00    +0.000 A 
ATOM      9  C   UNL     1       2.425   6.371  19.417  0.00  0.00    +0.000 A 
ATOM     10  C   UNL     1       3.208   5.368  18.717  0.00  0.00    +0.000 A 
ENDROOT
BRANCH   7  11
ATOM     11  C   UNL     1       1.481  10.104  19.280  0.00  0.00    +0.000 A 
ATOM     12  C   UNL     1       2.234  10.552  18.190  0.00  0.00    +0.000 A 
ATOM     13  C   UNL     1       2.165  11.885  17.778  0.00  0.00    +0.000 A 
ATOM     14  C   UNL     1       1.348  12.755  18.483  0.00  0.00    +0.000 A 
ATOM     15  N   UNL     1       0.612  12.387  19.545  0.00  0.00    +0.000 NA
ATOM     16  C   UNL     1       0.693  11.081  19.906  0.00  0.00    +0.000 A 
ENDBRANCH   7  11
BRANCH   1  18
ATOM     17  N   UNL     1       4.878   2.267  19.443  0.00  0.00    +0.000 N 
ATOM     18  C   UNL     1       3.992   2.949  18.657  0.00  0.00    +0.000 C 
ATOM     19  O   UNL     1       3.825   2.627  17.484  0.00  0.00    +0.000 OA
ATOM     20  H   UNL     1       5.298   1.447  19.029  0.00  0.00    +0.000 HD
ATOM     21  H   UNL     1       4.878   2.323  20.453  0.00  0.00    +0.000 HD
ENDBRANCH   1  18
BRANCH  10  22
ATOM     22  N   UNL     1       3.838   5.542  17.462  0.00  0.00    +0.000 N 
ATOM     23  H   UNL     1       3.879   4.668  16.920  0.00  0.00    +0.000 HD
BRANCH  22  24
ATOM     24  C   UNL     1       4.885   6.497  17.188  0.00  0.00    +0.000 C 
BRANCH  24  25
ATOM     25  C   UNL     1       6.232   5.916  16.751  0.00  0.00    +0.000 C 
ATOM     26  C   UNL     1       7.328   6.968  16.547  0.00  0.00    +0.000 C 
ATOM     27  C   UNL     1       7.741   7.651  17.849  0.00  0.00    +0.000 C 
ATOM     28  C   UNL     1       8.170   6.638  18.908  0.00  0.00    +0.000 C 
ATOM     29  C   UNL     1       7.124   5.551  19.134  0.00  0.00    +0.000 C 
ATOM     30  C   UNL     1       6.686   4.893  17.821  0.00  0.00    +0.000 C 
ENDBRANCH  24  25
ENDBRANCH  22  24
ENDBRANCH  10  22
TORSDOF 5
ENDMDL
MODEL 4
REMARK VINA RESULT:      -7.2      4.004      8.318
REMARK  Name = 
REMARK  5 active torsions:
REMARK  status: ('A' for Active; 'I' for Inactive)
REMARK    1  A    between atoms: C_2  and  C_4
REMARK    2  A    between atoms: C_10  and  C_11
REMARK    3  A    between atoms: C_19  and  N_20
REMARK    4  A    between atoms: N_20  and  C_21
REMARK    5  A    between atoms: C_21  and  C_22
REMARK                            x       y       z     vdW  Elec       q    Type
REMARK                         _______ _______ _______ _____ _____    ______ ____
ROOT
ATOM      1  C   UNL     1       4.240   5.693  18.118  0.00  0.00    +0.000 A 
ATOM      2  C   UNL     1       4.170   6.418  16.938  0.00  0.00    +0.000 A 
ATOM      3  N   UNL     1       3.484   7.569  16.790  0.00  0.00    +0.000 NA
ATOM      4  C   UNL     1       2.805   8.036  17.844  0.00  0.00    +0.000 A 
ATOM      5  C   UNL     1       2.098   9.221  17.658  0.00  0.00    +0.000 A 
ATOM      6  C   UNL     1       1.324   9.810  18.666  0.00  0.00    +0.000 A 
ATOM      7  C   UNL     1       1.236   9.212  19.916  0.00  0.00    +0.000 A 
ATOM      8  C   UNL     1       1.977   8.033  20.089  0.00  0.00    +0.000 A 
ATOM      9  C   UNL     1       2.778   7.387  19.100  0.00  0.00    +0.000 A 
ATOM     10  C   UNL     1       3.521   6.149  19.249  0.00  0.00    +0.000 A 
ENDROOT
BRANCH   7  11
ATOM     11  C   UNL     1       0.415   9.743  21.028  0.00  0.00    +0.000 A 
ATOM     12  C   UNL     1      -0.575  10.713  20.841  0.00  0.00    +0.000 A 
ATOM     13  C   UNL     1      -1.316  11.190  21.924  0.00  0.00    +0.000 A 
ATOM     14  C   UNL     1      -1.038  10.694  23.188  0.00  0.00    +0.000 A 
ATOM     15  N   UNL     1      -0.091   9.772  23.432  0.00  0.00    +0.000 NA
ATOM     16  C   UNL     1       0.598   9.321  22.354  0.00  0.00    +0.000 A 
ENDBRANCH   7  11
BRANCH   1  18
ATOM     17  N   UNL     1       4.600   3.384  17.395  0.00  0.00    +0.000 N 
ATOM     18  C   UNL     1       5.045   4.442  18.138  0.00  0.00    +0.000 C 
ATOM     19  O   UNL     1       6.087   4.355  18.783  0.00  0.00    +0.000 OA
ATOM     20  H   UNL     1       5.221   2.589  17.341  0.00  0.00    +0.000 HD
ATOM     21  H   UNL     1       3.902   3.474  16.668  0.00  0.00    +0.000 HD
ENDBRANCH   1  18
BRANCH  10  22
ATOM     22  N   UNL     1       3.697   5.432  20.457  0.00  0.00    +0.000 N 
ATOM     23  H   UNL     1       4.533   5.734  20.974  0.00  0.00    +0.000 HD
BRANCH  22  24
ATOM     24  C   UNL     1       3.289   4.064  20.672  0.00  0.00    +0.000 C 
BRANCH  24  25
ATOM     25  C   UNL     1       1.804   3.841  20.973  0.00  0.00    +0.000 C 
ATOM     26  C   UNL     1       0.859   4.440  19.925  0.00  0.00    +0.000 C 
ATOM     27  C   UNL     1       0.965   3.744  18.569  0.00  0.00    +0.000 C 
ATOM     28  C   UNL     1       0.741   2.239  18.686  0.00  0.00    +0.000 C 
ATOM     29  C   UNL     1       1.640   1.593  19.736  0.00  0.00    +0.000 C 
ATOM     30  C   UNL     1       1.559   2.317  21.085  0.00  0.00    +0.000 C 
ENDBRANCH  24  25
ENDBRANCH  22  24
ENDBRANCH  10  22
TORSDOF 5
ENDMDL
MODEL 5
REMARK VINA RESULT:      -6.9      2.173      6.015
REMARK  Name = 
REMARK  5 active torsions:
REMARK  status: ('A' for Active; 'I' for Inactive)
REMARK    1  A    between atoms: C_2  and  C_4
REMARK    2  A    between atoms: C_10  and  C_11
REMARK    3  A    between atoms: C_19  and  N_20
REMARK    4  A    between atoms: N_20  and  C_21
REMARK    5  A    between atoms: C_21  and  C_22
REMARK                            x       y       z     vdW  Elec       q    Type
REMARK                         _______ _______ _______ _____ _____    ______ ____
ROOT
ATOM      1  C   UNL     1       1.425   8.778  19.351  0.00  0.00    +0.000 A 
ATOM      2  C   UNL     1       1.688   8.129  20.547  0.00  0.00    +0.000 A 
ATOM      3  N   UNL     1       1.121   8.444  21.729  0.00  0.00    +0.000 NA
ATOM      4  C   UNL     1       0.260   9.469  21.758  0.00  0.00    +0.000 A 
ATOM      5  C   UNL     1      -0.301   9.778  22.994  0.00  0.00    +0.000 A 
ATOM      6  C   UNL     1      -1.197  10.841  23.176  0.00  0.00    +0.000 A 
ATOM      7  C   UNL     1      -1.560  11.639  22.101  0.00  0.00    +0.000 A 
ATOM      8  C   UNL     1      -1.002  11.292  20.860  0.00  0.00    +0.000 A 
ATOM      9  C   UNL     1      -0.084  10.228  20.615  0.00  0.00    +0.000 A 
ATOM     10  C   UNL     1       0.531   9.878  19.348  0.00  0.00    +0.000 A 
ENDROOT
BRANCH   7  11
ATOM     11  C   UNL     1      -2.470  12.802  22.206  0.00  0.00    +0.000 A 
ATOM     12  C   UNL     1      -3.491  12.877  23.159  0.00  0.00    +0.000 A 
ATOM     13  C   UNL     1      -4.332  13.991  23.212  0.00  0.00    +0.000 A 
ATOM     14  C   UNL     1      -4.143  15.010  22.291  0.00  0.00    +0.000 A 
ATOM     15  N   UNL     1      -3.188  14.988  21.346  0.00  0.00    +0.000 NA
ATOM     16  C   UNL     1      -2.381  13.897  21.334  0.00  0.00    +0.000 A 
ENDBRANCH   7  11
BRANCH   1  18
ATOM     17  N   UNL     1       2.310   6.971  17.962  0.00  0.00    +0.000 N 
ATOM     18  C   UNL     1       2.119   8.315  18.120  0.00  0.00    +0.000 C 
ATOM     19  O   UNL     1       2.497   9.103  17.257  0.00  0.00    +0.000 OA
ATOM     20  H   UNL     1       2.685   6.679  17.070  0.00  0.00    +0.000 HD
ATOM     21  H   UNL     1       1.815   6.275  18.504  0.00  0.00    +0.000 HD
ENDBRANCH   1  18
BRANCH  10  22
ATOM     22  N   UNL     1       0.218  10.450  18.093  0.00  0.00    +0.000 N 
ATOM     23  H   UNL     1       1.009  10.970  17.690  0.00  0.00    +0.000 HD
BRANCH  22  24
ATOM     24  C   UNL     1      -1.094  10.904  17.696  0.00  0.00    +0.000 C 
BRANCH  24  25
ATOM     25  C   UNL     1      -2.112   9.811  17.358  0.00  0.00    +0.000 C 
ATOM     26  C   UNL     1      -3.399   9.880  18.189  0.00  0.00    +0.000 C 
ATOM     27  C   UNL     1      -4.231  11.125  17.887  0.00  0.00    +0.000 C 
ATOM     28  C   UNL     1      -4.554  11.242  16.399  0.00  0.00    +0.000 C 
ATOM     29  C   UNL     1      -3.309  11.155  15.522  0.00  0.00    +0.000 C 
ATOM     30  C   UNL     1      -2.458   9.924  15.853  0.00  0.00    +0.000 C 
ENDBRANCH  24  25
ENDBRANCH  22  24
ENDBRANCH  10  22
TORSDOF 5
ENDMDL
MODEL 6
REMARK VINA RESULT:      -6.8      2.883      7.318
REMARK  Name = 
REMARK  5 active torsions:
REMARK  status: ('A' for Active; 'I' for Inactive)
REMARK    1  A    between atoms: C_2  and  C_4
REMARK    2  A    between atoms: C_10  and  C_11
REMARK    3  A    between atoms: C_19  and  N_20
REMARK    4  A    between atoms: N_20  and  C_21
REMARK    5  A    between atoms: C_21  and  C_22
REMARK                            x       y       z     vdW  Elec       q    Type
REMARK                         _______ _______ _______ _____ _____    ______ ____
ROOT
ATOM      1  C   UNL     1      -3.814  11.435  17.813  0.00  0.00    +0.000 A 
ATOM      2  C   UNL     1      -5.159  11.770  17.801  0.00  0.00    +0.000 A 
ATOM      3  N   UNL     1      -5.769  12.516  18.743  0.00  0.00    +0.000 NA
ATOM      4  C   UNL     1      -5.033  12.947  19.776  0.00  0.00    +0.000 A 
ATOM      5  C   UNL     1      -5.692  13.706  20.739  0.00  0.00    +0.000 A 
ATOM      6  C   UNL     1      -5.054  14.200  21.884  0.00  0.00    +0.000 A 
ATOM      7  C   UNL     1      -3.708  13.939  22.099  0.00  0.00    +0.000 A 
ATOM      8  C   UNL     1      -3.058  13.194  21.102  0.00  0.00    +0.000 A 
ATOM      9  C   UNL     1      -3.655  12.663  19.920  0.00  0.00    +0.000 A 
ATOM     10  C   UNL     1      -3.009  11.860  18.898  0.00  0.00    +0.000 A 
ENDROOT
BRANCH   7  11
ATOM     11  C   UNL     1      -2.960  14.389  23.294  0.00  0.00    +0.000 A 
ATOM     12  C   UNL     1      -3.589  14.710  24.502  0.00  0.00    +0.000 A 
ATOM     13  C   UNL     1      -2.841  15.141  25.600  0.00  0.00    +0.000 A 
ATOM     14  C   UNL     1      -1.467  15.259  25.462  0.00  0.00    +0.000 A 
ATOM     15  N   UNL     1      -0.809  14.979  24.324  0.00  0.00    +0.000 NA
ATOM     16  C   UNL     1      -1.566  14.548  23.284  0.00  0.00    +0.000 A 
ENDBRANCH   7  11
BRANCH   1  18
ATOM     17  N   UNL     1      -3.100  11.214  15.484  0.00  0.00    +0.000 N 
ATOM     18  C   UNL     1      -3.274  10.611  16.698  0.00  0.00    +0.000 C 
ATOM     19  O   UNL     1      -2.974   9.430  16.856  0.00  0.00    +0.000 OA
ATOM     20  H   UNL     1      -2.632  10.662  14.779  0.00  0.00    +0.000 HD
ATOM     21  H   UNL     1      -3.096  12.218  15.361  0.00  0.00    +0.000 HD
ENDBRANCH   1  18
BRANCH  10  22
ATOM     22  N   UNL     1      -1.625  11.579  18.824  0.00  0.00    +0.000 N 
ATOM     23  H   UNL     1      -1.207  11.893  17.937  0.00  0.00    +0.000 HD
BRANCH  22  24
ATOM     24  C   UNL     1      -0.975  10.454  19.455  0.00  0.00    +0.000 C 
BRANCH  24  25
ATOM     25  C   UNL     1       0.276  10.773  20.279  0.00  0.00    +0.000 C 
ATOM     26  C   UNL     1      -0.004  11.590  21.546  0.00  0.00    +0.000 C 
ATOM     27  C   UNL     1      -0.817  10.814  22.581  0.00  0.00    +0.000 C 
ATOM     28  C   UNL     1      -0.154   9.487  22.942  0.00  0.00    +0.000 C 
ATOM     29  C   UNL     1       0.171   8.642  21.714  0.00  0.00    +0.000 C 
ATOM     30  C   UNL     1       0.954   9.435  20.662  0.00  0.00    +0.000 C 
ENDBRANCH  24  25
ENDBRANCH  22  24
ENDBRANCH  10  22
TORSDOF 5
ENDMDL
MODEL 7
REMARK VINA RESULT:      -6.8      1.416      1.839
REMARK  Name = 
REMARK  5 active torsions:
REMARK  status: ('A' for Active; 'I' for Inactive)
REMARK    1  A    between atoms: C_2  and  C_4
REMARK    2  A    between atoms: C_10  and  C_11
REMARK    3  A    between atoms: C_19  and  N_20
REMARK    4  A    between atoms: N_20  and  C_21
REMARK    5  A    between atoms: C_21  and  C_22
REMARK                            x       y       z     vdW  Elec       q    Type
REMARK                         _______ _______ _______ _____ _____    ______ ____
ROOT
ATOM      1  C   UNL     1      -3.209  13.081  21.806  0.00  0.00    +0.000 A 
ATOM      2  C   UNL     1      -3.031  12.671  23.118  0.00  0.00    +0.000 A 
ATOM      3  N   UNL     1      -2.121  11.760  23.518  0.00  0.00    +0.000 NA
ATOM      4  C   UNL     1      -1.349  11.192  22.583  0.00  0.00    +0.000 A 
ATOM      5  C   UNL     1      -0.426  10.248  23.023  0.00  0.00    +0.000 A 
ATOM      6  C   UNL     1       0.427   9.557  22.153  0.00  0.00    +0.000 A 
ATOM      7  C   UNL     1       0.376   9.801  20.787  0.00  0.00    +0.000 A 
ATOM      8  C   UNL     1      -0.543  10.776  20.369  0.00  0.00    +0.000 A 
ATOM      9  C   UNL     1      -1.438  11.506  21.206  0.00  0.00    +0.000 A 
ATOM     10  C   UNL     1      -2.420  12.490  20.789  0.00  0.00    +0.000 A 
ENDROOT
BRANCH   7  11
ATOM     11  C   UNL     1       1.213   9.095  19.791  0.00  0.00    +0.000 A 
ATOM     12  C   UNL     1       1.798   7.849  20.043  0.00  0.00    +0.000 A 
ATOM     13  C   UNL     1       2.590   7.227  19.074  0.00  0.00    +0.000 A 
ATOM     14  C   UNL     1       2.795   7.877  17.868  0.00  0.00    +0.000 A 
ATOM     15  N   UNL     1       2.271   9.079  17.573  0.00  0.00    +0.000 NA
ATOM     16  C   UNL     1       1.495   9.646  18.532  0.00  0.00    +0.000 A 
ENDBRANCH   7  11
BRANCH   1  18
ATOM     17  N   UNL     1      -5.500  13.666  21.185  0.00  0.00    +0.000 N 
ATOM     18  C   UNL     1      -4.248  14.104  21.513  0.00  0.00    +0.000 C 
ATOM     19  O   UNL     1      -4.006  15.307  21.580  0.00  0.00    +0.000 OA
ATOM     20  H   UNL     1      -6.211  14.380  21.099  0.00  0.00    +0.000 HD
ATOM     21  H   UNL     1      -5.817  12.721  21.351  0.00  0.00    +0.000 HD
ENDBRANCH   1  18
BRANCH  10  22
ATOM     22  N   UNL     1      -2.567  13.004  19.479  0.00  0.00    +0.000 N 
ATOM     23  H   UNL     1      -3.234  13.786  19.437  0.00  0.00    +0.000 HD
BRANCH  22  24
ATOM     24  C   UNL     1      -2.436  12.229  18.267  0.00  0.00    +0.000 C 
BRANCH  24  25
ATOM     25  C   UNL     1      -3.523  11.180  18.016  0.00  0.00    +0.000 C 
ATOM     26  C   UNL     1      -4.374  11.451  16.771  0.00  0.00    +0.000 C 
ATOM     27  C   UNL     1      -3.578  11.328  15.473  0.00  0.00    +0.000 C 
ATOM     28  C   UNL     1      -2.889   9.971  15.358  0.00  0.00    +0.000 C 
ATOM     29  C   UNL     1      -2.045   9.638  16.585  0.00  0.00    +0.000 C 
ATOM     30  C   UNL     1      -2.837   9.797  17.888  0.00  0.00    +0.000 C 
ENDBRANCH  24  25
ENDBRANCH  22  24
ENDBRANCH  10  22
TORSDOF 5
ENDMDL
MODEL 8
REMARK VINA RESULT:      -6.7      2.254      6.186
REMARK  Name = 
REMARK  5 active torsions:
REMARK  status: ('A' for Active; 'I' for Inactive)
REMARK    1  A    between atoms: C_2  and  C_4
REMARK    2  A    between atoms: C_10  and  C_11
REMARK    3  A    between atoms: C_19  and  N_20
REMARK    4  A    between atoms: N_20  and  C_21
REMARK    5  A    between atoms: C_21  and  C_22
REMARK                            x       y       z     vdW  Elec       q    Type
REMARK                         _______ _______ _______ _____ _____    ______ ____
ROOT
ATOM      1  C   UNL     1       0.893  10.150  19.524  0.00  0.00    +0.000 A 
ATOM      2  C   UNL     1       1.104   9.349  20.635  0.00  0.00    +0.000 A 
ATOM      3  N   UNL     1       0.452   9.482  21.808  0.00  0.00    +0.000 NA
ATOM      4  C   UNL     1      -0.445  10.469  21.919  0.00  0.00    +0.000 A 
ATOM      5  C   UNL     1      -1.095  10.588  23.144  0.00  0.00    +0.000 A 
ATOM      6  C   UNL     1      -2.038  11.590  23.409  0.00  0.00    +0.000 A 
ATOM      7  C   UNL     1      -2.361  12.519  22.430  0.00  0.00    +0.000 A 
ATOM      8  C   UNL     1      -1.714  12.364  21.194  0.00  0.00    +0.000 A 
ATOM      9  C   UNL     1      -0.744  11.369  20.869  0.00  0.00    +0.000 A 
ATOM     10  C   UNL     1      -0.037  11.215  19.611  0.00  0.00    +0.000 A 
ENDROOT
BRANCH   7  11
ATOM     11  C   UNL     1      -3.318  13.631  22.631  0.00  0.00    +0.000 A 
ATOM     12  C   UNL     1      -3.901  14.328  21.567  0.00  0.00    +0.000 A 
ATOM     13  C   UNL     1      -4.791  15.377  21.808  0.00  0.00    +0.000 A 
ATOM     14  C   UNL     1      -5.070  15.723  23.120  0.00  0.00    +0.000 A 
ATOM     15  N   UNL     1      -4.531  15.100  24.182  0.00  0.00    +0.000 NA
ATOM     16  C   UNL     1      -3.684  14.076  23.911  0.00  0.00    +0.000 A 
ENDBRANCH   7  11
BRANCH   1  18
ATOM     17  N   UNL     1       1.625   8.623  17.760  0.00  0.00    +0.000 N 
ATOM     18  C   UNL     1       1.681   9.881  18.291  0.00  0.00    +0.000 C 
ATOM     19  O   UNL     1       2.349  10.757  17.748  0.00  0.00    +0.000 OA
ATOM     20  H   UNL     1       2.079   8.500  16.866  0.00  0.00    +0.000 HD
ATOM     21  H   UNL     1       0.916   7.947  18.012  0.00  0.00    +0.000 HD
ENDBRANCH   1  18
BRANCH  10  22
ATOM     22  N   UNL     1      -0.291  11.947  18.427  0.00  0.00    +0.000 N 
ATOM     23  H   UNL     1       0.241  12.827  18.388  0.00  0.00    +0.000 HD
BRANCH  22  24
ATOM     24  C   UNL     1      -1.541  11.940  17.704  0.00  0.00    +0.000 C 
BRANCH  24  25
ATOM     25  C   UNL     1      -2.415  10.695  17.879  0.00  0.00    +0.000 C 
ATOM     26  C   UNL     1      -3.919  10.991  17.913  0.00  0.00    +0.000 C 
ATOM     27  C   UNL     1      -4.450  11.506  16.576  0.00  0.00    +0.000 C 
ATOM     28  C   UNL     1      -4.124  10.550  15.431  0.00  0.00    +0.000 C 
ATOM     29  C   UNL     1      -2.640  10.201  15.366  0.00  0.00    +0.000 C 
ATOM     30  C   UNL     1      -2.103   9.719  16.719  0.00  0.00    +0.000 C 
ENDBRANCH  24  25
ENDBRANCH  22  24
ENDBRANCH  10  22
TORSDOF 5
ENDMDL
MODEL 9
REMARK VINA RESULT:      -6.7      2.239      6.067
REMARK  Name = 
REMARK  5 active torsions:
REMARK  status: ('A' for Active; 'I' for Inactive)
REMARK    1  A    between atoms: C_2  and  C_4
REMARK    2  A    between atoms: C_10  and  C_11
REMARK    3  A    between atoms: C_19  and  N_20
REMARK    4  A    between atoms: N_20  and  C_21
REMARK    5  A    between atoms: C_21  and  C_22
REMARK                            x       y       z     vdW  Elec       q    Type
REMARK                         _______ _______ _______ _____ _____    ______ ____
ROOT
ATOM      1  C   UNL     1       1.402   8.705  19.408  0.00  0.00    +0.000 A 
ATOM      2  C   UNL     1       1.730   8.084  20.603  0.00  0.00    +0.000 A 
ATOM      3  N   UNL     1       1.207   8.411  21.802  0.00  0.00    +0.000 NA
ATOM      4  C   UNL     1       0.327   9.418  21.850  0.00  0.00    +0.000 A 
ATOM      5  C   UNL     1      -0.188   9.740  23.102  0.00  0.00    +0.000 A 
ATOM      6  C   UNL     1      -1.097  10.787  23.304  0.00  0.00    +0.000 A 
ATOM      7  C   UNL     1      -1.522  11.556  22.230  0.00  0.00    +0.000 A 
ATOM      8  C   UNL     1      -1.011  11.198  20.974  0.00  0.00    +0.000 A 
ATOM      9  C   UNL     1      -0.082  10.147  20.709  0.00  0.00    +0.000 A 
ATOM     10  C   UNL     1       0.486   9.786  19.423  0.00  0.00    +0.000 A 
ENDROOT
BRANCH   7  11
ATOM     11  C   UNL     1      -2.452  12.703  22.354  0.00  0.00    +0.000 A 
ATOM     12  C   UNL     1      -3.703  12.730  21.730  0.00  0.00    +0.000 A 
ATOM     13  C   UNL     1      -4.541  13.839  21.867  0.00  0.00    +0.000 A 
ATOM     14  C   UNL     1      -4.099  14.916  22.619  0.00  0.00    +0.000 A 
ATOM     15  N   UNL     1      -2.903  14.953  23.230  0.00  0.00    +0.000 NA
ATOM     16  C   UNL     1      -2.122  13.852  23.088  0.00  0.00    +0.000 A 
ENDBRANCH   7  11
BRANCH   1  18
ATOM     17  N   UNL     1       2.290   6.893  18.027  0.00  0.00    +0.000 N 
ATOM     18  C   UNL     1       2.053   8.232  18.156  0.00  0.00    +0.000 C 
ATOM     19  O   UNL     1       2.355   9.009  17.254  0.00  0.00    +0.000 OA
ATOM     20  H   UNL     1       2.631   6.589  17.126  0.00  0.00    +0.000 HD
ATOM     21  H   UNL     1       1.851   6.194  18.612  0.00  0.00    +0.000 HD
ENDBRANCH   1  18
BRANCH  10  22
ATOM     22  N   UNL     1       0.107  10.328  18.172  0.00  0.00    +0.000 N 
ATOM     23  H   UNL     1       0.557  11.234  17.984  0.00  0.00    +0.000 HD
BRANCH  22  24
ATOM     24  C   UNL     1      -1.173  10.122  17.537  0.00  0.00    +0.000 C 
BRANCH  24  25
ATOM     25  C   UNL     1      -1.855  11.372  16.974  0.00  0.00    +0.000 C 
ATOM     26  C   UNL     1      -2.769  11.096  15.774  0.00  0.00    +0.000 C 
ATOM     27  C   UNL     1      -3.995  10.265  16.145  0.00  0.00    +0.000 C 
ATOM     28  C   UNL     1      -4.791  10.905  17.280  0.00  0.00    +0.000 C 
ATOM     29  C   UNL     1      -3.924  11.225  18.494  0.00  0.00    +0.000 C 
ATOM     30  C   UNL     1      -2.675  12.028  18.112  0.00  0.00    +0.000 C 
ENDBRANCH  24  25
ENDBRANCH  22  24
ENDBRANCH  10  22
TORSDOF 5
ENDMDL
