MODEL 1
REMARK VINA RESULT:      -6.7      0.000      0.000
REMARK  Name = 
REMARK  4 active torsions:
REMARK  status: ('A' for Active; 'I' for Inactive)
REMARK    1  A    between atoms: C_1  and  O_2
REMARK    2  A    between atoms: O_2  and  C_3
REMARK    3  A    between atoms: C_6  and  C_7
REMARK    4  A    between atoms: C_7  and  C_9
REMARK                            x       y       z     vdW  Elec       q    Type
REMARK                         _______ _______ _______ _____ _____    ______ ____
ROOT
ATOM      1  C   UNL     1       5.809   5.919  16.712  0.00  0.00    +0.000 A 
ATOM      2  C   UNL     1       4.930   6.605  17.552  0.00  0.00    +0.000 A 
ATOM      3  C   UNL     1       3.747   6.001  17.990  0.00  0.00    +0.000 A 
ATOM      4  C   UNL     1       3.426   4.703  17.576  0.00  0.00    +0.000 A 
ATOM      5  C   UNL     1       4.291   4.030  16.703  0.00  0.00    +0.000 A 
ATOM      6  C   UNL     1       5.483   4.633  16.281  0.00  0.00    +0.000 A 
ENDROOT
BRANCH   1   8
ATOM      7  C   UNL     1       7.504   7.437  17.350  0.00  0.00    +0.000 C 
ATOM      8  O   UNL     1       6.924   6.616  16.341  0.00  0.00    +0.000 OA
ENDBRANCH   1   8
BRANCH   4   9
ATOM      9  C   UNL     1       2.127   4.108  18.021  0.00  0.00    +0.000 C 
ATOM     10  O   UNL     1       1.205   4.103  17.205  0.00  0.00    +0.000 OA
BRANCH   9  11
ATOM     11  C   UNL     1       2.009   3.567  19.370  0.00  0.00    +0.000 A 
ATOM     12  C   UNL     1       0.915   3.521  20.217  0.00  0.00    +0.000 A 
ATOM     13  C   UNL     1       1.225   2.927  21.478  0.00  0.00    +0.000 A 
ATOM     14  C   UNL     1       2.535   2.513  21.543  0.00  0.00    +0.000 A 
ATOM     15  S   UNL     1       3.379   2.827  20.090  0.00  0.00    +0.000 S 
ENDBRANCH   9  11
ENDBRANCH   4   9
TORSDOF 3
ENDMDL
MODEL 2
REMARK VINA RESULT:      -6.5      0.581      1.367
REMARK  Name = 
REMARK  4 active torsions:
REMARK  status: ('A' for Active; 'I' for Inactive)
REMARK    1  A    between atoms: C_1  and  O_2
REMARK    2  A    between atoms: O_2  and  C_3
REMARK    3  A    between atoms: C_6  and  C_7
REMARK    4  A    between atoms: C_7  and  C_9
REMARK                            x       y       z     vdW  Elec       q    Type
REMARK                         _______ _______ _______ _____ _____    ______ ____
ROOT
ATOM      1  C   UNL     1       6.221   6.047  16.931  0.00  0.00    +0.000 A 
ATOM      2  C   UNL     1       6.110   4.741  16.449  0.00  0.00    +0.000 A 
ATOM      3  C   UNL     1       4.955   3.990  16.690  0.00  0.00    +0.000 A 
ATOM      4  C   UNL     1       3.903   4.537  17.433  0.00  0.00    +0.000 A 
ATOM      5  C   UNL     1       4.032   5.835  17.948  0.00  0.00    +0.000 A 
ATOM      6  C   UNL     1       5.184   6.589  17.689  0.00  0.00    +0.000 A 
ENDROOT
BRANCH   1   8
ATOM      7  C   UNL     1       7.692   7.828  17.426  0.00  0.00    +0.000 C 
ATOM      8  O   UNL     1       7.399   6.676  16.643  0.00  0.00    +0.000 OA
ENDBRANCH   1   8
BRANCH   4   9
ATOM      9  C   UNL     1       2.705   3.686  17.718  0.00  0.00    +0.000 C 
ATOM     10  O   UNL     1       2.067   3.276  16.749  0.00  0.00    +0.000 OA
BRANCH   9  11
ATOM     11  C   UNL     1       2.355   3.380  19.100  0.00  0.00    +0.000 A 
ATOM     12  C   UNL     1       1.150   3.530  19.766  0.00  0.00    +0.000 A 
ATOM     13  C   UNL     1       1.230   3.137  21.135  0.00  0.00    +0.000 A 
ATOM     14  C   UNL     1       2.481   2.672  21.464  0.00  0.00    +0.000 A 
ATOM     15  S   UNL     1       3.547   2.700  20.128  0.00  0.00    +0.000 S 
ENDBRANCH   9  11
ENDBRANCH   4   9
TORSDOF 3
ENDMDL
MODEL 3
REMARK VINA RESULT:      -6.5      0.832      1.635
REMARK  Name = 
REMARK  4 active torsions:
REMARK  status: ('A' for Active; 'I' for Inactive)
REMARK    1  A    between atoms: C_1  and  O_2
REMARK    2  A    between atoms: O_2  and  C_3
REMARK    3  A    between atoms: C_6  and  C_7
REMARK    4  A    between atoms: C_7  and  C_9
REMARK                            x       y       z     vdW  Elec       q    Type
REMARK                         _______ _______ _______ _____ _____    ______ ____
ROOT
ATOM      1  C   UNL     1       5.847   5.369  16.300  0.00  0.00    +0.000 A 
ATOM      2  C   UNL     1       5.360   4.074  16.110  0.00  0.00    +0.000 A 
ATOM      3  C   UNL     1       4.124   3.695  16.642  0.00  0.00    +0.000 A 
ATOM      4  C   UNL     1       3.367   4.608  17.384  0.00  0.00    +0.000 A 
ATOM      5  C   UNL     1       3.875   5.896  17.605  0.00  0.00    +0.000 A 
ATOM      6  C   UNL     1       5.106   6.277  17.056  0.00  0.00    +0.000 A 
ENDROOT
BRANCH   1   8
ATOM      7  C   UNL     1       7.296   5.043  14.463  0.00  0.00    +0.000 C 
ATOM      8  O   UNL     1       7.070   5.618  15.745  0.00  0.00    +0.000 OA
ENDBRANCH   1   8
BRANCH   4   9
ATOM      9  C   UNL     1       2.074   4.151  17.983  0.00  0.00    +0.000 C 
ATOM     10  O   UNL     1       1.071   4.229  17.275  0.00  0.00    +0.000 OA
BRANCH   9  11
ATOM     11  C   UNL     1       2.058   3.640  19.349  0.00  0.00    +0.000 A 
ATOM     12  C   UNL     1       1.047   3.662  20.295  0.00  0.00    +0.000 A 
ATOM     13  C   UNL     1       1.444   3.076  21.534  0.00  0.00    +0.000 A 
ATOM     14  C   UNL     1       2.733   2.599  21.486  0.00  0.00    +0.000 A 
ATOM     15  S   UNL     1       3.453   2.846  19.956  0.00  0.00    +0.000 S 
ENDBRANCH   9  11
ENDBRANCH   4   9
TORSDOF 3
ENDMDL
MODEL 4
REMARK VINA RESULT:      -6.4      0.943      1.186
REMARK  Name = 
REMARK  4 active torsions:
REMARK  status: ('A' for Active; 'I' for Inactive)
REMARK    1  A    between atoms: C_1  and  O_2
REMARK    2  A    between atoms: O_2  and  C_3
REMARK    3  A    between atoms: C_6  and  C_7
REMARK    4  A    between atoms: C_7  and  C_9
REMARK                            x       y       z     vdW  Elec       q    Type
REMARK                         _______ _______ _______ _____ _____    ______ ____
ROOT
ATOM      1  C   UNL     1       6.174   6.013  16.754  0.00  0.00    +0.000 A 
ATOM      2  C   UNL     1       5.111   6.577  17.463  0.00  0.00    +0.000 A 
ATOM      3  C   UNL     1       4.012   5.796  17.836  0.00  0.00    +0.000 A 
ATOM      4  C   UNL     1       3.962   4.441  17.489  0.00  0.00    +0.000 A 
ATOM      5  C   UNL     1       5.012   3.887  16.745  0.00  0.00    +0.000 A 
ATOM      6  C   UNL     1       6.119   4.669  16.388  0.00  0.00    +0.000 A 
ENDROOT
BRANCH   1   8
ATOM      7  C   UNL     1       7.625   7.728  17.487  0.00  0.00    +0.000 C 
ATOM      8  O   UNL     1       7.184   6.876  16.435  0.00  0.00    +0.000 OA
ENDBRANCH   1   8
BRANCH   4   9
ATOM      9  C   UNL     1       2.746   3.650  17.858  0.00  0.00    +0.000 C 
ATOM     10  O   UNL     1       1.998   3.314  16.941  0.00  0.00    +0.000 OA
BRANCH   9  11
ATOM     11  C   UNL     1       2.507   3.313  19.256  0.00  0.00    +0.000 A 
ATOM     12  C   UNL     1       3.370   2.794  20.206  0.00  0.00    +0.000 A 
ATOM     13  C   UNL     1       2.732   2.578  21.464  0.00  0.00    +0.000 A 
ATOM     14  C   UNL     1       1.413   2.965  21.445  0.00  0.00    +0.000 A 
ATOM     15  S   UNL     1       0.952   3.595  19.924  0.00  0.00    +0.000 S 
ENDBRANCH   9  11
ENDBRANCH   4   9
TORSDOF 3
ENDMDL
MODEL 5
REMARK VINA RESULT:      -6.4      1.006      1.740
REMARK  Name = 
REMARK  4 active torsions:
REMARK  status: ('A' for Active; 'I' for Inactive)
REMARK    1  A    between atoms: C_1  and  O_2
REMARK    2  A    between atoms: O_2  and  C_3
REMARK    3  A    between atoms: C_6  and  C_7
REMARK    4  A    between atoms: C_7  and  C_9
REMARK                            x       y       z     vdW  Elec       q    Type
REMARK                         _______ _______ _______ _____ _____    ______ ____
ROOT
ATOM      1  C   UNL     1       6.272   6.037  16.923  0.00  0.00    +0.000 A 
ATOM      2  C   UNL     1       6.234   4.694  16.545  0.00  0.00    +0.000 A 
ATOM      3  C   UNL     1       5.105   3.913  16.813  0.00  0.00    +0.000 A 
ATOM      4  C   UNL     1       4.006   4.469  17.477  0.00  0.00    +0.000 A 
ATOM      5  C   UNL     1       4.062   5.808  17.889  0.00  0.00    +0.000 A 
ATOM      6  C   UNL     1       5.188   6.591  17.603  0.00  0.00    +0.000 A 
ENDROOT
BRANCH   1   8
ATOM      7  C   UNL     1       7.728   7.829  17.426  0.00  0.00    +0.000 C 
ATOM      8  O   UNL     1       7.431   6.694  16.620  0.00  0.00    +0.000 OA
ENDBRANCH   1   8
BRANCH   4   9
ATOM      9  C   UNL     1       2.838   3.589  17.795  0.00  0.00    +0.000 C 
ATOM     10  O   UNL     1       2.178   3.170  16.844  0.00  0.00    +0.000 OA
BRANCH   9  11
ATOM     11  C   UNL     1       2.539   3.268  19.185  0.00  0.00    +0.000 A 
ATOM     12  C   UNL     1       3.392   2.942  20.226  0.00  0.00    +0.000 A 
ATOM     13  C   UNL     1       2.694   2.666  21.439  0.00  0.00    +0.000 A 
ATOM     14  C   UNL     1       1.335   2.818  21.296  0.00  0.00    +0.000 A 
ATOM     15  S   UNL     1       0.907   3.301  19.713  0.00  0.00    +0.000 S 
ENDBRANCH   9  11
ENDBRANCH   4   9
TORSDOF 3
ENDMDL
MODEL 6
REMARK VINA RESULT:      -6.3      1.806      2.142
REMARK  Name = 
REMARK  4 active torsions:
REMARK  status: ('A' for Active; 'I' for Inactive)
REMARK    1  A    between atoms: C_1  and  O_2
REMARK    2  A    between atoms: O_2  and  C_3
REMARK    3  A    between atoms: C_6  and  C_7
REMARK    4  A    between atoms: C_7  and  C_9
REMARK                            x       y       z     vdW  Elec       q    Type
REMARK                         _______ _______ _______ _____ _____    ______ ____
ROOT
ATOM      1  C   UNL     1       6.312   5.735  16.672  0.00  0.00    +0.000 A 
ATOM      2  C   UNL     1       5.280   6.624  16.367  0.00  0.00    +0.000 A 
ATOM      3  C   UNL     1       4.177   6.751  17.218  0.00  0.00    +0.000 A 
ATOM      4  C   UNL     1       4.091   5.974  18.379  0.00  0.00    +0.000 A 
ATOM      5  C   UNL     1       5.111   5.055  18.663  0.00  0.00    +0.000 A 
ATOM      6  C   UNL     1       6.221   4.943  17.816  0.00  0.00    +0.000 A 
ENDROOT
BRANCH   1   8
ATOM      7  C   UNL     1       7.108   4.853  14.629  0.00  0.00    +0.000 C 
ATOM      8  O   UNL     1       7.328   5.689  15.760  0.00  0.00    +0.000 OA
ENDBRANCH   1   8
BRANCH   4   9
ATOM      9  C   UNL     1       2.872   6.097  19.237  0.00  0.00    +0.000 C 
ATOM     10  O   UNL     1       2.453   7.233  19.456  0.00  0.00    +0.000 OA
BRANCH   9  11
ATOM     11  C   UNL     1       2.240   4.892  19.763  0.00  0.00    +0.000 A 
ATOM     12  C   UNL     1       2.091   4.465  21.072  0.00  0.00    +0.000 A 
ATOM     13  C   UNL     1       1.432   3.203  21.164  0.00  0.00    +0.000 A 
ATOM     14  C   UNL     1       1.074   2.719  19.927  0.00  0.00    +0.000 A 
ATOM     15  S   UNL     1       1.518   3.786  18.668  0.00  0.00    +0.000 S 
ENDBRANCH   9  11
ENDBRANCH   4   9
TORSDOF 3
ENDMDL
MODEL 7
REMARK VINA RESULT:      -6.3      1.445      1.854
REMARK  Name = 
REMARK  4 active torsions:
REMARK  status: ('A' for Active; 'I' for Inactive)
REMARK    1  A    between atoms: C_1  and  O_2
REMARK    2  A    between atoms: O_2  and  C_3
REMARK    3  A    between atoms: C_6  and  C_7
REMARK    4  A    between atoms: C_7  and  C_9
REMARK                            x       y       z     vdW  Elec       q    Type
REMARK                         _______ _______ _______ _____ _____    ______ ____
ROOT
ATOM      1  C   UNL     1       6.717   6.028  17.178  0.00  0.00    +0.000 A 
ATOM      2  C   UNL     1       5.955   5.416  16.182  0.00  0.00    +0.000 A 
ATOM      3  C   UNL     1       4.983   4.466  16.512  0.00  0.00    +0.000 A 
ATOM      4  C   UNL     1       4.776   4.108  17.849  0.00  0.00    +0.000 A 
ATOM      5  C   UNL     1       5.568   4.696  18.845  0.00  0.00    +0.000 A 
ATOM      6  C   UNL     1       6.529   5.659  18.510  0.00  0.00    +0.000 A 
ENDROOT
BRANCH   1   8
ATOM      7  C   UNL     1       7.858   8.059  17.571  0.00  0.00    +0.000 C 
ATOM      8  O   UNL     1       7.642   6.929  16.733  0.00  0.00    +0.000 OA
ENDBRANCH   1   8
BRANCH   4   9
ATOM      9  C   UNL     1       3.766   3.049  18.161  0.00  0.00    +0.000 C 
ATOM     10  O   UNL     1       3.841   1.999  17.524  0.00  0.00    +0.000 OA
BRANCH   9  11
ATOM     11  C   UNL     1       2.759   3.297  19.187  0.00  0.00    +0.000 A 
ATOM     12  C   UNL     1       1.558   3.982  19.108  0.00  0.00    +0.000 A 
ATOM     13  C   UNL     1       0.869   4.023  20.357  0.00  0.00    +0.000 A 
ATOM     14  C   UNL     1       1.550   3.346  21.342  0.00  0.00    +0.000 A 
ATOM     15  S   UNL     1       3.001   2.656  20.760  0.00  0.00    +0.000 S 
ENDBRANCH   9  11
ENDBRANCH   4   9
TORSDOF 3
ENDMDL
MODEL 8
REMARK VINA RESULT:      -6.3      1.214      1.317
REMARK  Name = 
REMARK  4 active torsions:
REMARK  status: ('A' for Active; 'I' for Inactive)
REMARK    1  A    between atoms: C_1  and  O_2
REMARK    2  A    between atoms: O_2  and  C_3
REMARK    3  A    between atoms: C_6  and  C_7
REMARK    4  A    between atoms: C_7  and  C_9
REMARK                            x       y       z     vdW  Elec       q    Type
REMARK                         _______ _______ _______ _____ _____    ______ ____
ROOT
ATOM      1  C   UNL     1       6.611   6.154  17.118  0.00  0.00    +0.000 A 
ATOM      2  C   UNL     1       5.361   6.630  16.720  0.00  0.00    +0.000 A 
ATOM      3  C   UNL     1       4.203   5.891  16.984  0.00  0.00    +0.000 A 
ATOM      4  C   UNL     1       4.289   4.658  17.640  0.00  0.00    +0.000 A 
ATOM      5  C   UNL     1       5.550   4.165  18.005  0.00  0.00    +0.000 A 
ATOM      6  C   UNL     1       6.705   4.916  17.753  0.00  0.00    +0.000 A 
ENDROOT
BRANCH   1   8
ATOM      7  C   UNL     1       7.836   8.116  17.602  0.00  0.00    +0.000 C 
ATOM      8  O   UNL     1       7.669   6.956  16.794  0.00  0.00    +0.000 OA
ENDBRANCH   1   8
BRANCH   4   9
ATOM      9  C   UNL     1       3.036   3.870  17.858  0.00  0.00    +0.000 C 
ATOM     10  O   UNL     1       2.478   3.418  16.858  0.00  0.00    +0.000 OA
BRANCH   9  11
ATOM     11  C   UNL     1       2.540   3.671  19.215  0.00  0.00    +0.000 A 
ATOM     12  C   UNL     1       2.635   4.492  20.326  0.00  0.00    +0.000 A 
ATOM     13  C   UNL     1       2.038   3.913  21.486  0.00  0.00    +0.000 A 
ATOM     14  C   UNL     1       1.482   2.684  21.218  0.00  0.00    +0.000 A 
ATOM     15  S   UNL     1       1.668   2.239  19.579  0.00  0.00    +0.000 S 
ENDBRANCH   9  11
ENDBRANCH   4   9
TORSDOF 3
ENDMDL
MODEL 9
REMARK VINA RESULT:      -6.2      1.830      2.270
REMARK  Name = 
REMARK  4 active torsions:
REMARK  status: ('A' for Active; 'I' for Inactive)
REMARK    1  A    between atoms: C_1  and  O_2
REMARK    2  A    between atoms: O_2  and  C_3
REMARK    3  A    between atoms: C_6  and  C_7
REMARK    4  A    between atoms: C_7  and  C_9
REMARK                            x       y       z     vdW  Elec       q    Type
REMARK                         _______ _______ _______ _____ _____    ______ ____
ROOT
ATOM      1  C   UNL     1       6.162   5.811  16.534  0.00  0.00    +0.000 A 
ATOM      2  C   UNL     1       6.152   5.054  17.707  0.00  0.00    +0.000 A 
ATOM      3  C   UNL     1       5.065   5.116  18.584  0.00  0.00    +0.000 A 
ATOM      4  C   UNL     1       3.979   5.952  18.300  0.00  0.00    +0.000 A 
ATOM      5  C   UNL     1       4.007   6.740  17.141  0.00  0.00    +0.000 A 
ATOM      6  C   UNL     1       5.092   6.661  16.257  0.00  0.00    +0.000 A 
ENDROOT
BRANCH   1   8
ATOM      7  C   UNL     1       7.151   4.837  14.622  0.00  0.00    +0.000 C 
ATOM      8  O   UNL     1       7.282   5.677  15.764  0.00  0.00    +0.000 OA
ENDBRANCH   1   8
BRANCH   4   9
ATOM      9  C   UNL     1       2.857   6.034  19.287  0.00  0.00    +0.000 C 
ATOM     10  O   UNL     1       2.561   7.152  19.707  0.00  0.00    +0.000 OA
BRANCH   9  11
ATOM     11  C   UNL     1       2.173   4.814  19.699  0.00  0.00    +0.000 A 
ATOM     12  C   UNL     1       1.926   4.317  20.968  0.00  0.00    +0.000 A 
ATOM     13  C   UNL     1       1.245   3.064  20.942  0.00  0.00    +0.000 A 
ATOM     14  C   UNL     1       0.967   2.657  19.658  0.00  0.00    +0.000 A 
ATOM     15  S   UNL     1       1.514   3.784  18.496  0.00  0.00    +0.000 S 
ENDBRANCH   9  11
ENDBRANCH   4   9
TORSDOF 3
ENDMDL
