MODEL 1
REMARK VINA RESULT:      -6.9      0.000      0.000
REMARK  Name = 
REMARK  10 active torsions:
REMARK  status: ('A' for Active; 'I' for Inactive)
REMARK    1  A    between atoms: C_1  and  C_2
REMARK    2  A    between atoms: C_4  and  C_5
REMARK    3  A    between atoms: C_6  and  N_7
REMARK    4  A    between atoms: C_8  and  C_10
REMARK    5  A    between atoms: C_10  and  S_11
REMARK    6  A    between atoms: S_11  and  C_12
REMARK    7  A    between atoms: C_12  and  C_13
REMARK    8  A    between atoms: C_15  and  O_16
REMARK    9  A    between atoms: C_18  and  C_19
REMARK   10  A    between atoms: C_20  and  C_21
REMARK                            x       y       z     vdW  Elec       q    Type
REMARK                         _______ _______ _______ _____ _____    ______ ____
ROOT
ATOM      1  S   UNL     1       2.036   2.736  21.402  0.00  0.00    +0.000 S 
ENDROOT
BRANCH   1   2
ATOM      2  C   UNL     1       2.502   4.486  21.630  0.00  0.00    +0.000 C 
BRANCH   2   4
ATOM      3  N   UNL     1       2.090   6.760  20.808  0.00  0.00    +0.000 N 
ATOM      4  C   UNL     1       1.778   5.425  20.658  0.00  0.00    +0.000 C 
ATOM      5  O   UNL     1       1.025   4.933  19.823  0.00  0.00    +0.000 OA
ATOM      6  H   UNL     1       2.572   6.966  21.684  0.00  0.00    +0.000 HD
BRANCH   3  12
ATOM      7  C   UNL     1       0.127  11.622  18.374  0.00  0.00    +0.000 C 
ATOM      8  C   UNL     1       0.653  10.357  18.985  0.00  0.00    +0.000 A 
ATOM      9  C   UNL     1       1.389   9.449  18.220  0.00  0.00    +0.000 A 
ATOM     10  C   UNL     1       1.917   8.247  18.758  0.00  0.00    +0.000 A 
ATOM     11  C   UNL     1       2.730   7.427  17.797  0.00  0.00    +0.000 C 
ATOM     12  C   UNL     1       1.668   7.926  20.104  0.00  0.00    +0.000 A 
ATOM     13  C   UNL     1       0.928   8.870  20.872  0.00  0.00    +0.000 A 
ATOM     14 CL   UNL     1       0.591   8.588  22.555  0.00  0.00    +0.000 Cl
ATOM     15  C   UNL     1       0.430  10.060  20.324  0.00  0.00    +0.000 A 
ENDBRANCH   3  12
ENDBRANCH   2   4
ENDBRANCH   1   2
BRANCH   1  16
ATOM     16  C   UNL     1       3.550   2.120  20.581  0.00  0.00    +0.000 C 
BRANCH  16  17
ATOM     17  C   UNL     1       4.112   3.058  19.535  0.00  0.00    +0.000 A 
ATOM     18  N   UNL     1       3.518   3.043  18.325  0.00  0.00    +0.000 NA
ATOM     19  C   UNL     1       3.995   3.866  17.388  0.00  0.00    +0.000 A 
ATOM     20  C   UNL     1       5.065   4.726  17.622  0.00  0.00    +0.000 A 
ATOM     21  C   UNL     1       5.780   5.701  16.824  0.00  0.00    +0.000 A 
ATOM     22  C   UNL     1       5.484   6.026  15.393  0.00  0.00    +0.000 C 
ATOM     23  C   UNL     1       6.799   6.298  17.555  0.00  0.00    +0.000 A 
ATOM     24  C   UNL     1       7.783   7.337  17.118  0.00  0.00    +0.000 C 
ATOM     25  S   UNL     1       6.877   5.707  19.160  0.00  0.00    +0.000 S 
ATOM     26  C   UNL     1       5.579   4.640  18.905  0.00  0.00    +0.000 A 
ATOM     27  N   UNL     1       5.153   3.829  19.892  0.00  0.00    +0.000 NA
BRANCH  19  28
ATOM     28  O   UNL     1       3.337   3.787  16.196  0.00  0.00    +0.000 OA
ATOM     29  H   UNL     1       2.515   4.262  16.416  0.00  0.00    +0.000 HD
ENDBRANCH  19  28
ENDBRANCH  16  17
ENDBRANCH   1  16
TORSDOF 6
ENDMDL
MODEL 2
REMARK VINA RESULT:      -6.8      5.279      7.682
REMARK  Name = 
REMARK  10 active torsions:
REMARK  status: ('A' for Active; 'I' for Inactive)
REMARK    1  A    between atoms: C_1  and  C_2
REMARK    2  A    between atoms: C_4  and  C_5
REMARK    3  A    between atoms: C_6  and  N_7
REMARK    4  A    between atoms: C_8  and  C_10
REMARK    5  A    between atoms: C_10  and  S_11
REMARK    6  A    between atoms: S_11  and  C_12
REMARK    7  A    between atoms: C_12  and  C_13
REMARK    8  A    between atoms: C_15  and  O_16
REMARK    9  A    between atoms: C_18  and  C_19
REMARK   10  A    between atoms: C_20  and  C_21
REMARK                            x       y       z     vdW  Elec       q    Type
REMARK                         _______ _______ _______ _____ _____    ______ ____
ROOT
ATOM      1  S   UNL     1       7.442   7.539  17.162  0.00  0.00    +0.000 S 
ENDROOT
BRANCH   1   2
ATOM      2  C   UNL     1       8.522   8.096  18.525  0.00  0.00    +0.000 C 
BRANCH   2   4
ATOM      3  N   UNL     1       9.391  10.087  19.665  0.00  0.00    +0.000 N 
ATOM      4  C   UNL     1       8.595   9.624  18.638  0.00  0.00    +0.000 C 
ATOM      5  O   UNL     1       7.988  10.299  17.813  0.00  0.00    +0.000 OA
ATOM      6  H   UNL     1       9.632   9.366  20.345  0.00  0.00    +0.000 HD
BRANCH   3  12
ATOM      7  C   UNL     1      11.115  15.448  20.968  0.00  0.00    +0.000 C 
ATOM      8  C   UNL     1      10.648  14.059  20.648  0.00  0.00    +0.000 A 
ATOM      9  C   UNL     1       9.790  13.379  21.515  0.00  0.00    +0.000 A 
ATOM     10  C   UNL     1       9.313  12.070  21.248  0.00  0.00    +0.000 A 
ATOM     11  C   UNL     1       8.354  11.526  22.268  0.00  0.00    +0.000 C 
ATOM     12  C   UNL     1       9.740  11.404  20.085  0.00  0.00    +0.000 A 
ATOM     13  C   UNL     1      10.603  12.119  19.205  0.00  0.00    +0.000 A 
ATOM     14 CL   UNL     1      11.163  11.402  17.724  0.00  0.00    +0.000 Cl
ATOM     15  C   UNL     1      11.048  13.418  19.481  0.00  0.00    +0.000 A 
ENDBRANCH   3  12
ENDBRANCH   2   4
ENDBRANCH   1   2
BRANCH   1  16
ATOM     16  C   UNL     1       7.246   5.781  17.626  0.00  0.00    +0.000 C 
BRANCH  16  17
ATOM     17  C   UNL     1       5.929   5.461  18.298  0.00  0.00    +0.000 A 
ATOM     18  N   UNL     1       4.959   6.393  18.207  0.00  0.00    +0.000 NA
ATOM     19  C   UNL     1       3.787   6.130  18.789  0.00  0.00    +0.000 A 
ATOM     20  C   UNL     1       3.540   4.940  19.470  0.00  0.00    +0.000 A 
ATOM     21  C   UNL     1       2.403   4.392  20.181  0.00  0.00    +0.000 A 
ATOM     22  C   UNL     1       1.086   5.081  20.361  0.00  0.00    +0.000 C 
ATOM     23  C   UNL     1       2.691   3.134  20.694  0.00  0.00    +0.000 A 
ATOM     24  C   UNL     1       1.816   2.226  21.500  0.00  0.00    +0.000 C 
ATOM     25  S   UNL     1       4.282   2.628  20.315  0.00  0.00    +0.000 S 
ATOM     26  C   UNL     1       4.619   4.072  19.485  0.00  0.00    +0.000 A 
ATOM     27  N   UNL     1       5.828   4.278  18.927  0.00  0.00    +0.000 NA
BRANCH  19  28
ATOM     28  O   UNL     1       2.865   7.125  18.650  0.00  0.00    +0.000 OA
ATOM     29  H   UNL     1       2.739   7.115  17.684  0.00  0.00    +0.000 HD
ENDBRANCH  19  28
ENDBRANCH  16  17
ENDBRANCH   1  16
TORSDOF 6
ENDMDL
MODEL 3
REMARK VINA RESULT:      -6.8      6.695      9.295
REMARK  Name = 
REMARK  10 active torsions:
REMARK  status: ('A' for Active; 'I' for Inactive)
REMARK    1  A    between atoms: C_1  and  C_2
REMARK    2  A    between atoms: C_4  and  C_5
REMARK    3  A    between atoms: C_6  and  N_7
REMARK    4  A    between atoms: C_8  and  C_10
REMARK    5  A    between atoms: C_10  and  S_11
REMARK    6  A    between atoms: S_11  and  C_12
REMARK    7  A    between atoms: C_12  and  C_13
REMARK    8  A    between atoms: C_15  and  O_16
REMARK    9  A    between atoms: C_18  and  C_19
REMARK   10  A    between atoms: C_20  and  C_21
REMARK                            x       y       z     vdW  Elec       q    Type
REMARK                         _______ _______ _______ _____ _____    ______ ____
ROOT
ATOM      1  S   UNL     1       8.769   9.848  18.841  0.00  0.00    +0.000 S 
ENDROOT
BRANCH   1   2
ATOM      2  C   UNL     1       7.995   9.015  17.413  0.00  0.00    +0.000 C 
BRANCH   2   4
ATOM      3  N   UNL     1       6.267   7.301  17.105  0.00  0.00    +0.000 N 
ATOM      4  C   UNL     1       7.431   7.633  17.766  0.00  0.00    +0.000 C 
ATOM      5  O   UNL     1       8.054   6.934  18.559  0.00  0.00    +0.000 OA
ATOM      6  H   UNL     1       5.818   8.100  16.654  0.00  0.00    +0.000 HD
BRANCH   3  12
ATOM      7  C   UNL     1       2.611   2.834  17.397  0.00  0.00    +0.000 C 
ATOM      8  C   UNL     1       3.577   3.978  17.305  0.00  0.00    +0.000 A 
ATOM      9  C   UNL     1       4.889   3.771  16.876  0.00  0.00    +0.000 A 
ATOM     10  C   UNL     1       5.832   4.824  16.762  0.00  0.00    +0.000 A 
ATOM     11  C   UNL     1       7.175   4.416  16.227  0.00  0.00    +0.000 C 
ATOM     12  C   UNL     1       5.456   6.130  17.126  0.00  0.00    +0.000 A 
ATOM     13  C   UNL     1       4.110   6.324  17.549  0.00  0.00    +0.000 A 
ATOM     14 CL   UNL     1       3.531   7.903  17.990  0.00  0.00    +0.000 Cl
ATOM     15  C   UNL     1       3.190   5.271  17.637  0.00  0.00    +0.000 A 
ENDBRANCH   3  12
ENDBRANCH   2   4
ENDBRANCH   1   2
BRANCH   1  16
ATOM     16  C   UNL     1      10.149  10.696  17.991  0.00  0.00    +0.000 C 
BRANCH  16  17
ATOM     17  C   UNL     1      10.029  12.204  17.969  0.00  0.00    +0.000 A 
ATOM     18  N   UNL     1      10.981  12.879  17.294  0.00  0.00    +0.000 NA
ATOM     19  C   UNL     1      10.893  14.210  17.258  0.00  0.00    +0.000 A 
ATOM     20  C   UNL     1       9.861  14.908  17.882  0.00  0.00    +0.000 A 
ATOM     21  C   UNL     1       9.514  16.309  18.012  0.00  0.00    +0.000 A 
ATOM     22  C   UNL     1      10.295  17.447  17.433  0.00  0.00    +0.000 C 
ATOM     23  C   UNL     1       8.356  16.471  18.761  0.00  0.00    +0.000 A 
ATOM     24  C   UNL     1       7.659  17.737  19.150  0.00  0.00    +0.000 C 
ATOM     25  S   UNL     1       7.703  14.975  19.279  0.00  0.00    +0.000 S 
ATOM     26  C   UNL     1       8.952  14.094  18.537  0.00  0.00    +0.000 A 
ATOM     27  N   UNL     1       8.988  12.750  18.619  0.00  0.00    +0.000 NA
BRANCH  19  28
ATOM     28  O   UNL     1      11.895  14.812  16.556  0.00  0.00    +0.000 OA
ATOM     29  H   UNL     1      11.920  14.246  15.764  0.00  0.00    +0.000 HD
ENDBRANCH  19  28
ENDBRANCH  16  17
ENDBRANCH   1  16
TORSDOF 6
ENDMDL
MODEL 4
REMARK VINA RESULT:      -6.8      4.149      5.985
REMARK  Name = 
REMARK  10 active torsions:
REMARK  status: ('A' for Active; 'I' for Inactive)
REMARK    1  A    between atoms: C_1  and  C_2
REMARK    2  A    between atoms: C_4  and  C_5
REMARK    3  A    between atoms: C_6  and  N_7
REMARK    4  A    between atoms: C_8  and  C_10
REMARK    5  A    between atoms: C_10  and  S_11
REMARK    6  A    between atoms: S_11  and  C_12
REMARK    7  A    between atoms: C_12  and  C_13
REMARK    8  A    between atoms: C_15  and  O_16
REMARK    9  A    between atoms: C_18  and  C_19
REMARK   10  A    between atoms: C_20  and  C_21
REMARK                            x       y       z     vdW  Elec       q    Type
REMARK                         _______ _______ _______ _____ _____    ______ ____
ROOT
ATOM      1  S   UNL     1       0.794  10.052  20.211  0.00  0.00    +0.000 S 
ENDROOT
BRANCH   1   2
ATOM      2  C   UNL     1       0.911  11.854  19.940  0.00  0.00    +0.000 C 
BRANCH   2   4
ATOM      3  N   UNL     1      -1.496  11.653  19.510  0.00  0.00    +0.000 N 
ATOM      4  C   UNL     1      -0.381  12.453  19.370  0.00  0.00    +0.000 C 
ATOM      5  O   UNL     1      -0.336  13.576  18.878  0.00  0.00    +0.000 OA
ATOM      6  H   UNL     1      -1.272  10.689  19.758  0.00  0.00    +0.000 HD
BRANCH   3  12
ATOM      7  C   UNL     1      -6.925  12.213  17.605  0.00  0.00    +0.000 C 
ATOM      8  C   UNL     1      -5.524  12.074  18.125  0.00  0.00    +0.000 A 
ATOM      9  C   UNL     1      -5.163  12.626  19.355  0.00  0.00    +0.000 A 
ATOM     10  C   UNL     1      -3.855  12.510  19.891  0.00  0.00    +0.000 A 
ATOM     11  C   UNL     1      -3.673  13.117  21.253  0.00  0.00    +0.000 C 
ATOM     12  C   UNL     1      -2.862  11.845  19.149  0.00  0.00    +0.000 A 
ATOM     13  C   UNL     1      -3.252  11.277  17.903  0.00  0.00    +0.000 A 
ATOM     14 CL   UNL     1      -2.112  10.406  16.921  0.00  0.00    +0.000 Cl
ATOM     15  C   UNL     1      -4.555  11.390  17.401  0.00  0.00    +0.000 A 
ENDBRANCH   3  12
ENDBRANCH   2   4
ENDBRANCH   1   2
BRANCH   1  16
ATOM     16  C   UNL     1       1.268   9.460  18.547  0.00  0.00    +0.000 C 
BRANCH  16  17
ATOM     17  C   UNL     1       2.165   8.241  18.556  0.00  0.00    +0.000 A 
ATOM     18  N   UNL     1       2.024   7.392  19.593  0.00  0.00    +0.000 NA
ATOM     19  C   UNL     1       2.802   6.307  19.619  0.00  0.00    +0.000 A 
ATOM     20  C   UNL     1       3.733   6.031  18.621  0.00  0.00    +0.000 A 
ATOM     21  C   UNL     1       4.689   4.967  18.387  0.00  0.00    +0.000 A 
ATOM     22  C   UNL     1       4.907   3.792  19.289  0.00  0.00    +0.000 C 
ATOM     23  C   UNL     1       5.398   5.178  17.212  0.00  0.00    +0.000 A 
ATOM     24  C   UNL     1       6.481   4.343  16.606  0.00  0.00    +0.000 C 
ATOM     25  S   UNL     1       4.912   6.611  16.411  0.00  0.00    +0.000 S 
ATOM     26  C   UNL     1       3.773   6.983  17.615  0.00  0.00    +0.000 A 
ATOM     27  N   UNL     1       3.025   8.100  17.533  0.00  0.00    +0.000 NA
BRANCH  19  28
ATOM     28  O   UNL     1       2.595   5.504  20.702  0.00  0.00    +0.000 OA
ATOM     29  H   UNL     1       3.336   5.781  21.271  0.00  0.00    +0.000 HD
ENDBRANCH  19  28
ENDBRANCH  16  17
ENDBRANCH   1  16
TORSDOF 6
ENDMDL
MODEL 5
REMARK VINA RESULT:      -6.7      2.852      7.023
REMARK  Name = 
REMARK  10 active torsions:
REMARK  status: ('A' for Active; 'I' for Inactive)
REMARK    1  A    between atoms: C_1  and  C_2
REMARK    2  A    between atoms: C_4  and  C_5
REMARK    3  A    between atoms: C_6  and  N_7
REMARK    4  A    between atoms: C_8  and  C_10
REMARK    5  A    between atoms: C_10  and  S_11
REMARK    6  A    between atoms: S_11  and  C_12
REMARK    7  A    between atoms: C_12  and  C_13
REMARK    8  A    between atoms: C_15  and  O_16
REMARK    9  A    between atoms: C_18  and  C_19
REMARK   10  A    between atoms: C_20  and  C_21
REMARK                            x       y       z     vdW  Elec       q    Type
REMARK                         _______ _______ _______ _____ _____    ______ ____
ROOT
ATOM      1  S   UNL     1       1.805   4.724  20.651  0.00  0.00    +0.000 S 
ENDROOT
BRANCH   1   2
ATOM      2  C   UNL     1       3.175   3.557  20.957  0.00  0.00    +0.000 C 
BRANCH   2   4
ATOM      3  N   UNL     1       4.444   4.335  19.007  0.00  0.00    +0.000 N 
ATOM      4  C   UNL     1       3.972   3.232  19.689  0.00  0.00    +0.000 C 
ATOM      5  O   UNL     1       4.156   2.053  19.401  0.00  0.00    +0.000 OA
ATOM      6  H   UNL     1       4.007   5.208  19.304  0.00  0.00    +0.000 HD
BRANCH   3  12
ATOM      7  C   UNL     1       7.252   4.661  13.966  0.00  0.00    +0.000 C 
ATOM      8  C   UNL     1       6.542   4.592  15.285  0.00  0.00    +0.000 A 
ATOM      9  C   UNL     1       7.198   4.945  16.467  0.00  0.00    +0.000 A 
ATOM     10  C   UNL     1       6.564   4.908  17.734  0.00  0.00    +0.000 A 
ATOM     11  C   UNL     1       7.412   5.380  18.881  0.00  0.00    +0.000 C 
ATOM     12  C   UNL     1       5.232   4.465  17.827  0.00  0.00    +0.000 A 
ATOM     13  C   UNL     1       4.575   4.121  16.611  0.00  0.00    +0.000 A 
ATOM     14 CL   UNL     1       2.918   3.593  16.608  0.00  0.00    +0.000 Cl
ATOM     15  C   UNL     1       5.216   4.183  15.366  0.00  0.00    +0.000 A 
ENDBRANCH   3  12
ENDBRANCH   2   4
ENDBRANCH   1   2
BRANCH   1  16
ATOM     16  C   UNL     1       2.738   6.097  19.883  0.00  0.00    +0.000 C 
BRANCH  16  17
ATOM     17  C   UNL     1       2.008   7.422  19.892  0.00  0.00    +0.000 A 
ATOM     18  N   UNL     1       2.063   8.154  18.762  0.00  0.00    +0.000 NA
ATOM     19  C   UNL     1       1.422   9.325  18.747  0.00  0.00    +0.000 A 
ATOM     20  C   UNL     1       0.708   9.800  19.844  0.00  0.00    +0.000 A 
ATOM     21  C   UNL     1      -0.063  10.998  20.115  0.00  0.00    +0.000 A 
ATOM     22  C   UNL     1      -0.275  12.122  19.150  0.00  0.00    +0.000 C 
ATOM     23  C   UNL     1      -0.579  10.981  21.405  0.00  0.00    +0.000 A 
ATOM     24  C   UNL     1      -1.411  12.014  22.096  0.00  0.00    +0.000 C 
ATOM     25  S   UNL     1      -0.155   9.556  22.253  0.00  0.00    +0.000 S 
ATOM     26  C   UNL     1       0.731   8.950  20.937  0.00  0.00    +0.000 A 
ATOM     27  N   UNL     1       1.364   7.763  21.021  0.00  0.00    +0.000 NA
BRANCH  19  28
ATOM     28  O   UNL     1       1.530   9.999  17.567  0.00  0.00    +0.000 OA
ATOM     29  H   UNL     1       1.236  10.886  17.842  0.00  0.00    +0.000 HD
ENDBRANCH  19  28
ENDBRANCH  16  17
ENDBRANCH   1  16
TORSDOF 6
ENDMDL
MODEL 6
REMARK VINA RESULT:      -6.7      4.194      6.033
REMARK  Name = 
REMARK  10 active torsions:
REMARK  status: ('A' for Active; 'I' for Inactive)
REMARK    1  A    between atoms: C_1  and  C_2
REMARK    2  A    between atoms: C_4  and  C_5
REMARK    3  A    between atoms: C_6  and  N_7
REMARK    4  A    between atoms: C_8  and  C_10
REMARK    5  A    between atoms: C_10  and  S_11
REMARK    6  A    between atoms: S_11  and  C_12
REMARK    7  A    between atoms: C_12  and  C_13
REMARK    8  A    between atoms: C_15  and  O_16
REMARK    9  A    between atoms: C_18  and  C_19
REMARK   10  A    between atoms: C_20  and  C_21
REMARK                            x       y       z     vdW  Elec       q    Type
REMARK                         _______ _______ _______ _____ _____    ______ ____
ROOT
ATOM      1  S   UNL     1       0.789   9.687  18.213  0.00  0.00    +0.000 S 
ENDROOT
BRANCH   1   2
ATOM      2  C   UNL     1       0.903  11.362  18.928  0.00  0.00    +0.000 C 
BRANCH   2   4
ATOM      3  N   UNL     1      -1.526  11.355  18.584  0.00  0.00    +0.000 N 
ATOM      4  C   UNL     1      -0.418  12.136  18.842  0.00  0.00    +0.000 C 
ATOM      5  O   UNL     1      -0.399  13.347  19.035  0.00  0.00    +0.000 OA
ATOM      6  H   UNL     1      -1.290  10.417  18.258  0.00  0.00    +0.000 HD
BRANCH   3  12
ATOM      7  C   UNL     1      -7.104  12.493  17.584  0.00  0.00    +0.000 C 
ATOM      8  C   UNL     1      -5.661  12.200  17.870  0.00  0.00    +0.000 A 
ATOM      9  C   UNL     1      -5.103  12.512  19.112  0.00  0.00    +0.000 A 
ATOM     10  C   UNL     1      -3.748  12.242  19.431  0.00  0.00    +0.000 A 
ATOM     11  C   UNL     1      -3.347  12.594  20.836  0.00  0.00    +0.000 C 
ATOM     12  C   UNL     1      -2.910  11.671  18.457  0.00  0.00    +0.000 A 
ATOM     13  C   UNL     1      -3.499  11.347  17.202  0.00  0.00    +0.000 A 
ATOM     14 CL   UNL     1      -2.561  10.608  15.938  0.00  0.00    +0.000 Cl
ATOM     15  C   UNL     1      -4.846  11.607  16.913  0.00  0.00    +0.000 A 
ENDBRANCH   3  12
ENDBRANCH   2   4
ENDBRANCH   1   2
BRANCH   1  16
ATOM     16  C   UNL     1       1.775   8.760  19.443  0.00  0.00    +0.000 C 
BRANCH  16  17
ATOM     17  C   UNL     1       2.420   7.503  18.900  0.00  0.00    +0.000 A 
ATOM     18  N   UNL     1       3.297   7.659  17.889  0.00  0.00    +0.000 NA
ATOM     19  C   UNL     1       3.881   6.563  17.397  0.00  0.00    +0.000 A 
ATOM     20  C   UNL     1       3.617   5.289  17.893  0.00  0.00    +0.000 A 
ATOM     21  C   UNL     1       4.082   3.955  17.570  0.00  0.00    +0.000 A 
ATOM     22  C   UNL     1       5.066   3.624  16.491  0.00  0.00    +0.000 C 
ATOM     23  C   UNL     1       3.486   3.004  18.388  0.00  0.00    +0.000 A 
ATOM     24  C   UNL     1       3.665   1.519  18.385  0.00  0.00    +0.000 C 
ATOM     25  S   UNL     1       2.408   3.705  19.518  0.00  0.00    +0.000 S 
ATOM     26  C   UNL     1       2.700   5.273  18.931  0.00  0.00    +0.000 A 
ATOM     27  N   UNL     1       2.070   6.336  19.466  0.00  0.00    +0.000 NA
BRANCH  19  28
ATOM     28  O   UNL     1       4.752   6.812  16.378  0.00  0.00    +0.000 OA
ATOM     29  H   UNL     1       5.420   6.124  16.545  0.00  0.00    +0.000 HD
ENDBRANCH  19  28
ENDBRANCH  16  17
ENDBRANCH   1  16
TORSDOF 6
ENDMDL
MODEL 7
REMARK VINA RESULT:      -6.7      4.152      6.098
REMARK  Name = 
REMARK  10 active torsions:
REMARK  status: ('A' for Active; 'I' for Inactive)
REMARK    1  A    between atoms: C_1  and  C_2
REMARK    2  A    between atoms: C_4  and  C_5
REMARK    3  A    between atoms: C_6  and  N_7
REMARK    4  A    between atoms: C_8  and  C_10
REMARK    5  A    between atoms: C_10  and  S_11
REMARK    6  A    between atoms: S_11  and  C_12
REMARK    7  A    between atoms: C_12  and  C_13
REMARK    8  A    between atoms: C_15  and  O_16
REMARK    9  A    between atoms: C_18  and  C_19
REMARK   10  A    between atoms: C_20  and  C_21
REMARK                            x       y       z     vdW  Elec       q    Type
REMARK                         _______ _______ _______ _____ _____    ______ ____
ROOT
ATOM      1  S   UNL     1       0.703   9.917  19.026  0.00  0.00    +0.000 S 
ENDROOT
BRANCH   1   2
ATOM      2  C   UNL     1       0.809  11.722  18.774  0.00  0.00    +0.000 C 
BRANCH   2   4
ATOM      3  N   UNL     1      -1.613  11.486  18.467  0.00  0.00    +0.000 N 
ATOM      4  C   UNL     1      -0.540  12.350  18.403  0.00  0.00    +0.000 C 
ATOM      5  O   UNL     1      -0.570  13.543  18.120  0.00  0.00    +0.000 OA
ATOM      6  H   UNL     1      -1.338  10.504  18.523  0.00  0.00    +0.000 HD
BRANCH   3  12
ATOM      7  C   UNL     1      -7.305  12.382  18.005  0.00  0.00    +0.000 C 
ATOM      8  C   UNL     1      -5.826  12.148  18.098  0.00  0.00    +0.000 A 
ATOM      9  C   UNL     1      -5.117  11.627  17.012  0.00  0.00    +0.000 A 
ATOM     10  C   UNL     1      -3.718  11.401  17.051  0.00  0.00    +0.000 A 
ATOM     11  C   UNL     1      -3.124  10.893  15.768  0.00  0.00    +0.000 C 
ATOM     12  C   UNL     1      -3.006  11.673  18.233  0.00  0.00    +0.000 A 
ATOM     13  C   UNL     1      -3.743  12.216  19.325  0.00  0.00    +0.000 A 
ATOM     14 CL   UNL     1      -2.957  12.619  20.822  0.00  0.00    +0.000 Cl
ATOM     15  C   UNL     1      -5.124  12.447  19.259  0.00  0.00    +0.000 A 
ENDBRANCH   3  12
ENDBRANCH   2   4
ENDBRANCH   1   2
BRANCH   1  16
ATOM     16  C   UNL     1       2.172   9.388  18.072  0.00  0.00    +0.000 C 
BRANCH  16  17
ATOM     17  C   UNL     1       2.584   7.953  18.317  0.00  0.00    +0.000 A 
ATOM     18  N   UNL     1       3.456   7.414  17.441  0.00  0.00    +0.000 NA
ATOM     19  C   UNL     1       3.836   6.149  17.641  0.00  0.00    +0.000 A 
ATOM     20  C   UNL     1       3.371   5.389  18.711  0.00  0.00    +0.000 A 
ATOM     21  C   UNL     1       3.598   4.033  19.169  0.00  0.00    +0.000 A 
ATOM     22  C   UNL     1       4.491   3.035  18.500  0.00  0.00    +0.000 C 
ATOM     23  C   UNL     1       2.865   3.762  20.318  0.00  0.00    +0.000 A 
ATOM     24  C   UNL     1       2.791   2.493  21.107  0.00  0.00    +0.000 C 
ATOM     25  S   UNL     1       1.943   5.111  20.831  0.00  0.00    +0.000 S 
ATOM     26  C   UNL     1       2.484   6.064  19.533  0.00  0.00    +0.000 A 
ATOM     27  N   UNL     1       2.053   7.332  19.384  0.00  0.00    +0.000 NA
BRANCH  19  28
ATOM     28  O   UNL     1       4.717   5.685  16.710  0.00  0.00    +0.000 OA
ATOM     29  H   UNL     1       5.115   4.942  17.198  0.00  0.00    +0.000 HD
ENDBRANCH  19  28
ENDBRANCH  16  17
ENDBRANCH   1  16
TORSDOF 6
ENDMDL
MODEL 8
REMARK VINA RESULT:      -6.6      3.529      5.581
REMARK  Name = 
REMARK  10 active torsions:
REMARK  status: ('A' for Active; 'I' for Inactive)
REMARK    1  A    between atoms: C_1  and  C_2
REMARK    2  A    between atoms: C_4  and  C_5
REMARK    3  A    between atoms: C_6  and  N_7
REMARK    4  A    between atoms: C_8  and  C_10
REMARK    5  A    between atoms: C_10  and  S_11
REMARK    6  A    between atoms: S_11  and  C_12
REMARK    7  A    between atoms: C_12  and  C_13
REMARK    8  A    between atoms: C_15  and  O_16
REMARK    9  A    between atoms: C_18  and  C_19
REMARK   10  A    between atoms: C_20  and  C_21
REMARK                            x       y       z     vdW  Elec       q    Type
REMARK                         _______ _______ _______ _____ _____    ______ ____
ROOT
ATOM      1  S   UNL     1       1.350   9.435  17.935  0.00  0.00    +0.000 S 
ENDROOT
BRANCH   1   2
ATOM      2  C   UNL     1       2.014  11.093  18.316  0.00  0.00    +0.000 C 
BRANCH   2   4
ATOM      3  N   UNL     1       0.198  11.082  19.964  0.00  0.00    +0.000 N 
ATOM      4  C   UNL     1       1.316  11.752  19.511  0.00  0.00    +0.000 C 
ATOM      5  O   UNL     1       1.805  12.773  19.983  0.00  0.00    +0.000 OA
ATOM      6  H   UNL     1      -0.145  10.379  19.308  0.00  0.00    +0.000 HD
BRANCH   3  12
ATOM      7  C   UNL     1      -3.653  12.477  24.044  0.00  0.00    +0.000 C 
ATOM      8  C   UNL     1      -2.646  12.093  22.999  0.00  0.00    +0.000 A 
ATOM      9  C   UNL     1      -1.646  11.161  23.283  0.00  0.00    +0.000 A 
ATOM     10  C   UNL     1      -0.682  10.759  22.323  0.00  0.00    +0.000 A 
ATOM     11  C   UNL     1       0.278   9.703  22.795  0.00  0.00    +0.000 C 
ATOM     12  C   UNL     1      -0.699  11.339  21.042  0.00  0.00    +0.000 A 
ATOM     13  C   UNL     1      -1.734  12.277  20.767  0.00  0.00    +0.000 A 
ATOM     14 CL   UNL     1      -1.868  13.029  19.205  0.00  0.00    +0.000 Cl
ATOM     15  C   UNL     1      -2.688  12.647  21.725  0.00  0.00    +0.000 A 
ENDBRANCH   3  12
ENDBRANCH   2   4
ENDBRANCH   1   2
BRANCH   1  16
ATOM     16  C   UNL     1       2.918   8.528  17.681  0.00  0.00    +0.000 C 
BRANCH  16  17
ATOM     17  C   UNL     1       2.933   7.139  18.282  0.00  0.00    +0.000 A 
ATOM     18  N   UNL     1       2.459   7.016  19.538  0.00  0.00    +0.000 NA
ATOM     19  C   UNL     1       2.459   5.799  20.087  0.00  0.00    +0.000 A 
ATOM     20  C   UNL     1       2.922   4.674  19.409  0.00  0.00    +0.000 A 
ATOM     21  C   UNL     1       3.045   3.268  19.737  0.00  0.00    +0.000 A 
ATOM     22  C   UNL     1       2.653   2.651  21.044  0.00  0.00    +0.000 C 
ATOM     23  C   UNL     1       3.589   2.551  18.680  0.00  0.00    +0.000 A 
ATOM     24  C   UNL     1       3.900   1.090  18.597  0.00  0.00    +0.000 C 
ATOM     25  S   UNL     1       3.929   3.547  17.329  0.00  0.00    +0.000 S 
ATOM     26  C   UNL     1       3.379   4.941  18.129  0.00  0.00    +0.000 A 
ATOM     27  N   UNL     1       3.415   6.142  17.521  0.00  0.00    +0.000 NA
BRANCH  19  28
ATOM     28  O   UNL     1       1.963   5.765  21.357  0.00  0.00    +0.000 OA
ATOM     29  H   UNL     1       2.438   6.519  21.751  0.00  0.00    +0.000 HD
ENDBRANCH  19  28
ENDBRANCH  16  17
ENDBRANCH   1  16
TORSDOF 6
ENDMDL
MODEL 9
REMARK VINA RESULT:      -6.6      3.296      7.534
REMARK  Name = 
REMARK  10 active torsions:
REMARK  status: ('A' for Active; 'I' for Inactive)
REMARK    1  A    between atoms: C_1  and  C_2
REMARK    2  A    between atoms: C_4  and  C_5
REMARK    3  A    between atoms: C_6  and  N_7
REMARK    4  A    between atoms: C_8  and  C_10
REMARK    5  A    between atoms: C_10  and  S_11
REMARK    6  A    between atoms: S_11  and  C_12
REMARK    7  A    between atoms: C_12  and  C_13
REMARK    8  A    between atoms: C_15  and  O_16
REMARK    9  A    between atoms: C_18  and  C_19
REMARK   10  A    between atoms: C_20  and  C_21
REMARK                            x       y       z     vdW  Elec       q    Type
REMARK                         _______ _______ _______ _____ _____    ______ ____
ROOT
ATOM      1  S   UNL     1       1.884   5.617  21.018  0.00  0.00    +0.000 S 
ENDROOT
BRANCH   1   2
ATOM      2  C   UNL     1       1.237   4.367  19.856  0.00  0.00    +0.000 C 
BRANCH   2   4
ATOM      3  N   UNL     1       3.208   4.714  18.438  0.00  0.00    +0.000 N 
ATOM      4  C   UNL     1       1.848   4.486  18.455  0.00  0.00    +0.000 C 
ATOM      5  O   UNL     1       1.112   4.342  17.484  0.00  0.00    +0.000 OA
ATOM      6  H   UNL     1       3.580   5.002  19.344  0.00  0.00    +0.000 HD
BRANCH   3  12
ATOM      7  C   UNL     1       7.039   4.787  14.110  0.00  0.00    +0.000 C 
ATOM      8  C   UNL     1       6.039   4.794  15.228  0.00  0.00    +0.000 A 
ATOM      9  C   UNL     1       5.569   5.999  15.756  0.00  0.00    +0.000 A 
ATOM     10  C   UNL     1       4.615   6.054  16.804  0.00  0.00    +0.000 A 
ATOM     11  C   UNL     1       4.187   7.439  17.198  0.00  0.00    +0.000 C 
ATOM     12  C   UNL     1       4.140   4.856  17.369  0.00  0.00    +0.000 A 
ATOM     13  C   UNL     1       4.620   3.638  16.809  0.00  0.00    +0.000 A 
ATOM     14 CL   UNL     1       4.074   2.100  17.410  0.00  0.00    +0.000 Cl
ATOM     15  C   UNL     1       5.551   3.607  15.761  0.00  0.00    +0.000 A 
ENDBRANCH   3  12
ENDBRANCH   2   4
ENDBRANCH   1   2
BRANCH   1  16
ATOM     16  C   UNL     1       1.979   7.058  19.896  0.00  0.00    +0.000 C 
BRANCH  16  17
ATOM     17  C   UNL     1       1.278   8.295  20.415  0.00  0.00    +0.000 A 
ATOM     18  N   UNL     1       0.840   8.254  21.689  0.00  0.00    +0.000 NA
ATOM     19  C   UNL     1       0.222   9.336  22.170  0.00  0.00    +0.000 A 
ATOM     20  C   UNL     1       0.027  10.485  21.408  0.00  0.00    +0.000 A 
ATOM     21  C   UNL     1      -0.591  11.773  21.650  0.00  0.00    +0.000 A 
ATOM     22  C   UNL     1      -1.238  12.190  22.935  0.00  0.00    +0.000 C 
ATOM     23  C   UNL     1      -0.521  12.583  20.524  0.00  0.00    +0.000 A 
ATOM     24  C   UNL     1      -1.044  13.972  20.333  0.00  0.00    +0.000 C 
ATOM     25  S   UNL     1       0.279  11.813  19.221  0.00  0.00    +0.000 S 
ATOM     26  C   UNL     1       0.527  10.393  20.119  0.00  0.00    +0.000 A 
ATOM     27  N   UNL     1       1.150   9.332  19.571  0.00  0.00    +0.000 NA
BRANCH  19  28
ATOM     28  O   UNL     1      -0.188   9.209  23.464  0.00  0.00    +0.000 OA
ATOM     29  H   UNL     1       0.142   8.315  23.667  0.00  0.00    +0.000 HD
ENDBRANCH  19  28
ENDBRANCH  16  17
ENDBRANCH   1  16
TORSDOF 6
ENDMDL
