MODEL 1
REMARK VINA RESULT:      -7.2      0.000      0.000
REMARK  Name = 
REMARK  9 active torsions:
REMARK  status: ('A' for Active; 'I' for Inactive)
REMARK    1  A    between atoms: C_1  and  C_2
REMARK    2  A    between atoms: C_2  and  O_3
REMARK    3  A    between atoms: O_3  and  C_4
REMARK    4  A    between atoms: C_4  and  C_6
REMARK    5  A    between atoms: C_11  and  N_12
REMARK    6  A    between atoms: C_13  and  C_15
REMARK    7  A    between atoms: C_15  and  S_16
REMARK    8  A    between atoms: S_16  and  C_17
REMARK    9  A    between atoms: C_20  and  C_21
REMARK                            x       y       z     vdW  Elec       q    Type
REMARK                         _______ _______ _______ _____ _____    ______ ____
ROOT
ATOM      1  N   UNL     1       4.512   4.382  18.448  0.00  0.00    +0.000 N 
ATOM      2  C   UNL     1       4.194   4.248  17.098  0.00  0.00    +0.000 C 
ATOM      3  O   UNL     1       3.131   3.824  16.648  0.00  0.00    +0.000 OA
ATOM      4  H   UNL     1       5.332   4.946  18.666  0.00  0.00    +0.000 HD
ENDROOT
BRANCH   1  10
ATOM      5  C   UNL     1       2.770   4.934  20.136  0.00  0.00    +0.000 A 
ATOM      6  C   UNL     1       1.958   4.515  21.211  0.00  0.00    +0.000 A 
ATOM      7  C   UNL     1       2.048   3.223  21.724  0.00  0.00    +0.000 A 
ATOM      8  C   UNL     1       2.969   2.341  21.183  0.00  0.00    +0.000 A 
ATOM      9  C   UNL     1       3.790   2.745  20.126  0.00  0.00    +0.000 A 
ATOM     10  C   UNL     1       3.696   4.027  19.562  0.00  0.00    +0.000 A 
BRANCH   5  11
ATOM     11  C   UNL     1       2.463   6.315  19.647  0.00  0.00    +0.000 C 
ATOM     12  O   UNL     1       3.077   6.860  18.748  0.00  0.00    +0.000 OA
BRANCH  11  13
ATOM     13  O   UNL     1       1.511   6.905  20.410  0.00  0.00    +0.000 OA
BRANCH  13  15
ATOM     14  C   UNL     1       0.694   9.135  20.185  0.00  0.00    +0.000 C 
ATOM     15  C   UNL     1       1.799   8.268  20.765  0.00  0.00    +0.000 C 
ENDBRANCH  13  15
ENDBRANCH  11  13
ENDBRANCH   5  11
ENDBRANCH   1  10
BRANCH   2  16
ATOM     16  C   UNL     1       5.305   4.672  16.144  0.00  0.00    +0.000 C 
BRANCH  16  17
ATOM     17  S   UNL     1       6.917   4.438  16.952  0.00  0.00    +0.000 S 
BRANCH  17  18
ATOM     18  C   UNL     1       7.292   6.093  17.484  0.00  0.00    +0.000 A 
ATOM     19  C   UNL     1       8.021   6.256  18.647  0.00  0.00    +0.000 A 
ATOM     20  C   UNL     1       8.440   7.533  19.015  0.00  0.00    +0.000 A 
ATOM     21  C   UNL     1       8.124   8.621  18.209  0.00  0.00    +0.000 A 
ATOM     22  N   UNL     1       7.356   8.431  17.107  0.00  0.00    +0.000 NA
ATOM     23  N   UNL     1       6.941   7.158  16.739  0.00  0.00    +0.000 NA
BRANCH  21  24
ATOM     24  C   UNL     1       8.680   9.970  18.447  0.00  0.00    +0.000 A 
ATOM     25  C   UNL     1       8.458  11.043  17.584  0.00  0.00    +0.000 A 
ATOM     26  C   UNL     1       9.103  12.259  17.820  0.00  0.00    +0.000 A 
ATOM     27  C   UNL     1       9.953  12.380  18.911  0.00  0.00    +0.000 A 
ATOM     28  C   UNL     1      10.112  11.282  19.735  0.00  0.00    +0.000 A 
ATOM     29  N   UNL     1       9.498  10.096  19.532  0.00  0.00    +0.000 NA
ENDBRANCH  21  24
ENDBRANCH  17  18
ENDBRANCH  16  17
ENDBRANCH   2  16
TORSDOF 8
ENDMDL
MODEL 2
REMARK VINA RESULT:      -7.2      3.950      5.895
REMARK  Name = 
REMARK  9 active torsions:
REMARK  status: ('A' for Active; 'I' for Inactive)
REMARK    1  A    between atoms: C_1  and  C_2
REMARK    2  A    between atoms: C_2  and  O_3
REMARK    3  A    between atoms: O_3  and  C_4
REMARK    4  A    between atoms: C_4  and  C_6
REMARK    5  A    between atoms: C_11  and  N_12
REMARK    6  A    between atoms: C_13  and  C_15
REMARK    7  A    between atoms: C_15  and  S_16
REMARK    8  A    between atoms: S_16  and  C_17
REMARK    9  A    between atoms: C_20  and  C_21
REMARK                            x       y       z     vdW  Elec       q    Type
REMARK                         _______ _______ _______ _____ _____    ______ ____
ROOT
ATOM      1  N   UNL     1       2.523   6.047  20.600  0.00  0.00    +0.000 N 
ATOM      2  C   UNL     1       1.738   4.916  20.808  0.00  0.00    +0.000 C 
ATOM      3  O   UNL     1       0.725   4.617  20.177  0.00  0.00    +0.000 OA
ATOM      4  H   UNL     1       3.440   6.049  21.043  0.00  0.00    +0.000 HD
ENDROOT
BRANCH   1  10
ATOM      5  C   UNL     1       1.632   8.292  20.003  0.00  0.00    +0.000 A 
ATOM      6  C   UNL     1       1.472   9.307  19.035  0.00  0.00    +0.000 A 
ATOM      7  C   UNL     1       1.956   9.151  17.738  0.00  0.00    +0.000 A 
ATOM      8  C   UNL     1       2.584   7.968  17.386  0.00  0.00    +0.000 A 
ATOM      9  C   UNL     1       2.738   6.947  18.329  0.00  0.00    +0.000 A 
ATOM     10  C   UNL     1       2.296   7.089  19.653  0.00  0.00    +0.000 A 
BRANCH   5  11
ATOM     11  C   UNL     1       1.148   8.674  21.366  0.00  0.00    +0.000 C 
ATOM     12  O   UNL     1       1.849   8.637  22.361  0.00  0.00    +0.000 OA
BRANCH  11  13
ATOM     13  O   UNL     1      -0.181   8.939  21.359  0.00  0.00    +0.000 OA
BRANCH  13  15
ATOM     14  C   UNL     1      -0.938  10.299  23.166  0.00  0.00    +0.000 C 
ATOM     15  C   UNL     1      -0.516  10.292  21.707  0.00  0.00    +0.000 C 
ENDBRANCH  13  15
ENDBRANCH  11  13
ENDBRANCH   5  11
ENDBRANCH   1  10
BRANCH   2  16
ATOM     16  C   UNL     1       2.221   4.012  21.937  0.00  0.00    +0.000 C 
BRANCH  16  17
ATOM     17  S   UNL     1       2.529   2.343  21.284  0.00  0.00    +0.000 S 
BRANCH  17  18
ATOM     18  C   UNL     1       3.518   2.699  19.849  0.00  0.00    +0.000 A 
ATOM     19  C   UNL     1       3.012   2.361  18.607  0.00  0.00    +0.000 A 
ATOM     20  C   UNL     1       3.705   2.747  17.463  0.00  0.00    +0.000 A 
ATOM     21  C   UNL     1       4.888   3.467  17.582  0.00  0.00    +0.000 A 
ATOM     22  N   UNL     1       5.385   3.729  18.817  0.00  0.00    +0.000 NA
ATOM     23  N   UNL     1       4.693   3.347  19.958  0.00  0.00    +0.000 NA
BRANCH  21  24
ATOM     24  C   UNL     1       5.579   4.054  16.414  0.00  0.00    +0.000 A 
ATOM     25  C   UNL     1       5.479   3.520  15.129  0.00  0.00    +0.000 A 
ATOM     26  C   UNL     1       6.245   4.067  14.097  0.00  0.00    +0.000 A 
ATOM     27  C   UNL     1       7.090   5.136  14.367  0.00  0.00    +0.000 A 
ATOM     28  C   UNL     1       7.125   5.626  15.658  0.00  0.00    +0.000 A 
ATOM     29  N   UNL     1       6.393   5.118  16.674  0.00  0.00    +0.000 NA
ENDBRANCH  21  24
ENDBRANCH  17  18
ENDBRANCH  16  17
ENDBRANCH   2  16
TORSDOF 8
ENDMDL
MODEL 3
REMARK VINA RESULT:      -7.2      5.406      9.452
REMARK  Name = 
REMARK  9 active torsions:
REMARK  status: ('A' for Active; 'I' for Inactive)
REMARK    1  A    between atoms: C_1  and  C_2
REMARK    2  A    between atoms: C_2  and  O_3
REMARK    3  A    between atoms: O_3  and  C_4
REMARK    4  A    between atoms: C_4  and  C_6
REMARK    5  A    between atoms: C_11  and  N_12
REMARK    6  A    between atoms: C_13  and  C_15
REMARK    7  A    between atoms: C_15  and  S_16
REMARK    8  A    between atoms: S_16  and  C_17
REMARK    9  A    between atoms: C_20  and  C_21
REMARK                            x       y       z     vdW  Elec       q    Type
REMARK                         _______ _______ _______ _____ _____    ______ ____
ROOT
ATOM      1  N   UNL     1       2.564   6.915  18.457  0.00  0.00    +0.000 N 
ATOM      2  C   UNL     1       2.254   8.226  18.106  0.00  0.00    +0.000 C 
ATOM      3  O   UNL     1       2.728   8.849  17.158  0.00  0.00    +0.000 OA
ATOM      4  H   UNL     1       1.938   6.464  19.122  0.00  0.00    +0.000 HD
ENDROOT
BRANCH   1  10
ATOM      5  C   UNL     1       3.208   4.698  17.529  0.00  0.00    +0.000 A 
ATOM      6  C   UNL     1       4.163   3.904  16.858  0.00  0.00    +0.000 A 
ATOM      7  C   UNL     1       5.396   4.426  16.474  0.00  0.00    +0.000 A 
ATOM      8  C   UNL     1       5.699   5.742  16.778  0.00  0.00    +0.000 A 
ATOM      9  C   UNL     1       4.771   6.539  17.454  0.00  0.00    +0.000 A 
ATOM     10  C   UNL     1       3.505   6.054  17.820  0.00  0.00    +0.000 A 
BRANCH   5  11
ATOM     11  C   UNL     1       1.903   4.006  17.767  0.00  0.00    +0.000 C 
ATOM     12  O   UNL     1       0.854   4.360  17.261  0.00  0.00    +0.000 OA
BRANCH  11  13
ATOM     13  O   UNL     1       2.029   3.031  18.700  0.00  0.00    +0.000 OA
BRANCH  13  15
ATOM     14  C   UNL     1       1.268   4.092  20.696  0.00  0.00    +0.000 C 
ATOM     15  C   UNL     1       0.974   3.006  19.675  0.00  0.00    +0.000 C 
ENDBRANCH  13  15
ENDBRANCH  11  13
ENDBRANCH   5  11
ENDBRANCH   1  10
BRANCH   2  16
ATOM     16  C   UNL     1       1.237   8.900  19.022  0.00  0.00    +0.000 C 
BRANCH  16  17
ATOM     17  S   UNL     1       1.309  10.701  18.783  0.00  0.00    +0.000 S 
BRANCH  17  18
ATOM     18  C   UNL     1      -0.416  11.111  18.649  0.00  0.00    +0.000 A 
ATOM     19  C   UNL     1      -1.244  10.239  17.966  0.00  0.00    +0.000 A 
ATOM     20  C   UNL     1      -2.617  10.470  17.959  0.00  0.00    +0.000 A 
ATOM     21  C   UNL     1      -3.137  11.565  18.639  0.00  0.00    +0.000 A 
ATOM     22  N   UNL     1      -2.289  12.432  19.248  0.00  0.00    +0.000 NA
ATOM     23  N   UNL     1      -0.920  12.201  19.257  0.00  0.00    +0.000 NA
BRANCH  21  24
ATOM     24  C   UNL     1      -4.590  11.771  18.817  0.00  0.00    +0.000 A 
ATOM     25  C   UNL     1      -5.120  12.661  19.751  0.00  0.00    +0.000 A 
ATOM     26  C   UNL     1      -6.503  12.722  19.933  0.00  0.00    +0.000 A 
ATOM     27  C   UNL     1      -7.328  11.899  19.179  0.00  0.00    +0.000 A 
ATOM     28  C   UNL     1      -6.737  11.055  18.258  0.00  0.00    +0.000 A 
ATOM     29  N   UNL     1      -5.403  10.978  18.059  0.00  0.00    +0.000 NA
ENDBRANCH  21  24
ENDBRANCH  17  18
ENDBRANCH  16  17
ENDBRANCH   2  16
TORSDOF 8
ENDMDL
MODEL 4
REMARK VINA RESULT:      -7.2      3.275      7.177
REMARK  Name = 
REMARK  9 active torsions:
REMARK  status: ('A' for Active; 'I' for Inactive)
REMARK    1  A    between atoms: C_1  and  C_2
REMARK    2  A    between atoms: C_2  and  O_3
REMARK    3  A    between atoms: O_3  and  C_4
REMARK    4  A    between atoms: C_4  and  C_6
REMARK    5  A    between atoms: C_11  and  N_12
REMARK    6  A    between atoms: C_13  and  C_15
REMARK    7  A    between atoms: C_15  and  S_16
REMARK    8  A    between atoms: S_16  and  C_17
REMARK    9  A    between atoms: C_20  and  C_21
REMARK                            x       y       z     vdW  Elec       q    Type
REMARK                         _______ _______ _______ _____ _____    ______ ____
ROOT
ATOM      1  N   UNL     1       4.176   4.818  17.297  0.00  0.00    +0.000 N 
ATOM      2  C   UNL     1       2.984   4.121  17.480  0.00  0.00    +0.000 C 
ATOM      3  O   UNL     1       2.549   3.236  16.745  0.00  0.00    +0.000 OA
ATOM      4  H   UNL     1       4.511   5.358  18.094  0.00  0.00    +0.000 HD
ENDROOT
BRANCH   1  10
ATOM      5  C   UNL     1       6.492   4.878  16.392  0.00  0.00    +0.000 A 
ATOM      6  C   UNL     1       7.366   4.680  15.301  0.00  0.00    +0.000 A 
ATOM      7  C   UNL     1       6.886   4.289  14.053  0.00  0.00    +0.000 A 
ATOM      8  C   UNL     1       5.524   4.114  13.875  0.00  0.00    +0.000 A 
ATOM      9  C   UNL     1       4.643   4.318  14.942  0.00  0.00    +0.000 A 
ATOM     10  C   UNL     1       5.100   4.675  16.221  0.00  0.00    +0.000 A 
BRANCH   5  11
ATOM     11  C   UNL     1       7.191   5.190  17.679  0.00  0.00    +0.000 C 
ATOM     12  O   UNL     1       7.952   4.418  18.233  0.00  0.00    +0.000 OA
BRANCH  11  13
ATOM     13  O   UNL     1       6.771   6.372  18.190  0.00  0.00    +0.000 OA
BRANCH  13  15
ATOM     14  C   UNL     1       8.134   8.323  18.032  0.00  0.00    +0.000 C 
ATOM     15  C   UNL     1       7.045   7.509  17.355  0.00  0.00    +0.000 C 
ENDBRANCH  13  15
ENDBRANCH  11  13
ENDBRANCH   5  11
ENDBRANCH   1  10
BRANCH   2  16
ATOM     16  C   UNL     1       2.189   4.543  18.711  0.00  0.00    +0.000 C 
BRANCH  16  17
ATOM     17  S   UNL     1       3.235   5.576  19.780  0.00  0.00    +0.000 S 
BRANCH  17  18
ATOM     18  C   UNL     1       2.354   7.121  19.753  0.00  0.00    +0.000 A 
ATOM     19  C   UNL     1       2.324   7.835  18.569  0.00  0.00    +0.000 A 
ATOM     20  C   UNL     1       1.534   8.979  18.485  0.00  0.00    +0.000 A 
ATOM     21  C   UNL     1       0.786   9.384  19.584  0.00  0.00    +0.000 A 
ATOM     22  N   UNL     1       0.887   8.693  20.747  0.00  0.00    +0.000 NA
ATOM     23  N   UNL     1       1.673   7.551  20.831  0.00  0.00    +0.000 NA
BRANCH  21  24
ATOM     24  C   UNL     1      -0.200  10.483  19.510  0.00  0.00    +0.000 A 
ATOM     25  C   UNL     1      -0.849  10.838  18.326  0.00  0.00    +0.000 A 
ATOM     26  C   UNL     1      -1.689  11.953  18.313  0.00  0.00    +0.000 A 
ATOM     27  C   UNL     1      -1.867  12.689  19.477  0.00  0.00    +0.000 A 
ATOM     28  C   UNL     1      -1.208  12.269  20.617  0.00  0.00    +0.000 A 
ATOM     29  N   UNL     1      -0.393  11.192  20.659  0.00  0.00    +0.000 NA
ENDBRANCH  21  24
ENDBRANCH  17  18
ENDBRANCH  16  17
ENDBRANCH   2  16
TORSDOF 8
ENDMDL
MODEL 5
REMARK VINA RESULT:      -7.1      4.381      8.088
REMARK  Name = 
REMARK  9 active torsions:
REMARK  status: ('A' for Active; 'I' for Inactive)
REMARK    1  A    between atoms: C_1  and  C_2
REMARK    2  A    between atoms: C_2  and  O_3
REMARK    3  A    between atoms: O_3  and  C_4
REMARK    4  A    between atoms: C_4  and  C_6
REMARK    5  A    between atoms: C_11  and  N_12
REMARK    6  A    between atoms: C_13  and  C_15
REMARK    7  A    between atoms: C_15  and  S_16
REMARK    8  A    between atoms: S_16  and  C_17
REMARK    9  A    between atoms: C_20  and  C_21
REMARK                            x       y       z     vdW  Elec       q    Type
REMARK                         _______ _______ _______ _____ _____    ______ ____
ROOT
ATOM      1  N   UNL     1       4.071   6.857  17.672  0.00  0.00    +0.000 N 
ATOM      2  C   UNL     1       2.762   6.673  18.111  0.00  0.00    +0.000 C 
ATOM      3  O   UNL     1       2.069   5.677  17.911  0.00  0.00    +0.000 OA
ATOM      4  H   UNL     1       4.586   7.626  18.096  0.00  0.00    +0.000 HD
ENDROOT
BRANCH   1  10
ATOM      5  C   UNL     1       5.442   4.795  17.435  0.00  0.00    +0.000 A 
ATOM      6  C   UNL     1       6.165   3.917  16.599  0.00  0.00    +0.000 A 
ATOM      7  C   UNL     1       6.307   4.171  15.236  0.00  0.00    +0.000 A 
ATOM      8  C   UNL     1       5.749   5.318  14.698  0.00  0.00    +0.000 A 
ATOM      9  C   UNL     1       5.041   6.205  15.515  0.00  0.00    +0.000 A 
ATOM     10  C   UNL     1       4.847   5.957  16.883  0.00  0.00    +0.000 A 
BRANCH   5  11
ATOM     11  C   UNL     1       5.302   4.310  18.844  0.00  0.00    +0.000 C 
ATOM     12  O   UNL     1       5.861   4.832  19.792  0.00  0.00    +0.000 OA
BRANCH  11  13
ATOM     13  O   UNL     1       4.582   3.163  18.899  0.00  0.00    +0.000 OA
BRANCH  13  15
ATOM     14  C   UNL     1       2.495   2.140  19.433  0.00  0.00    +0.000 C 
ATOM     15  C   UNL     1       3.517   3.179  19.863  0.00  0.00    +0.000 C 
ENDBRANCH  13  15
ENDBRANCH  11  13
ENDBRANCH   5  11
ENDBRANCH   1  10
BRANCH   2  16
ATOM     16  C   UNL     1       2.189   7.848  18.896  0.00  0.00    +0.000 C 
BRANCH  16  17
ATOM     17  S   UNL     1       1.734   7.294  20.566  0.00  0.00    +0.000 S 
BRANCH  17  18
ATOM     18  C   UNL     1       1.059   8.785  21.264  0.00  0.00    +0.000 A 
ATOM     19  C   UNL     1       0.688   9.800  20.401  0.00  0.00    +0.000 A 
ATOM     20  C   UNL     1       0.038  10.921  20.910  0.00  0.00    +0.000 A 
ATOM     21  C   UNL     1      -0.233  11.004  22.271  0.00  0.00    +0.000 A 
ATOM     22  N   UNL     1       0.198  10.016  23.096  0.00  0.00    +0.000 NA
ATOM     23  N   UNL     1       0.845   8.897  22.588  0.00  0.00    +0.000 NA
BRANCH  21  24
ATOM     24  C   UNL     1      -1.068  12.078  22.848  0.00  0.00    +0.000 A 
ATOM     25  C   UNL     1      -2.431  11.923  23.104  0.00  0.00    +0.000 A 
ATOM     26  C   UNL     1      -3.174  13.017  23.552  0.00  0.00    +0.000 A 
ATOM     27  C   UNL     1      -2.544  14.240  23.738  0.00  0.00    +0.000 A 
ATOM     28  C   UNL     1      -1.189  14.318  23.483  0.00  0.00    +0.000 A 
ATOM     29  N   UNL     1      -0.445  13.275  23.053  0.00  0.00    +0.000 NA
ENDBRANCH  21  24
ENDBRANCH  17  18
ENDBRANCH  16  17
ENDBRANCH   2  16
TORSDOF 8
ENDMDL
MODEL 6
REMARK VINA RESULT:      -7.1      4.099      5.849
REMARK  Name = 
REMARK  9 active torsions:
REMARK  status: ('A' for Active; 'I' for Inactive)
REMARK    1  A    between atoms: C_1  and  C_2
REMARK    2  A    between atoms: C_2  and  O_3
REMARK    3  A    between atoms: O_3  and  C_4
REMARK    4  A    between atoms: C_4  and  C_6
REMARK    5  A    between atoms: C_11  and  N_12
REMARK    6  A    between atoms: C_13  and  C_15
REMARK    7  A    between atoms: C_15  and  S_16
REMARK    8  A    between atoms: S_16  and  C_17
REMARK    9  A    between atoms: C_20  and  C_21
REMARK                            x       y       z     vdW  Elec       q    Type
REMARK                         _______ _______ _______ _____ _____    ______ ____
ROOT
ATOM      1  N   UNL     1       2.519   5.824  20.587  0.00  0.00    +0.000 N 
ATOM      2  C   UNL     1       1.656   4.745  20.763  0.00  0.00    +0.000 C 
ATOM      3  O   UNL     1       0.657   4.506  20.087  0.00  0.00    +0.000 OA
ATOM      4  H   UNL     1       3.413   5.772  21.071  0.00  0.00    +0.000 HD
ENDROOT
BRANCH   1  10
ATOM      5  C   UNL     1       1.635   8.038  19.875  0.00  0.00    +0.000 A 
ATOM      6  C   UNL     1       1.588   9.062  18.904  0.00  0.00    +0.000 A 
ATOM      7  C   UNL     1       2.282   8.950  17.702  0.00  0.00    +0.000 A 
ATOM      8  C   UNL     1       3.011   7.801  17.444  0.00  0.00    +0.000 A 
ATOM      9  C   UNL     1       3.057   6.772  18.389  0.00  0.00    +0.000 A 
ATOM     10  C   UNL     1       2.401   6.871  19.626  0.00  0.00    +0.000 A 
BRANCH   5  11
ATOM     11  C   UNL     1       0.920   8.375  21.146  0.00  0.00    +0.000 C 
ATOM     12  O   UNL     1       0.120   7.631  21.683  0.00  0.00    +0.000 OA
BRANCH  11  13
ATOM     13  O   UNL     1       1.189   9.644  21.538  0.00  0.00    +0.000 OA
BRANCH  13  15
ATOM     14  C   UNL     1      -0.550  11.228  21.141  0.00  0.00    +0.000 C 
ATOM     15  C   UNL     1       0.086  10.313  22.173  0.00  0.00    +0.000 C 
ENDBRANCH  13  15
ENDBRANCH  11  13
ENDBRANCH   5  11
ENDBRANCH   1  10
BRANCH   2  16
ATOM     16  C   UNL     1       2.030   3.821  21.916  0.00  0.00    +0.000 C 
BRANCH  16  17
ATOM     17  S   UNL     1       2.438   2.174  21.262  0.00  0.00    +0.000 S 
BRANCH  17  18
ATOM     18  C   UNL     1       3.493   2.588  19.891  0.00  0.00    +0.000 A 
ATOM     19  C   UNL     1       3.062   2.268  18.616  0.00  0.00    +0.000 A 
ATOM     20  C   UNL     1       3.806   2.697  17.520  0.00  0.00    +0.000 A 
ATOM     21  C   UNL     1       4.964   3.441  17.719  0.00  0.00    +0.000 A 
ATOM     22  N   UNL     1       5.388   3.684  18.985  0.00  0.00    +0.000 NA
ATOM     23  N   UNL     1       4.645   3.258  20.078  0.00  0.00    +0.000 NA
BRANCH  21  24
ATOM     24  C   UNL     1       5.702   4.072  16.604  0.00  0.00    +0.000 A 
ATOM     25  C   UNL     1       6.260   5.348  16.692  0.00  0.00    +0.000 A 
ATOM     26  C   UNL     1       6.851   5.917  15.562  0.00  0.00    +0.000 A 
ATOM     27  C   UNL     1       6.876   5.203  14.371  0.00  0.00    +0.000 A 
ATOM     28  C   UNL     1       6.321   3.938  14.361  0.00  0.00    +0.000 A 
ATOM     29  N   UNL     1       5.746   3.361  15.440  0.00  0.00    +0.000 NA
ENDBRANCH  21  24
ENDBRANCH  17  18
ENDBRANCH  16  17
ENDBRANCH   2  16
TORSDOF 8
ENDMDL
MODEL 7
REMARK VINA RESULT:      -7.1      5.259      8.582
REMARK  Name = 
REMARK  9 active torsions:
REMARK  status: ('A' for Active; 'I' for Inactive)
REMARK    1  A    between atoms: C_1  and  C_2
REMARK    2  A    between atoms: C_2  and  O_3
REMARK    3  A    between atoms: O_3  and  C_4
REMARK    4  A    between atoms: C_4  and  C_6
REMARK    5  A    between atoms: C_11  and  N_12
REMARK    6  A    between atoms: C_13  and  C_15
REMARK    7  A    between atoms: C_15  and  S_16
REMARK    8  A    between atoms: S_16  and  C_17
REMARK    9  A    between atoms: C_20  and  C_21
REMARK                            x       y       z     vdW  Elec       q    Type
REMARK                         _______ _______ _______ _____ _____    ______ ____
ROOT
ATOM      1  N   UNL     1       2.309   7.120  18.564  0.00  0.00    +0.000 N 
ATOM      2  C   UNL     1       2.075   8.398  18.063  0.00  0.00    +0.000 C 
ATOM      3  O   UNL     1       2.608   8.889  17.069  0.00  0.00    +0.000 OA
ATOM      4  H   UNL     1       1.642   6.775  19.252  0.00  0.00    +0.000 HD
ENDROOT
BRANCH   1  10
ATOM      5  C   UNL     1       2.946   4.761  18.095  0.00  0.00    +0.000 A 
ATOM      6  C   UNL     1       3.869   3.850  17.539  0.00  0.00    +0.000 A 
ATOM      7  C   UNL     1       5.053   4.289  16.950  0.00  0.00    +0.000 A 
ATOM      8  C   UNL     1       5.340   5.644  16.933  0.00  0.00    +0.000 A 
ATOM      9  C   UNL     1       4.442   6.559  17.491  0.00  0.00    +0.000 A 
ATOM     10  C   UNL     1       3.224   6.151  18.056  0.00  0.00    +0.000 A 
BRANCH   5  11
ATOM     11  C   UNL     1       1.684   4.122  18.585  0.00  0.00    +0.000 C 
ATOM     12  O   UNL     1       1.001   3.379  17.904  0.00  0.00    +0.000 OA
BRANCH  11  13
ATOM     13  O   UNL     1       1.353   4.575  19.819  0.00  0.00    +0.000 OA
BRANCH  13  15
ATOM     14  C   UNL     1       1.380   2.780  21.390  0.00  0.00    +0.000 C 
ATOM     15  C   UNL     1       2.128   4.003  20.886  0.00  0.00    +0.000 C 
ENDBRANCH  13  15
ENDBRANCH  11  13
ENDBRANCH   5  11
ENDBRANCH   1  10
BRANCH   2  16
ATOM     16  C   UNL     1       1.068   9.215  18.864  0.00  0.00    +0.000 C 
BRANCH  16  17
ATOM     17  S   UNL     1       1.287   8.874  20.636  0.00  0.00    +0.000 S 
BRANCH  17  18
ATOM     18  C   UNL     1       0.219  10.094  21.368  0.00  0.00    +0.000 A 
ATOM     19  C   UNL     1      -0.461   9.757  22.524  0.00  0.00    +0.000 A 
ATOM     20  C   UNL     1      -1.199  10.734  23.187  0.00  0.00    +0.000 A 
ATOM     21  C   UNL     1      -1.238  12.030  22.685  0.00  0.00    +0.000 A 
ATOM     22  N   UNL     1      -0.607  12.309  21.517  0.00  0.00    +0.000 NA
ATOM     23  N   UNL     1       0.131  11.335  20.857  0.00  0.00    +0.000 NA
BRANCH  21  24
ATOM     24  C   UNL     1      -1.856  13.149  23.428  0.00  0.00    +0.000 A 
ATOM     25  C   UNL     1      -1.160  14.312  23.761  0.00  0.00    +0.000 A 
ATOM     26  C   UNL     1      -1.780  15.278  24.555  0.00  0.00    +0.000 A 
ATOM     27  C   UNL     1      -3.079  15.068  24.998  0.00  0.00    +0.000 A 
ATOM     28  C   UNL     1      -3.715  13.903  24.615  0.00  0.00    +0.000 A 
ATOM     29  N   UNL     1      -3.140  12.952  23.845  0.00  0.00    +0.000 NA
ENDBRANCH  21  24
ENDBRANCH  17  18
ENDBRANCH  16  17
ENDBRANCH   2  16
TORSDOF 8
ENDMDL
MODEL 8
REMARK VINA RESULT:      -7.0      4.985      8.570
REMARK  Name = 
REMARK  9 active torsions:
REMARK  status: ('A' for Active; 'I' for Inactive)
REMARK    1  A    between atoms: C_1  and  C_2
REMARK    2  A    between atoms: C_2  and  O_3
REMARK    3  A    between atoms: O_3  and  C_4
REMARK    4  A    between atoms: C_4  and  C_6
REMARK    5  A    between atoms: C_11  and  N_12
REMARK    6  A    between atoms: C_13  and  C_15
REMARK    7  A    between atoms: C_15  and  S_16
REMARK    8  A    between atoms: S_16  and  C_17
REMARK    9  A    between atoms: C_20  and  C_21
REMARK                            x       y       z     vdW  Elec       q    Type
REMARK                         _______ _______ _______ _____ _____    ______ ____
ROOT
ATOM      1  N   UNL     1       2.324   6.118  19.348  0.00  0.00    +0.000 N 
ATOM      2  C   UNL     1       2.127   7.313  18.659  0.00  0.00    +0.000 C 
ATOM      3  O   UNL     1       2.116   7.445  17.436  0.00  0.00    +0.000 OA
ATOM      4  H   UNL     1       2.090   6.123  20.339  0.00  0.00    +0.000 HD
ENDROOT
BRANCH   1  10
ATOM      5  C   UNL     1       3.862   4.472  18.292  0.00  0.00    +0.000 A 
ATOM      6  C   UNL     1       4.071   3.171  17.784  0.00  0.00    +0.000 A 
ATOM      7  C   UNL     1       3.043   2.232  17.756  0.00  0.00    +0.000 A 
ATOM      8  C   UNL     1       1.785   2.590  18.212  0.00  0.00    +0.000 A 
ATOM      9  C   UNL     1       1.557   3.878  18.706  0.00  0.00    +0.000 A 
ATOM     10  C   UNL     1       2.582   4.834  18.784  0.00  0.00    +0.000 A 
BRANCH   5  11
ATOM     11  C   UNL     1       5.102   5.308  18.345  0.00  0.00    +0.000 C 
ATOM     12  O   UNL     1       5.164   6.443  17.908  0.00  0.00    +0.000 OA
BRANCH  11  13
ATOM     13  O   UNL     1       6.152   4.598  18.823  0.00  0.00    +0.000 OA
BRANCH  13  15
ATOM     14  C   UNL     1       7.466   4.488  16.836  0.00  0.00    +0.000 C 
ATOM     15  C   UNL     1       7.424   4.980  18.272  0.00  0.00    +0.000 C 
ENDBRANCH  13  15
ENDBRANCH  11  13
ENDBRANCH   5  11
ENDBRANCH   1  10
BRANCH   2  16
ATOM     16  C   UNL     1       1.924   8.530  19.555  0.00  0.00    +0.000 C 
BRANCH  16  17
ATOM     17  S   UNL     1       1.373   7.984  21.199  0.00  0.00    +0.000 S 
BRANCH  17  18
ATOM     18  C   UNL     1       0.488   9.417  21.772  0.00  0.00    +0.000 A 
ATOM     19  C   UNL     1      -0.122  10.227  20.831  0.00  0.00    +0.000 A 
ATOM     20  C   UNL     1      -0.928  11.278  21.260  0.00  0.00    +0.000 A 
ATOM     21  C   UNL     1      -1.113  11.497  22.620  0.00  0.00    +0.000 A 
ATOM     22  N   UNL     1      -0.451  10.719  23.514  0.00  0.00    +0.000 NA
ATOM     23  N   UNL     1       0.352   9.669  23.087  0.00  0.00    +0.000 NA
BRANCH  21  24
ATOM     24  C   UNL     1      -2.087  12.480  23.140  0.00  0.00    +0.000 A 
ATOM     25  C   UNL     1      -1.817  13.847  23.212  0.00  0.00    +0.000 A 
ATOM     26  C   UNL     1      -2.747  14.699  23.812  0.00  0.00    +0.000 A 
ATOM     27  C   UNL     1      -3.925  14.172  24.323  0.00  0.00    +0.000 A 
ATOM     28  C   UNL     1      -4.136  12.812  24.200  0.00  0.00    +0.000 A 
ATOM     29  N   UNL     1      -3.255  11.966  23.622  0.00  0.00    +0.000 NA
ENDBRANCH  21  24
ENDBRANCH  17  18
ENDBRANCH  16  17
ENDBRANCH   2  16
TORSDOF 8
ENDMDL
MODEL 9
REMARK VINA RESULT:      -7.0      3.544      6.558
REMARK  Name = 
REMARK  9 active torsions:
REMARK  status: ('A' for Active; 'I' for Inactive)
REMARK    1  A    between atoms: C_1  and  C_2
REMARK    2  A    between atoms: C_2  and  O_3
REMARK    3  A    between atoms: O_3  and  C_4
REMARK    4  A    between atoms: C_4  and  C_6
REMARK    5  A    between atoms: C_11  and  N_12
REMARK    6  A    between atoms: C_13  and  C_15
REMARK    7  A    between atoms: C_15  and  S_16
REMARK    8  A    between atoms: S_16  and  C_17
REMARK    9  A    between atoms: C_20  and  C_21
REMARK                            x       y       z     vdW  Elec       q    Type
REMARK                         _______ _______ _______ _____ _____    ______ ____
ROOT
ATOM      1  N   UNL     1       4.960   3.760  17.983  0.00  0.00    +0.000 N 
ATOM      2  C   UNL     1       4.633   2.803  18.940  0.00  0.00    +0.000 C 
ATOM      3  O   UNL     1       5.150   2.690  20.050  0.00  0.00    +0.000 OA
ATOM      4  H   UNL     1       4.305   3.870  17.210  0.00  0.00    +0.000 HD
ENDROOT
BRANCH   1  10
ATOM      5  C   UNL     1       6.346   5.560  16.970  0.00  0.00    +0.000 A 
ATOM      6  C   UNL     1       7.321   6.568  17.134  0.00  0.00    +0.000 A 
ATOM      7  C   UNL     1       7.922   6.797  18.370  0.00  0.00    +0.000 A 
ATOM      8  C   UNL     1       7.574   6.005  19.450  0.00  0.00    +0.000 A 
ATOM      9  C   UNL     1       6.620   4.993  19.302  0.00  0.00    +0.000 A 
ATOM     10  C   UNL     1       5.968   4.763  18.080  0.00  0.00    +0.000 A 
BRANCH   5  11
ATOM     11  C   UNL     1       5.732   5.528  15.605  0.00  0.00    +0.000 C 
ATOM     12  O   UNL     1       5.240   6.504  15.068  0.00  0.00    +0.000 OA
BRANCH  11  13
ATOM     13  O   UNL     1       5.690   4.265  15.116  0.00  0.00    +0.000 OA
BRANCH  13  15
ATOM     14  C   UNL     1       5.398   3.670  12.825  0.00  0.00    +0.000 C 
ATOM     15  C   UNL     1       6.406   4.085  13.883  0.00  0.00    +0.000 C 
ENDBRANCH  13  15
ENDBRANCH  11  13
ENDBRANCH   5  11
ENDBRANCH   1  10
BRANCH   2  16
ATOM     16  C   UNL     1       3.536   1.833  18.512  0.00  0.00    +0.000 C 
BRANCH  16  17
ATOM     17  S   UNL     1       2.087   2.048  19.588  0.00  0.00    +0.000 S 
BRANCH  17  18
ATOM     18  C   UNL     1       1.801   3.799  19.455  0.00  0.00    +0.000 A 
ATOM     19  C   UNL     1       1.668   4.529  20.622  0.00  0.00    +0.000 A 
ATOM     20  C   UNL     1       1.576   5.916  20.548  0.00  0.00    +0.000 A 
ATOM     21  C   UNL     1       1.622   6.547  19.310  0.00  0.00    +0.000 A 
ATOM     22  N   UNL     1       1.693   5.794  18.183  0.00  0.00    +0.000 NA
ATOM     23  N   UNL     1       1.788   4.411  18.257  0.00  0.00    +0.000 NA
BRANCH  21  24
ATOM     24  C   UNL     1       1.703   8.017  19.172  0.00  0.00    +0.000 A 
ATOM     25  C   UNL     1       1.254   8.895  20.159  0.00  0.00    +0.000 A 
ATOM     26  C   UNL     1       1.267  10.269  19.911  0.00  0.00    +0.000 A 
ATOM     27  C   UNL     1       1.730  10.739  18.689  0.00  0.00    +0.000 A 
ATOM     28  C   UNL     1       2.177   9.814  17.766  0.00  0.00    +0.000 A 
ATOM     29  N   UNL     1       2.179   8.480  17.980  0.00  0.00    +0.000 NA
ENDBRANCH  21  24
ENDBRANCH  17  18
ENDBRANCH  16  17
ENDBRANCH   2  16
TORSDOF 8
ENDMDL
