MODEL 1
REMARK VINA RESULT:      -7.8      0.000      0.000
REMARK  Name = 
REMARK  5 active torsions:
REMARK  status: ('A' for Active; 'I' for Inactive)
REMARK    1  A    between atoms: C_1  and  C_2
REMARK    2  A    between atoms: C_7  and  C_8
REMARK    3  A    between atoms: C_15  and  S_16
REMARK    4  A    between atoms: S_16  and  C_17
REMARK    5  A    between atoms: N_21  and  C_22
REMARK                            x       y       z     vdW  Elec       q    Type
REMARK                         _______ _______ _______ _____ _____    ______ ____
ROOT
ATOM      1  C   UNL     1       2.102   5.605  19.924  0.00  0.00    +0.000 A 
ATOM      2  C   UNL     1       0.958   4.973  20.380  0.00  0.00    +0.000 A 
ATOM      3  S   UNL     1       1.202   3.367  20.867  0.00  0.00    +0.000 S 
ATOM      4  C   UNL     1       2.809   3.403  20.326  0.00  0.00    +0.000 A 
ATOM      5  N   UNL     1       3.508   2.255  20.359  0.00  0.00    +0.000 NA
ATOM      6  C   UNL     1       4.739   2.385  19.882  0.00  0.00    +0.000 A 
ATOM      7  N   UNL     1       5.309   3.509  19.445  0.00  0.00    +0.000 NA
ATOM      8  C   UNL     1       4.591   4.659  19.479  0.00  0.00    +0.000 A 
ATOM      9  C   UNL     1       3.238   4.653  19.877  0.00  0.00    +0.000 A 
ENDROOT
BRANCH   1  16
ATOM     10  C   UNL     1       1.063   7.999  21.635  0.00  0.00    +0.000 C 
ATOM     11  C   UNL     1       1.531   8.096  20.204  0.00  0.00    +0.000 A 
ATOM     12  C   UNL     1       1.455   9.377  19.614  0.00  0.00    +0.000 A 
ATOM     13  C   UNL     1       1.876   9.602  18.306  0.00  0.00    +0.000 A 
ATOM     14  C   UNL     1       2.318   8.535  17.543  0.00  0.00    +0.000 A 
ATOM     15  C   UNL     1       2.323   7.248  18.086  0.00  0.00    +0.000 A 
ATOM     16  C   UNL     1       1.999   7.001  19.433  0.00  0.00    +0.000 A 
ENDBRANCH   1  16
BRANCH   8  17
ATOM     17  S   UNL     1       5.459   6.076  18.878  0.00  0.00    +0.000 S 
BRANCH  17  18
ATOM     18  C   UNL     1       6.544   5.319  17.781  0.00  0.00    +0.000 A 
ATOM     19  N   UNL     1       7.653   4.670  18.050  0.00  0.00    +0.000 NA
ATOM     20  N   UNL     1       8.130   4.227  16.835  0.00  0.00    +0.000 NA
ATOM     21  N   UNL     1       7.338   4.608  15.845  0.00  0.00    +0.000 NA
ATOM     22  N   UNL     1       6.339   5.286  16.432  0.00  0.00    +0.000 N 
ATOM     23  C   UNL     1       5.291   5.871  15.641  0.00  0.00    +0.000 C 
ENDBRANCH  17  18
ENDBRANCH   8  17
TORSDOF 3
ENDMDL
MODEL 2
REMARK VINA RESULT:      -7.4      1.245      1.686
REMARK  Name = 
REMARK  5 active torsions:
REMARK  status: ('A' for Active; 'I' for Inactive)
REMARK    1  A    between atoms: C_1  and  C_2
REMARK    2  A    between atoms: C_7  and  C_8
REMARK    3  A    between atoms: C_15  and  S_16
REMARK    4  A    between atoms: S_16  and  C_17
REMARK    5  A    between atoms: N_21  and  C_22
REMARK                            x       y       z     vdW  Elec       q    Type
REMARK                         _______ _______ _______ _____ _____    ______ ____
ROOT
ATOM      1  C   UNL     1       2.176   6.384  19.902  0.00  0.00    +0.000 A 
ATOM      2  C   UNL     1       1.454   5.746  20.897  0.00  0.00    +0.000 A 
ATOM      3  S   UNL     1       1.941   4.148  21.189  0.00  0.00    +0.000 S 
ATOM      4  C   UNL     1       3.020   4.194  19.880  0.00  0.00    +0.000 A 
ATOM      5  N   UNL     1       3.647   3.054  19.545  0.00  0.00    +0.000 NA
ATOM      6  C   UNL     1       4.439   3.190  18.488  0.00  0.00    +0.000 A 
ATOM      7  N   UNL     1       4.676   4.315  17.811  0.00  0.00    +0.000 NA
ATOM      8  C   UNL     1       4.067   5.457  18.214  0.00  0.00    +0.000 A 
ATOM      9  C   UNL     1       3.129   5.443  19.267  0.00  0.00    +0.000 A 
ENDROOT
BRANCH   1  16
ATOM     10  C   UNL     1       1.192   8.541  21.932  0.00  0.00    +0.000 C 
ATOM     11  C   UNL     1       1.364   8.761  20.450  0.00  0.00    +0.000 A 
ATOM     12  C   UNL     1       1.018  10.045  19.970  0.00  0.00    +0.000 A 
ATOM     13  C   UNL     1       1.151  10.380  18.626  0.00  0.00    +0.000 A 
ATOM     14  C   UNL     1       1.568   9.416  17.724  0.00  0.00    +0.000 A 
ATOM     15  C   UNL     1       1.837   8.119  18.170  0.00  0.00    +0.000 A 
ATOM     16  C   UNL     1       1.808   7.773  19.533  0.00  0.00    +0.000 A 
ENDBRANCH   1  16
BRANCH   8  17
ATOM     17  S   UNL     1       4.467   6.876  17.239  0.00  0.00    +0.000 S 
BRANCH  17  18
ATOM     18  C   UNL     1       5.656   6.199  16.199  0.00  0.00    +0.000 A 
ATOM     19  N   UNL     1       5.509   5.762  14.970  0.00  0.00    +0.000 NA
ATOM     20  N   UNL     1       6.763   5.356  14.567  0.00  0.00    +0.000 NA
ATOM     21  N   UNL     1       7.653   5.529  15.531  0.00  0.00    +0.000 NA
ATOM     22  N   UNL     1       6.967   6.065  16.554  0.00  0.00    +0.000 N 
ATOM     23  C   UNL     1       7.626   6.369  17.794  0.00  0.00    +0.000 C 
ENDBRANCH  17  18
ENDBRANCH   8  17
TORSDOF 3
ENDMDL
MODEL 3
REMARK VINA RESULT:      -7.4      3.181      5.354
REMARK  Name = 
REMARK  5 active torsions:
REMARK  status: ('A' for Active; 'I' for Inactive)
REMARK    1  A    between atoms: C_1  and  C_2
REMARK    2  A    between atoms: C_7  and  C_8
REMARK    3  A    between atoms: C_15  and  S_16
REMARK    4  A    between atoms: S_16  and  C_17
REMARK    5  A    between atoms: N_21  and  C_22
REMARK                            x       y       z     vdW  Elec       q    Type
REMARK                         _______ _______ _______ _____ _____    ______ ____
ROOT
ATOM      1  C   UNL     1       4.243   4.299  18.007  0.00  0.00    +0.000 A 
ATOM      2  C   UNL     1       4.314   3.142  17.251  0.00  0.00    +0.000 A 
ATOM      3  S   UNL     1       2.904   2.200  17.292  0.00  0.00    +0.000 S 
ATOM      4  C   UNL     1       2.209   3.218  18.459  0.00  0.00    +0.000 A 
ATOM      5  N   UNL     1       1.032   2.848  18.992  0.00  0.00    +0.000 NA
ATOM      6  C   UNL     1       0.596   3.694  19.918  0.00  0.00    +0.000 A 
ATOM      7  N   UNL     1       1.180   4.832  20.297  0.00  0.00    +0.000 NA
ATOM      8  C   UNL     1       2.339   5.199  19.695  0.00  0.00    +0.000 A 
ATOM      9  C   UNL     1       2.966   4.352  18.758  0.00  0.00    +0.000 A 
ENDROOT
BRANCH   1  16
ATOM     10  C   UNL     1       5.002   6.410  15.837  0.00  0.00    +0.000 C 
ATOM     11  C   UNL     1       5.786   6.144  17.098  0.00  0.00    +0.000 A 
ATOM     12  C   UNL     1       6.964   6.906  17.267  0.00  0.00    +0.000 A 
ATOM     13  C   UNL     1       7.763   6.769  18.398  0.00  0.00    +0.000 A 
ATOM     14  C   UNL     1       7.436   5.819  19.349  0.00  0.00    +0.000 A 
ATOM     15  C   UNL     1       6.319   5.002  19.158  0.00  0.00    +0.000 A 
ATOM     16  C   UNL     1       5.435   5.179  18.078  0.00  0.00    +0.000 A 
ENDBRANCH   1  16
BRANCH   8  17
ATOM     17  S   UNL     1       3.008   6.726  20.282  0.00  0.00    +0.000 S 
BRANCH  17  18
ATOM     18  C   UNL     1       2.314   7.813  19.147  0.00  0.00    +0.000 A 
ATOM     19  N   UNL     1       2.514   7.876  17.851  0.00  0.00    +0.000 NA
ATOM     20  N   UNL     1       1.699   8.889  17.396  0.00  0.00    +0.000 NA
ATOM     21  N   UNL     1       1.025   9.442  18.392  0.00  0.00    +0.000 NA
ATOM     22  N   UNL     1       1.401   8.767  19.491  0.00  0.00    +0.000 N 
ATOM     23  C   UNL     1       0.873   9.121  20.780  0.00  0.00    +0.000 C 
ENDBRANCH  17  18
ENDBRANCH   8  17
TORSDOF 3
ENDMDL
MODEL 4
REMARK VINA RESULT:      -7.3      0.659      1.276
REMARK  Name = 
REMARK  5 active torsions:
REMARK  status: ('A' for Active; 'I' for Inactive)
REMARK    1  A    between atoms: C_1  and  C_2
REMARK    2  A    between atoms: C_7  and  C_8
REMARK    3  A    between atoms: C_15  and  S_16
REMARK    4  A    between atoms: S_16  and  C_17
REMARK    5  A    between atoms: N_21  and  C_22
REMARK                            x       y       z     vdW  Elec       q    Type
REMARK                         _______ _______ _______ _____ _____    ______ ____
ROOT
ATOM      1  C   UNL     1       2.103   5.567  19.949  0.00  0.00    +0.000 A 
ATOM      2  C   UNL     1       0.963   4.962  20.450  0.00  0.00    +0.000 A 
ATOM      3  S   UNL     1       1.200   3.369  20.980  0.00  0.00    +0.000 S 
ATOM      4  C   UNL     1       2.795   3.370  20.401  0.00  0.00    +0.000 A 
ATOM      5  N   UNL     1       3.481   2.216  20.453  0.00  0.00    +0.000 NA
ATOM      6  C   UNL     1       4.703   2.317  19.943  0.00  0.00    +0.000 A 
ATOM      7  N   UNL     1       5.275   3.420  19.459  0.00  0.00    +0.000 NA
ATOM      8  C   UNL     1       4.569   4.578  19.475  0.00  0.00    +0.000 A 
ATOM      9  C   UNL     1       3.226   4.601  19.904  0.00  0.00    +0.000 A 
ENDROOT
BRANCH   1  16
ATOM     10  C   UNL     1       1.108   8.020  21.602  0.00  0.00    +0.000 C 
ATOM     11  C   UNL     1       1.556   8.069  20.162  0.00  0.00    +0.000 A 
ATOM     12  C   UNL     1       1.481   9.333  19.534  0.00  0.00    +0.000 A 
ATOM     13  C   UNL     1       1.884   9.515  18.215  0.00  0.00    +0.000 A 
ATOM     14  C   UNL     1       2.306   8.423  17.477  0.00  0.00    +0.000 A 
ATOM     15  C   UNL     1       2.310   7.152  18.059  0.00  0.00    +0.000 A 
ATOM     16  C   UNL     1       2.003   6.948  19.417  0.00  0.00    +0.000 A 
ENDBRANCH   1  16
BRANCH   8  17
ATOM     17  S   UNL     1       5.439   5.966  18.810  0.00  0.00    +0.000 S 
BRANCH  17  18
ATOM     18  C   UNL     1       5.692   5.419  17.201  0.00  0.00    +0.000 A 
ATOM     19  N   UNL     1       4.891   5.529  16.168  0.00  0.00    +0.000 NA
ATOM     20  N   UNL     1       5.569   4.967  15.108  0.00  0.00    +0.000 NA
ATOM     21  N   UNL     1       6.753   4.512  15.487  0.00  0.00    +0.000 NA
ATOM     22  N   UNL     1       6.839   4.799  16.797  0.00  0.00    +0.000 N 
ATOM     23  C   UNL     1       8.003   4.422  17.551  0.00  0.00    +0.000 C 
ENDBRANCH  17  18
ENDBRANCH   8  17
TORSDOF 3
ENDMDL
MODEL 5
REMARK VINA RESULT:      -7.2      1.171      1.251
REMARK  Name = 
REMARK  5 active torsions:
REMARK  status: ('A' for Active; 'I' for Inactive)
REMARK    1  A    between atoms: C_1  and  C_2
REMARK    2  A    between atoms: C_7  and  C_8
REMARK    3  A    between atoms: C_15  and  S_16
REMARK    4  A    between atoms: S_16  and  C_17
REMARK    5  A    between atoms: N_21  and  C_22
REMARK                            x       y       z     vdW  Elec       q    Type
REMARK                         _______ _______ _______ _____ _____    ______ ____
ROOT
ATOM      1  C   UNL     1       1.992   5.345  19.621  0.00  0.00    +0.000 A 
ATOM      2  C   UNL     1       1.092   4.910  20.578  0.00  0.00    +0.000 A 
ATOM      3  S   UNL     1       1.146   3.240  20.871  0.00  0.00    +0.000 S 
ATOM      4  C   UNL     1       2.255   3.012  19.607  0.00  0.00    +0.000 A 
ATOM      5  N   UNL     1       2.587   1.751  19.285  0.00  0.00    +0.000 NA
ATOM      6  C   UNL     1       3.431   1.683  18.263  0.00  0.00    +0.000 A 
ATOM      7  N   UNL     1       3.973   2.712  17.609  0.00  0.00    +0.000 NA
ATOM      8  C   UNL     1       3.657   3.971  18.000  0.00  0.00    +0.000 A 
ATOM      9  C   UNL     1       2.702   4.194  19.013  0.00  0.00    +0.000 A 
ENDROOT
BRANCH   1  16
ATOM     10  C   UNL     1       1.150   7.658  21.539  0.00  0.00    +0.000 C 
ATOM     11  C   UNL     1       1.626   7.840  20.119  0.00  0.00    +0.000 A 
ATOM     12  C   UNL     1       1.655   9.170  19.643  0.00  0.00    +0.000 A 
ATOM     13  C   UNL     1       2.095   9.472  18.357  0.00  0.00    +0.000 A 
ATOM     14  C   UNL     1       2.449   8.444  17.501  0.00  0.00    +0.000 A 
ATOM     15  C   UNL     1       2.349   7.119  17.931  0.00  0.00    +0.000 A 
ATOM     16  C   UNL     1       2.004   6.782  19.253  0.00  0.00    +0.000 A 
ENDBRANCH   1  16
BRANCH   8  17
ATOM     17  S   UNL     1       4.443   5.243  17.058  0.00  0.00    +0.000 S 
BRANCH  17  18
ATOM     18  C   UNL     1       6.091   4.881  17.382  0.00  0.00    +0.000 A 
ATOM     19  N   UNL     1       6.702   4.838  18.543  0.00  0.00    +0.000 NA
ATOM     20  N   UNL     1       8.000   4.467  18.268  0.00  0.00    +0.000 NA
ATOM     21  N   UNL     1       8.183   4.301  16.968  0.00  0.00    +0.000 NA
ATOM     22  N   UNL     1       6.988   4.552  16.407  0.00  0.00    +0.000 N 
ATOM     23  C   UNL     1       6.822   4.485  14.982  0.00  0.00    +0.000 C 
ENDBRANCH  17  18
ENDBRANCH   8  17
TORSDOF 3
ENDMDL
MODEL 6
REMARK VINA RESULT:      -7.0      1.481      1.643
REMARK  Name = 
REMARK  5 active torsions:
REMARK  status: ('A' for Active; 'I' for Inactive)
REMARK    1  A    between atoms: C_1  and  C_2
REMARK    2  A    between atoms: C_7  and  C_8
REMARK    3  A    between atoms: C_15  and  S_16
REMARK    4  A    between atoms: S_16  and  C_17
REMARK    5  A    between atoms: N_21  and  C_22
REMARK                            x       y       z     vdW  Elec       q    Type
REMARK                         _______ _______ _______ _____ _____    ______ ____
ROOT
ATOM      1  C   UNL     1       2.030   5.348  19.592  0.00  0.00    +0.000 A 
ATOM      2  C   UNL     1       1.028   4.860  20.414  0.00  0.00    +0.000 A 
ATOM      3  S   UNL     1       1.111   3.188  20.689  0.00  0.00    +0.000 S 
ATOM      4  C   UNL     1       2.387   3.028  19.581  0.00  0.00    +0.000 A 
ATOM      5  N   UNL     1       2.810   1.786  19.289  0.00  0.00    +0.000 NA
ATOM      6  C   UNL     1       3.785   1.771  18.388  0.00  0.00    +0.000 A 
ATOM      7  N   UNL     1       4.366   2.832  17.826  0.00  0.00    +0.000 NA
ATOM      8  C   UNL     1       3.950   4.070  18.189  0.00  0.00    +0.000 A 
ATOM      9  C   UNL     1       2.860   4.237  19.069  0.00  0.00    +0.000 A 
ENDROOT
BRANCH   1  16
ATOM     10  C   UNL     1       1.131   7.618  21.536  0.00  0.00    +0.000 C 
ATOM     11  C   UNL     1       1.628   7.830  20.127  0.00  0.00    +0.000 A 
ATOM     12  C   UNL     1       1.651   9.168  19.673  0.00  0.00    +0.000 A 
ATOM     13  C   UNL     1       2.108   9.497  18.401  0.00  0.00    +0.000 A 
ATOM     14  C   UNL     1       2.486   8.488  17.533  0.00  0.00    +0.000 A 
ATOM     15  C   UNL     1       2.394   7.154  17.938  0.00  0.00    +0.000 A 
ATOM     16  C   UNL     1       2.031   6.791  19.248  0.00  0.00    +0.000 A 
ENDBRANCH   1  16
BRANCH   8  17
ATOM     17  S   UNL     1       4.801   5.389  17.378  0.00  0.00    +0.000 S 
BRANCH  17  18
ATOM     18  C   UNL     1       6.144   5.573  18.434  0.00  0.00    +0.000 A 
ATOM     19  N   UNL     1       6.377   4.959  19.570  0.00  0.00    +0.000 NA
ATOM     20  N   UNL     1       7.597   5.428  20.005  0.00  0.00    +0.000 NA
ATOM     21  N   UNL     1       8.094   6.318  19.161  0.00  0.00    +0.000 NA
ATOM     22  N   UNL     1       7.192   6.408  18.170  0.00  0.00    +0.000 N 
ATOM     23  C   UNL     1       7.400   7.313  17.074  0.00  0.00    +0.000 C 
ENDBRANCH  17  18
ENDBRANCH   8  17
TORSDOF 3
ENDMDL
MODEL 7
REMARK VINA RESULT:      -7.0      3.370      5.513
REMARK  Name = 
REMARK  5 active torsions:
REMARK  status: ('A' for Active; 'I' for Inactive)
REMARK    1  A    between atoms: C_1  and  C_2
REMARK    2  A    between atoms: C_7  and  C_8
REMARK    3  A    between atoms: C_15  and  S_16
REMARK    4  A    between atoms: S_16  and  C_17
REMARK    5  A    between atoms: N_21  and  C_22
REMARK                            x       y       z     vdW  Elec       q    Type
REMARK                         _______ _______ _______ _____ _____    ______ ____
ROOT
ATOM      1  C   UNL     1       3.995   3.554  17.833  0.00  0.00    +0.000 A 
ATOM      2  C   UNL     1       4.073   2.172  17.871  0.00  0.00    +0.000 A 
ATOM      3  S   UNL     1       2.847   1.435  18.782  0.00  0.00    +0.000 S 
ATOM      4  C   UNL     1       2.268   2.943  19.301  0.00  0.00    +0.000 A 
ATOM      5  N   UNL     1       1.288   2.956  20.220  0.00  0.00    +0.000 NA
ATOM      6  C   UNL     1       0.934   4.183  20.581  0.00  0.00    +0.000 A 
ATOM      7  N   UNL     1       1.417   5.327  20.095  0.00  0.00    +0.000 NA
ATOM      8  C   UNL     1       2.366   5.273  19.128  0.00  0.00    +0.000 A 
ATOM      9  C   UNL     1       2.903   4.037  18.711  0.00  0.00    +0.000 A 
ENDROOT
BRANCH   1  16
ATOM     10  C   UNL     1       6.257   5.210  19.204  0.00  0.00    +0.000 C 
ATOM     11  C   UNL     1       6.075   5.060  17.714  0.00  0.00    +0.000 A 
ATOM     12  C   UNL     1       7.000   5.757  16.904  0.00  0.00    +0.000 A 
ATOM     13  C   UNL     1       6.952   5.683  15.516  0.00  0.00    +0.000 A 
ATOM     14  C   UNL     1       5.936   4.965  14.909  0.00  0.00    +0.000 A 
ATOM     15  C   UNL     1       4.967   4.336  15.694  0.00  0.00    +0.000 A 
ATOM     16  C   UNL     1       5.041   4.308  17.099  0.00  0.00    +0.000 A 
ENDBRANCH   1  16
BRANCH   8  17
ATOM     17  S   UNL     1       2.920   6.854  18.565  0.00  0.00    +0.000 S 
BRANCH  17  18
ATOM     18  C   UNL     1       2.010   7.877  19.604  0.00  0.00    +0.000 A 
ATOM     19  N   UNL     1       1.801   7.750  20.893  0.00  0.00    +0.000 NA
ATOM     20  N   UNL     1       1.044   8.843  21.258  0.00  0.00    +0.000 NA
ATOM     21  N   UNL     1       0.785   9.613  20.214  0.00  0.00    +0.000 NA
ATOM     22  N   UNL     1       1.393   9.017  19.175  0.00  0.00    +0.000 N 
ATOM     23  C   UNL     1       1.301   9.579  17.855  0.00  0.00    +0.000 C 
ENDBRANCH  17  18
ENDBRANCH   8  17
TORSDOF 3
ENDMDL
MODEL 8
REMARK VINA RESULT:      -7.0      0.538      1.502
REMARK  Name = 
REMARK  5 active torsions:
REMARK  status: ('A' for Active; 'I' for Inactive)
REMARK    1  A    between atoms: C_1  and  C_2
REMARK    2  A    between atoms: C_7  and  C_8
REMARK    3  A    between atoms: C_15  and  S_16
REMARK    4  A    between atoms: S_16  and  C_17
REMARK    5  A    between atoms: N_21  and  C_22
REMARK                            x       y       z     vdW  Elec       q    Type
REMARK                         _______ _______ _______ _____ _____    ______ ____
ROOT
ATOM      1  C   UNL     1       2.006   5.259  20.236  0.00  0.00    +0.000 A 
ATOM      2  C   UNL     1       0.905   4.559  20.697  0.00  0.00    +0.000 A 
ATOM      3  S   UNL     1       1.208   2.920  21.013  0.00  0.00    +0.000 S 
ATOM      4  C   UNL     1       2.777   3.046  20.381  0.00  0.00    +0.000 A 
ATOM      5  N   UNL     1       3.498   1.918  20.263  0.00  0.00    +0.000 NA
ATOM      6  C   UNL     1       4.695   2.123  19.727  0.00  0.00    +0.000 A 
ATOM      7  N   UNL     1       5.215   3.296  19.366  0.00  0.00    +0.000 NA
ATOM      8  C   UNL     1       4.479   4.419  19.553  0.00  0.00    +0.000 A 
ATOM      9  C   UNL     1       3.154   4.344  20.029  0.00  0.00    +0.000 A 
ENDROOT
BRANCH   1  16
ATOM     10  C   UNL     1       2.370   6.419  17.361  0.00  0.00    +0.000 C 
ATOM     11  C   UNL     1       2.006   7.227  18.582  0.00  0.00    +0.000 A 
ATOM     12  C   UNL     1       1.852   8.617  18.380  0.00  0.00    +0.000 A 
ATOM     13  C   UNL     1       1.497   9.468  19.422  0.00  0.00    +0.000 A 
ATOM     14  C   UNL     1       1.356   8.955  20.700  0.00  0.00    +0.000 A 
ATOM     15  C   UNL     1       1.583   7.597  20.931  0.00  0.00    +0.000 A 
ATOM     16  C   UNL     1       1.846   6.692  19.886  0.00  0.00    +0.000 A 
ENDBRANCH   1  16
BRANCH   8  17
ATOM     17  S   UNL     1       5.282   5.908  19.038  0.00  0.00    +0.000 S 
BRANCH  17  18
ATOM     18  C   UNL     1       6.508   5.253  18.028  0.00  0.00    +0.000 A 
ATOM     19  N   UNL     1       7.628   4.667  18.382  0.00  0.00    +0.000 NA
ATOM     20  N   UNL     1       8.240   4.290  17.206  0.00  0.00    +0.000 NA
ATOM     21  N   UNL     1       7.517   4.649  16.157  0.00  0.00    +0.000 NA
ATOM     22  N   UNL     1       6.427   5.246  16.666  0.00  0.00    +0.000 N 
ATOM     23  C   UNL     1       5.419   5.787  15.796  0.00  0.00    +0.000 C 
ENDBRANCH  17  18
ENDBRANCH   8  17
TORSDOF 3
ENDMDL
MODEL 9
REMARK VINA RESULT:      -6.9      3.319      5.587
REMARK  Name = 
REMARK  5 active torsions:
REMARK  status: ('A' for Active; 'I' for Inactive)
REMARK    1  A    between atoms: C_1  and  C_2
REMARK    2  A    between atoms: C_7  and  C_8
REMARK    3  A    between atoms: C_15  and  S_16
REMARK    4  A    between atoms: S_16  and  C_17
REMARK    5  A    between atoms: N_21  and  C_22
REMARK                            x       y       z     vdW  Elec       q    Type
REMARK                         _______ _______ _______ _____ _____    ______ ____
ROOT
ATOM      1  C   UNL     1       4.787   4.158  19.005  0.00  0.00    +0.000 A 
ATOM      2  C   UNL     1       5.207   2.893  19.376  0.00  0.00    +0.000 A 
ATOM      3  S   UNL     1       3.982   1.920  20.031  0.00  0.00    +0.000 S 
ATOM      4  C   UNL     1       2.883   3.212  20.001  0.00  0.00    +0.000 A 
ATOM      5  N   UNL     1       1.678   3.023  20.565  0.00  0.00    +0.000 NA
ATOM      6  C   UNL     1       0.910   4.105  20.519  0.00  0.00    +0.000 A 
ATOM      7  N   UNL     1       1.213   5.273  19.949  0.00  0.00    +0.000 NA
ATOM      8  C   UNL     1       2.417   5.407  19.341  0.00  0.00    +0.000 A 
ATOM      9  C   UNL     1       3.371   4.369  19.391  0.00  0.00    +0.000 A 
ENDROOT
BRANCH   1  16
ATOM     10  C   UNL     1       4.830   5.156  16.048  0.00  0.00    +0.000 C 
ATOM     11  C   UNL     1       5.809   5.573  17.118  0.00  0.00    +0.000 A 
ATOM     12  C   UNL     1       6.829   6.462  16.710  0.00  0.00    +0.000 A 
ATOM     13  C   UNL     1       7.781   6.937  17.607  0.00  0.00    +0.000 A 
ATOM     14  C   UNL     1       7.773   6.477  18.913  0.00  0.00    +0.000 A 
ATOM     15  C   UNL     1       6.821   5.536  19.311  0.00  0.00    +0.000 A 
ATOM     16  C   UNL     1       5.785   5.111  18.459  0.00  0.00    +0.000 A 
ENDBRANCH   1  16
BRANCH   8  17
ATOM     17  S   UNL     1       2.694   6.998  18.622  0.00  0.00    +0.000 S 
BRANCH  17  18
ATOM     18  C   UNL     1       1.862   7.987  19.754  0.00  0.00    +0.000 A 
ATOM     19  N   UNL     1       1.749   7.822  21.052  0.00  0.00    +0.000 NA
ATOM     20  N   UNL     1       1.021   8.901  21.503  0.00  0.00    +0.000 NA
ATOM     21  N   UNL     1       0.684   9.701  20.503  0.00  0.00    +0.000 NA
ATOM     22  N   UNL     1       1.215   9.137  19.405  0.00  0.00    +0.000 N 
ATOM     23  C   UNL     1       1.026   9.737  18.113  0.00  0.00    +0.000 C 
ENDBRANCH  17  18
ENDBRANCH   8  17
TORSDOF 3
ENDMDL
