MODEL 1
REMARK VINA RESULT:      -7.5      0.000      0.000
REMARK  Name = 
REMARK  11 active torsions:
REMARK  status: ('A' for Active; 'I' for Inactive)
REMARK    1  A    between atoms: C_1  and  O_2
REMARK    2  A    between atoms: O_2  and  C_3
REMARK    3  A    between atoms: C_5  and  C_6
REMARK    4  A    between atoms: N_11  and  C_12
REMARK    5  A    between atoms: C_12  and  C_13
REMARK    6  A    between atoms: C_13  and  C_14
REMARK    7  A    between atoms: N_16  and  C_17
REMARK    8  A    between atoms: C_25  and  O_26
REMARK    9  A    between atoms: O_26  and  C_27
REMARK   10  A    between atoms: C_28  and  O_29
REMARK   11  A    between atoms: O_29  and  C_30
REMARK                            x       y       z     vdW  Elec       q    Type
REMARK                         _______ _______ _______ _____ _____    ______ ____
ROOT
ATOM      1  C   UNL     1       2.309   8.201  18.201  0.00  0.00    +0.000 C 
ATOM      2  C   UNL     1       1.742   8.734  19.295  0.00  0.00    +0.000 C 
ATOM      3  S   UNL     1       1.386   7.958  20.778  0.00  0.00    +0.000 S 
ATOM      4  C   UNL     1       0.713   9.427  21.486  0.00  0.00    +0.000 C 
ATOM      5  S   UNL     1       0.120   9.450  23.046  0.00  0.00    +0.000 S 
ATOM      6  N   UNL     1       0.763  10.462  20.572  0.00  0.00    +0.000 N 
ATOM      7  C   UNL     1       1.338  10.161  19.348  0.00  0.00    +0.000 C 
ATOM      8  O   UNL     1       1.496  10.941  18.417  0.00  0.00    +0.000 OA
ENDROOT
BRANCH   1  11
ATOM      9  C   UNL     1       4.535   5.165  17.989  0.00  0.00    +0.000 A 
ATOM     10  C   UNL     1       4.101   6.503  17.959  0.00  0.00    +0.000 A 
ATOM     11  C   UNL     1       2.746   6.815  18.014  0.00  0.00    +0.000 A 
ATOM     12  C   UNL     1       1.818   5.779  17.996  0.00  0.00    +0.000 A 
ATOM     13  C   UNL     1       2.225   4.434  17.938  0.00  0.00    +0.000 A 
ATOM     14  C   UNL     1       3.600   4.107  17.932  0.00  0.00    +0.000 A 
BRANCH   9  16
ATOM     15  C   UNL     1       6.524   5.311  19.263  0.00  0.00    +0.000 C 
ATOM     16  O   UNL     1       5.880   4.891  18.058  0.00  0.00    +0.000 OA
ENDBRANCH   9  16
BRANCH  13  17
ATOM     17  O   UNL     1       1.141   3.589  17.923  0.00  0.00    +0.000 OA
ATOM     18  C   UNL     1       0.658   3.039  19.138  0.00  0.00    +0.000 C 
ENDBRANCH  13  17
BRANCH  14  19
ATOM     19  O   UNL     1       3.897   2.773  17.856  0.00  0.00    +0.000 OA
ATOM     20  C   UNL     1       4.064   1.991  19.025  0.00  0.00    +0.000 C 
ENDBRANCH  14  19
ENDBRANCH   1  11
BRANCH   6  21
ATOM     21  C   UNL     1       0.365  11.854  20.847  0.00  0.00    +0.000 C 
BRANCH  21  22
ATOM     22  C   UNL     1      -1.108  12.143  20.549  0.00  0.00    +0.000 C 
BRANCH  22  23
ATOM     23  C   UNL     1      -1.342  12.320  19.060  0.00  0.00    +0.000 C 
ATOM     24  O   UNL     1      -0.927  13.281  18.423  0.00  0.00    +0.000 OA
ATOM     25  N   UNL     1      -2.052  11.280  18.497  0.00  0.00    +0.000 N 
ATOM     26  H   UNL     1      -2.489  10.608  19.114  0.00  0.00    +0.000 HD
BRANCH  25  27
ATOM     27  C   UNL     1      -2.421  11.251  17.093  0.00  0.00    +0.000 C 
ATOM     28  C   UNL     1      -2.125   9.898  16.455  0.00  0.00    +0.000 C 
ATOM     29  C   UNL     1      -2.977   9.894  15.194  0.00  0.00    +0.000 C 
ATOM     30  C   UNL     1      -4.198  10.752  15.517  0.00  0.00    +0.000 C 
ATOM     31  C   UNL     1      -3.924  11.406  16.872  0.00  0.00    +0.000 C 
ENDBRANCH  25  27
ENDBRANCH  22  23
ENDBRANCH  21  22
ENDBRANCH   6  21
TORSDOF 8
ENDMDL
MODEL 2
REMARK VINA RESULT:      -7.3      2.075      3.318
REMARK  Name = 
REMARK  11 active torsions:
REMARK  status: ('A' for Active; 'I' for Inactive)
REMARK    1  A    between atoms: C_1  and  O_2
REMARK    2  A    between atoms: O_2  and  C_3
REMARK    3  A    between atoms: C_5  and  C_6
REMARK    4  A    between atoms: N_11  and  C_12
REMARK    5  A    between atoms: C_12  and  C_13
REMARK    6  A    between atoms: C_13  and  C_14
REMARK    7  A    between atoms: N_16  and  C_17
REMARK    8  A    between atoms: C_25  and  O_26
REMARK    9  A    between atoms: O_26  and  C_27
REMARK   10  A    between atoms: C_28  and  O_29
REMARK   11  A    between atoms: O_29  and  C_30
REMARK                            x       y       z     vdW  Elec       q    Type
REMARK                         _______ _______ _______ _____ _____    ______ ____
ROOT
ATOM      1  C   UNL     1       2.603   7.480  18.231  0.00  0.00    +0.000 C 
ATOM      2  C   UNL     1       1.955   8.232  19.136  0.00  0.00    +0.000 C 
ATOM      3  S   UNL     1       1.530   7.812  20.739  0.00  0.00    +0.000 S 
ATOM      4  C   UNL     1       0.776   9.378  21.042  0.00  0.00    +0.000 C 
ATOM      5  S   UNL     1       0.088   9.743  22.518  0.00  0.00    +0.000 S 
ATOM      6  N   UNL     1       0.854  10.170  19.913  0.00  0.00    +0.000 N 
ATOM      7  C   UNL     1       1.510   9.614  18.827  0.00  0.00    +0.000 C 
ATOM      8  O   UNL     1       1.705  10.159  17.748  0.00  0.00    +0.000 OA
ENDROOT
BRANCH   1  11
ATOM      9  C   UNL     1       4.942   4.561  18.707  0.00  0.00    +0.000 A 
ATOM     10  C   UNL     1       4.449   5.827  18.342  0.00  0.00    +0.000 A 
ATOM     11  C   UNL     1       3.087   6.108  18.401  0.00  0.00    +0.000 A 
ATOM     12  C   UNL     1       2.206   5.083  18.731  0.00  0.00    +0.000 A 
ATOM     13  C   UNL     1       2.666   3.786  19.016  0.00  0.00    +0.000 A 
ATOM     14  C   UNL     1       4.052   3.505  19.006  0.00  0.00    +0.000 A 
BRANCH   9  16
ATOM     15  C   UNL     1       7.071   5.471  19.196  0.00  0.00    +0.000 C 
ATOM     16  O   UNL     1       6.299   4.351  18.757  0.00  0.00    +0.000 OA
ENDBRANCH   9  16
BRANCH  13  17
ATOM     17  O   UNL     1       1.620   2.942  19.307  0.00  0.00    +0.000 OA
ATOM     18  C   UNL     1       1.050   2.948  20.606  0.00  0.00    +0.000 C 
ENDBRANCH  13  17
BRANCH  14  19
ATOM     19  O   UNL     1       4.401   2.210  19.278  0.00  0.00    +0.000 OA
ATOM     20  C   UNL     1       4.713   1.795  20.596  0.00  0.00    +0.000 C 
ENDBRANCH  14  19
ENDBRANCH   1  11
BRANCH   6  21
ATOM     21  C   UNL     1       0.403  11.570  19.829  0.00  0.00    +0.000 C 
BRANCH  21  22
ATOM     22  C   UNL     1      -1.059  11.721  19.398  0.00  0.00    +0.000 C 
BRANCH  22  23
ATOM     23  C   UNL     1      -1.796  12.699  20.294  0.00  0.00    +0.000 C 
ATOM     24  O   UNL     1      -1.777  13.912  20.126  0.00  0.00    +0.000 OA
ATOM     25  N   UNL     1      -2.502  12.079  21.305  0.00  0.00    +0.000 N 
ATOM     26  H   UNL     1      -2.341  11.093  21.468  0.00  0.00    +0.000 HD
BRANCH  25  27
ATOM     27  C   UNL     1      -3.256  12.817  22.301  0.00  0.00    +0.000 C 
ATOM     28  C   UNL     1      -4.755  12.784  22.021  0.00  0.00    +0.000 C 
ATOM     29  C   UNL     1      -5.385  13.164  23.352  0.00  0.00    +0.000 C 
ATOM     30  C   UNL     1      -4.421  12.662  24.426  0.00  0.00    +0.000 C 
ATOM     31  C   UNL     1      -3.161  12.198  23.695  0.00  0.00    +0.000 C 
ENDBRANCH  25  27
ENDBRANCH  22  23
ENDBRANCH  21  22
ENDBRANCH   6  21
TORSDOF 8
ENDMDL
MODEL 3
REMARK VINA RESULT:      -7.2      1.662      2.088
REMARK  Name = 
REMARK  11 active torsions:
REMARK  status: ('A' for Active; 'I' for Inactive)
REMARK    1  A    between atoms: C_1  and  O_2
REMARK    2  A    between atoms: O_2  and  C_3
REMARK    3  A    between atoms: C_5  and  C_6
REMARK    4  A    between atoms: N_11  and  C_12
REMARK    5  A    between atoms: C_12  and  C_13
REMARK    6  A    between atoms: C_13  and  C_14
REMARK    7  A    between atoms: N_16  and  C_17
REMARK    8  A    between atoms: C_25  and  O_26
REMARK    9  A    between atoms: O_26  and  C_27
REMARK   10  A    between atoms: C_28  and  O_29
REMARK   11  A    between atoms: O_29  and  C_30
REMARK                            x       y       z     vdW  Elec       q    Type
REMARK                         _______ _______ _______ _____ _____    ______ ____
ROOT
ATOM      1  C   UNL     1       2.682   7.523  18.135  0.00  0.00    +0.000 C 
ATOM      2  C   UNL     1       1.983   8.321  18.958  0.00  0.00    +0.000 C 
ATOM      3  S   UNL     1       1.419   7.970  20.534  0.00  0.00    +0.000 S 
ATOM      4  C   UNL     1       0.682   9.562  20.721  0.00  0.00    +0.000 C 
ATOM      5  S   UNL     1      -0.113   9.995  22.123  0.00  0.00    +0.000 S 
ATOM      6  N   UNL     1       0.871  10.310  19.575  0.00  0.00    +0.000 N 
ATOM      7  C   UNL     1       1.599   9.700  18.567  0.00  0.00    +0.000 C 
ATOM      8  O   UNL     1       1.894  10.201  17.489  0.00  0.00    +0.000 OA
ENDROOT
BRANCH   1  11
ATOM      9  C   UNL     1       4.917   4.549  18.758  0.00  0.00    +0.000 A 
ATOM     10  C   UNL     1       4.464   5.806  18.315  0.00  0.00    +0.000 A 
ATOM     11  C   UNL     1       3.116   6.147  18.391  0.00  0.00    +0.000 A 
ATOM     12  C   UNL     1       2.206   5.187  18.819  0.00  0.00    +0.000 A 
ATOM     13  C   UNL     1       2.623   3.895  19.185  0.00  0.00    +0.000 A 
ATOM     14  C   UNL     1       3.995   3.556  19.157  0.00  0.00    +0.000 A 
BRANCH   9  16
ATOM     15  C   UNL     1       6.997   4.752  17.649  0.00  0.00    +0.000 C 
ATOM     16  O   UNL     1       6.265   4.287  18.785  0.00  0.00    +0.000 OA
ENDBRANCH   9  16
BRANCH  13  17
ATOM     17  O   UNL     1       1.554   3.119  19.565  0.00  0.00    +0.000 OA
ATOM     18  C   UNL     1       1.194   3.036  20.936  0.00  0.00    +0.000 C 
ENDBRANCH  13  17
BRANCH  14  19
ATOM     19  O   UNL     1       4.300   2.270  19.513  0.00  0.00    +0.000 OA
ATOM     20  C   UNL     1       3.958   1.177  18.680  0.00  0.00    +0.000 C 
ENDBRANCH  14  19
ENDBRANCH   1  11
BRANCH   6  21
ATOM     21  C   UNL     1       0.464  11.716  19.407  0.00  0.00    +0.000 C 
BRANCH  21  22
ATOM     22  C   UNL     1      -0.472  11.946  18.217  0.00  0.00    +0.000 C 
BRANCH  22  23
ATOM     23  C   UNL     1      -1.802  11.245  18.423  0.00  0.00    +0.000 C 
ATOM     24  O   UNL     1      -1.909  10.032  18.570  0.00  0.00    +0.000 OA
ATOM     25  N   UNL     1      -2.873  12.114  18.446  0.00  0.00    +0.000 N 
ATOM     26  H   UNL     1      -2.719  13.073  18.164  0.00  0.00    +0.000 HD
BRANCH  25  27
ATOM     27  C   UNL     1      -4.245  11.663  18.598  0.00  0.00    +0.000 C 
ATOM     28  C   UNL     1      -5.002  12.483  19.638  0.00  0.00    +0.000 C 
ATOM     29  C   UNL     1      -6.465  12.210  19.326  0.00  0.00    +0.000 C 
ATOM     30  C   UNL     1      -6.527  11.952  17.822  0.00  0.00    +0.000 C 
ATOM     31  C   UNL     1      -5.080  11.869  17.336  0.00  0.00    +0.000 C 
ENDBRANCH  25  27
ENDBRANCH  22  23
ENDBRANCH  21  22
ENDBRANCH   6  21
TORSDOF 8
ENDMDL
MODEL 4
REMARK VINA RESULT:      -7.2      2.334      3.443
REMARK  Name = 
REMARK  11 active torsions:
REMARK  status: ('A' for Active; 'I' for Inactive)
REMARK    1  A    between atoms: C_1  and  O_2
REMARK    2  A    between atoms: O_2  and  C_3
REMARK    3  A    between atoms: C_5  and  C_6
REMARK    4  A    between atoms: N_11  and  C_12
REMARK    5  A    between atoms: C_12  and  C_13
REMARK    6  A    between atoms: C_13  and  C_14
REMARK    7  A    between atoms: N_16  and  C_17
REMARK    8  A    between atoms: C_25  and  O_26
REMARK    9  A    between atoms: O_26  and  C_27
REMARK   10  A    between atoms: C_28  and  O_29
REMARK   11  A    between atoms: O_29  and  C_30
REMARK                            x       y       z     vdW  Elec       q    Type
REMARK                         _______ _______ _______ _____ _____    ______ ____
ROOT
ATOM      1  C   UNL     1       2.394   7.707  18.210  0.00  0.00    +0.000 C 
ATOM      2  C   UNL     1       1.694   8.360  19.151  0.00  0.00    +0.000 C 
ATOM      3  S   UNL     1       1.378   7.867  20.758  0.00  0.00    +0.000 S 
ATOM      4  C   UNL     1       0.454   9.326  21.118  0.00  0.00    +0.000 C 
ATOM      5  S   UNL     1      -0.220   9.581  22.623  0.00  0.00    +0.000 S 
ATOM      6  N   UNL     1       0.398  10.140  20.004  0.00  0.00    +0.000 N 
ATOM      7  C   UNL     1       1.078   9.684  18.886  0.00  0.00    +0.000 C 
ATOM      8  O   UNL     1       1.168  10.267  17.812  0.00  0.00    +0.000 OA
ENDROOT
BRANCH   1  11
ATOM      9  C   UNL     1       4.907   5.050  19.132  0.00  0.00    +0.000 A 
ATOM     10  C   UNL     1       4.348   6.301  18.811  0.00  0.00    +0.000 A 
ATOM     11  C   UNL     1       3.043   6.400  18.335  0.00  0.00    +0.000 A 
ATOM     12  C   UNL     1       2.332   5.231  18.084  0.00  0.00    +0.000 A 
ATOM     13  C   UNL     1       2.900   3.965  18.315  0.00  0.00    +0.000 A 
ATOM     14  C   UNL     1       4.207   3.858  18.844  0.00  0.00    +0.000 A 
BRANCH   9  16
ATOM     15  C   UNL     1       7.188   5.665  18.996  0.00  0.00    +0.000 C 
ATOM     16  O   UNL     1       6.150   4.995  19.715  0.00  0.00    +0.000 OA
ENDBRANCH   9  16
BRANCH  13  17
ATOM     17  O   UNL     1       2.020   2.961  17.989  0.00  0.00    +0.000 OA
ATOM     18  C   UNL     1       0.980   2.615  18.891  0.00  0.00    +0.000 C 
ENDBRANCH  13  17
BRANCH  14  19
ATOM     19  O   UNL     1       4.679   2.585  19.016  0.00  0.00    +0.000 OA
ATOM     20  C   UNL     1       4.530   1.907  20.251  0.00  0.00    +0.000 C 
ENDBRANCH  14  19
ENDBRANCH   1  11
BRANCH   6  21
ATOM     21  C   UNL     1      -0.218  11.478  19.964  0.00  0.00    +0.000 C 
BRANCH  21  22
ATOM     22  C   UNL     1       0.578  12.544  20.721  0.00  0.00    +0.000 C 
BRANCH  22  23
ATOM     23  C   UNL     1      -0.262  13.186  21.809  0.00  0.00    +0.000 C 
ATOM     24  O   UNL     1       0.203  13.911  22.680  0.00  0.00    +0.000 OA
ATOM     25  N   UNL     1      -1.604  12.882  21.705  0.00  0.00    +0.000 N 
ATOM     26  H   UNL     1      -1.883  12.157  21.057  0.00  0.00    +0.000 HD
BRANCH  25  27
ATOM     27  C   UNL     1      -2.592  13.359  22.656  0.00  0.00    +0.000 C 
ATOM     28  C   UNL     1      -3.933  13.645  21.989  0.00  0.00    +0.000 C 
ATOM     29  C   UNL     1      -4.922  13.661  23.145  0.00  0.00    +0.000 C 
ATOM     30  C   UNL     1      -4.357  12.697  24.186  0.00  0.00    +0.000 C 
ATOM     31  C   UNL     1      -2.956  12.312  23.707  0.00  0.00    +0.000 C 
ENDBRANCH  25  27
ENDBRANCH  22  23
ENDBRANCH  21  22
ENDBRANCH   6  21
TORSDOF 8
ENDMDL
MODEL 5
REMARK VINA RESULT:      -7.1      2.086      4.025
REMARK  Name = 
REMARK  11 active torsions:
REMARK  status: ('A' for Active; 'I' for Inactive)
REMARK    1  A    between atoms: C_1  and  O_2
REMARK    2  A    between atoms: O_2  and  C_3
REMARK    3  A    between atoms: C_5  and  C_6
REMARK    4  A    between atoms: N_11  and  C_12
REMARK    5  A    between atoms: C_12  and  C_13
REMARK    6  A    between atoms: C_13  and  C_14
REMARK    7  A    between atoms: N_16  and  C_17
REMARK    8  A    between atoms: C_25  and  O_26
REMARK    9  A    between atoms: O_26  and  C_27
REMARK   10  A    between atoms: C_28  and  O_29
REMARK   11  A    between atoms: O_29  and  C_30
REMARK                            x       y       z     vdW  Elec       q    Type
REMARK                         _______ _______ _______ _____ _____    ______ ____
ROOT
ATOM      1  C   UNL     1       2.704   7.173  18.375  0.00  0.00    +0.000 C 
ATOM      2  C   UNL     1       2.026   8.048  19.135  0.00  0.00    +0.000 C 
ATOM      3  S   UNL     1       1.598   7.897  20.785  0.00  0.00    +0.000 S 
ATOM      4  C   UNL     1       0.794   9.467  20.811  0.00  0.00    +0.000 C 
ATOM      5  S   UNL     1       0.082  10.058  22.200  0.00  0.00    +0.000 S 
ATOM      6  N   UNL     1       0.858  10.055  19.562  0.00  0.00    +0.000 N 
ATOM      7  C   UNL     1       1.541   9.342  18.592  0.00  0.00    +0.000 C 
ATOM      8  O   UNL     1       1.729   9.699  17.435  0.00  0.00    +0.000 OA
ENDROOT
BRANCH   1  11
ATOM      9  C   UNL     1       2.858   3.499  19.213  0.00  0.00    +0.000 A 
ATOM     10  C   UNL     1       2.364   4.804  19.027  0.00  0.00    +0.000 A 
ATOM     11  C   UNL     1       3.228   5.867  18.781  0.00  0.00    +0.000 A 
ATOM     12  C   UNL     1       4.599   5.637  18.821  0.00  0.00    +0.000 A 
ATOM     13  C   UNL     1       5.120   4.359  19.090  0.00  0.00    +0.000 A 
ATOM     14  C   UNL     1       4.248   3.265  19.293  0.00  0.00    +0.000 A 
BRANCH   9  16
ATOM     15  C   UNL     1       0.680   2.684  18.774  0.00  0.00    +0.000 C 
ATOM     16  O   UNL     1       1.975   2.452  19.331  0.00  0.00    +0.000 OA
ENDBRANCH   9  16
BRANCH  13  17
ATOM     17  O   UNL     1       6.495   4.374  19.086  0.00  0.00    +0.000 OA
ATOM     18  C   UNL     1       7.188   5.585  19.340  0.00  0.00    +0.000 C 
ENDBRANCH  13  17
BRANCH  14  19
ATOM     19  O   UNL     1       4.849   2.066  19.566  0.00  0.00    +0.000 OA
ATOM     20  C   UNL     1       4.897   1.553  20.886  0.00  0.00    +0.000 C 
ENDBRANCH  14  19
ENDBRANCH   1  11
BRANCH   6  21
ATOM     21  C   UNL     1       0.366  11.406  19.237  0.00  0.00    +0.000 C 
BRANCH  21  22
ATOM     22  C   UNL     1      -1.156  11.486  19.091  0.00  0.00    +0.000 C 
BRANCH  22  23
ATOM     23  C   UNL     1      -1.741  12.535  20.019  0.00  0.00    +0.000 C 
ATOM     24  O   UNL     1      -1.416  13.716  19.990  0.00  0.00    +0.000 OA
ATOM     25  N   UNL     1      -2.687  12.024  20.884  0.00  0.00    +0.000 N 
ATOM     26  H   UNL     1      -2.783  11.019  20.950  0.00  0.00    +0.000 HD
BRANCH  25  27
ATOM     27  C   UNL     1      -3.356  12.837  21.883  0.00  0.00    +0.000 C 
ATOM     28  C   UNL     1      -4.874  12.728  21.782  0.00  0.00    +0.000 C 
ATOM     29  C   UNL     1      -5.368  13.224  23.133  0.00  0.00    +0.000 C 
ATOM     30  C   UNL     1      -4.270  12.865  24.132  0.00  0.00    +0.000 C 
ATOM     31  C   UNL     1      -3.080  12.368  23.310  0.00  0.00    +0.000 C 
ENDBRANCH  25  27
ENDBRANCH  22  23
ENDBRANCH  21  22
ENDBRANCH   6  21
TORSDOF 8
ENDMDL
MODEL 6
REMARK VINA RESULT:      -7.1      3.466      4.187
REMARK  Name = 
REMARK  11 active torsions:
REMARK  status: ('A' for Active; 'I' for Inactive)
REMARK    1  A    between atoms: C_1  and  O_2
REMARK    2  A    between atoms: O_2  and  C_3
REMARK    3  A    between atoms: C_5  and  C_6
REMARK    4  A    between atoms: N_11  and  C_12
REMARK    5  A    between atoms: C_12  and  C_13
REMARK    6  A    between atoms: C_13  and  C_14
REMARK    7  A    between atoms: N_16  and  C_17
REMARK    8  A    between atoms: C_25  and  O_26
REMARK    9  A    between atoms: O_26  and  C_27
REMARK   10  A    between atoms: C_28  and  O_29
REMARK   11  A    between atoms: O_29  and  C_30
REMARK                            x       y       z     vdW  Elec       q    Type
REMARK                         _______ _______ _______ _____ _____    ______ ____
ROOT
ATOM      1  C   UNL     1       1.352   7.949  21.192  0.00  0.00    +0.000 C 
ATOM      2  C   UNL     1       0.730   9.106  20.917  0.00  0.00    +0.000 C 
ATOM      3  S   UNL     1       0.158   9.657  19.401  0.00  0.00    +0.000 S 
ATOM      4  C   UNL     1      -0.452  11.166  20.081  0.00  0.00    +0.000 C 
ATOM      5  S   UNL     1      -1.214  12.305  19.128  0.00  0.00    +0.000 S 
ATOM      6  N   UNL     1      -0.190  11.217  21.436  0.00  0.00    +0.000 N 
ATOM      7  C   UNL     1       0.440  10.107  21.973  0.00  0.00    +0.000 C 
ATOM      8  O   UNL     1       0.736   9.948  23.151  0.00  0.00    +0.000 OA
ENDROOT
BRANCH   1  11
ATOM      9  C   UNL     1       3.023   6.111  18.355  0.00  0.00    +0.000 A 
ATOM     10  C   UNL     1       2.510   7.154  19.147  0.00  0.00    +0.000 A 
ATOM     11  C   UNL     1       1.704   6.884  20.249  0.00  0.00    +0.000 A 
ATOM     12  C   UNL     1       1.329   5.568  20.497  0.00  0.00    +0.000 A 
ATOM     13  C   UNL     1       1.758   4.516  19.669  0.00  0.00    +0.000 A 
ATOM     14  C   UNL     1       2.616   4.777  18.577  0.00  0.00    +0.000 A 
BRANCH   9  16
ATOM     15  C   UNL     1       5.293   6.265  17.702  0.00  0.00    +0.000 C 
ATOM     16  O   UNL     1       3.915   6.400  17.350  0.00  0.00    +0.000 OA
ENDBRANCH   9  16
BRANCH  13  17
ATOM     17  O   UNL     1       1.259   3.310  20.102  0.00  0.00    +0.000 OA
ATOM     18  C   UNL     1       1.559   2.852  21.411  0.00  0.00    +0.000 C 
ENDBRANCH  13  17
BRANCH  14  19
ATOM     19  O   UNL     1       2.965   3.691  17.819  0.00  0.00    +0.000 OA
ATOM     20  C   UNL     1       3.968   2.788  18.248  0.00  0.00    +0.000 C 
ENDBRANCH  14  19
ENDBRANCH   1  11
BRANCH   6  21
ATOM     21  C   UNL     1      -0.631  12.292  22.343  0.00  0.00    +0.000 C 
BRANCH  21  22
ATOM     22  C   UNL     1      -1.895  11.948  23.135  0.00  0.00    +0.000 C 
BRANCH  22  23
ATOM     23  C   UNL     1      -3.067  12.805  22.695  0.00  0.00    +0.000 C 
ATOM     24  O   UNL     1      -2.957  13.755  21.929  0.00  0.00    +0.000 OA
ATOM     25  N   UNL     1      -4.269  12.392  23.232  0.00  0.00    +0.000 N 
ATOM     26  H   UNL     1      -4.253  11.702  23.972  0.00  0.00    +0.000 HD
BRANCH  25  27
ATOM     27  C   UNL     1      -5.521  13.082  22.976  0.00  0.00    +0.000 C 
ATOM     28  C   UNL     1      -6.215  12.556  21.724  0.00  0.00    +0.000 C 
ATOM     29  C   UNL     1      -7.655  13.023  21.880  0.00  0.00    +0.000 C 
ATOM     30  C   UNL     1      -7.914  13.071  23.385  0.00  0.00    +0.000 C 
ATOM     31  C   UNL     1      -6.564  12.841  24.065  0.00  0.00    +0.000 C 
ENDBRANCH  25  27
ENDBRANCH  22  23
ENDBRANCH  21  22
ENDBRANCH   6  21
TORSDOF 8
ENDMDL
MODEL 7
REMARK VINA RESULT:      -7.1      2.016      3.912
REMARK  Name = 
REMARK  11 active torsions:
REMARK  status: ('A' for Active; 'I' for Inactive)
REMARK    1  A    between atoms: C_1  and  O_2
REMARK    2  A    between atoms: O_2  and  C_3
REMARK    3  A    between atoms: C_5  and  C_6
REMARK    4  A    between atoms: N_11  and  C_12
REMARK    5  A    between atoms: C_12  and  C_13
REMARK    6  A    between atoms: C_13  and  C_14
REMARK    7  A    between atoms: N_16  and  C_17
REMARK    8  A    between atoms: C_25  and  O_26
REMARK    9  A    between atoms: O_26  and  C_27
REMARK   10  A    between atoms: C_28  and  O_29
REMARK   11  A    between atoms: O_29  and  C_30
REMARK                            x       y       z     vdW  Elec       q    Type
REMARK                         _______ _______ _______ _____ _____    ______ ____
ROOT
ATOM      1  C   UNL     1       2.586   7.619  17.855  0.00  0.00    +0.000 C 
ATOM      2  C   UNL     1       2.004   8.357  18.813  0.00  0.00    +0.000 C 
ATOM      3  S   UNL     1       1.521   7.859  20.377  0.00  0.00    +0.000 S 
ATOM      4  C   UNL     1       0.918   9.462  20.798  0.00  0.00    +0.000 C 
ATOM      5  S   UNL     1       0.251   9.777  22.295  0.00  0.00    +0.000 S 
ATOM      6  N   UNL     1       1.084  10.327  19.734  0.00  0.00    +0.000 N 
ATOM      7  C   UNL     1       1.697   9.796  18.611  0.00  0.00    +0.000 C 
ATOM      8  O   UNL     1       1.955  10.401  17.578  0.00  0.00    +0.000 OA
ENDROOT
BRANCH   1  11
ATOM      9  C   UNL     1       2.241   3.864  17.892  0.00  0.00    +0.000 A 
ATOM     10  C   UNL     1       1.940   5.231  18.037  0.00  0.00    +0.000 A 
ATOM     11  C   UNL     1       2.934   6.197  17.920  0.00  0.00    +0.000 A 
ATOM     12  C   UNL     1       4.253   5.785  17.758  0.00  0.00    +0.000 A 
ATOM     13  C   UNL     1       4.591   4.421  17.696  0.00  0.00    +0.000 A 
ATOM     14  C   UNL     1       3.581   3.435  17.765  0.00  0.00    +0.000 A 
BRANCH   9  16
ATOM     15  C   UNL     1       0.673   2.640  19.174  0.00  0.00    +0.000 C 
ATOM     16  O   UNL     1       1.221   2.943  17.889  0.00  0.00    +0.000 OA
ENDBRANCH   9  16
BRANCH  13  17
ATOM     17  O   UNL     1       5.947   4.254  17.541  0.00  0.00    +0.000 OA
ATOM     18  C   UNL     1       6.846   5.075  18.269  0.00  0.00    +0.000 C 
ENDBRANCH  13  17
BRANCH  14  19
ATOM     19  O   UNL     1       4.010   2.136  17.715  0.00  0.00    +0.000 OA
ATOM     20  C   UNL     1       4.085   1.342  18.886  0.00  0.00    +0.000 C 
ENDBRANCH  14  19
ENDBRANCH   1  11
BRANCH   6  21
ATOM     21  C   UNL     1       0.771  11.767  19.757  0.00  0.00    +0.000 C 
BRANCH  21  22
ATOM     22  C   UNL     1      -0.639  12.097  19.261  0.00  0.00    +0.000 C 
BRANCH  22  23
ATOM     23  C   UNL     1      -1.379  12.974  20.254  0.00  0.00    +0.000 C 
ATOM     24  O   UNL     1      -1.260  14.193  20.296  0.00  0.00    +0.000 OA
ATOM     25  N   UNL     1      -2.210  12.258  21.091  0.00  0.00    +0.000 N 
ATOM     26  H   UNL     1      -2.133  11.250  21.096  0.00  0.00    +0.000 HD
BRANCH  25  27
ATOM     27  C   UNL     1      -2.992  12.884  22.142  0.00  0.00    +0.000 C 
ATOM     28  C   UNL     1      -4.490  12.776  21.878  0.00  0.00    +0.000 C 
ATOM     29  C   UNL     1      -5.121  13.032  23.238  0.00  0.00    +0.000 C 
ATOM     30  C   UNL     1      -4.112  12.524  24.266  0.00  0.00    +0.000 C 
ATOM     31  C   UNL     1      -2.837  12.186  23.492  0.00  0.00    +0.000 C 
ENDBRANCH  25  27
ENDBRANCH  22  23
ENDBRANCH  21  22
ENDBRANCH   6  21
TORSDOF 8
ENDMDL
MODEL 8
REMARK VINA RESULT:      -7.1      0.899      1.174
REMARK  Name = 
REMARK  11 active torsions:
REMARK  status: ('A' for Active; 'I' for Inactive)
REMARK    1  A    between atoms: C_1  and  O_2
REMARK    2  A    between atoms: O_2  and  C_3
REMARK    3  A    between atoms: C_5  and  C_6
REMARK    4  A    between atoms: N_11  and  C_12
REMARK    5  A    between atoms: C_12  and  C_13
REMARK    6  A    between atoms: C_13  and  C_14
REMARK    7  A    between atoms: N_16  and  C_17
REMARK    8  A    between atoms: C_25  and  O_26
REMARK    9  A    between atoms: O_26  and  C_27
REMARK   10  A    between atoms: C_28  and  O_29
REMARK   11  A    between atoms: O_29  and  C_30
REMARK                            x       y       z     vdW  Elec       q    Type
REMARK                         _______ _______ _______ _____ _____    ______ ____
ROOT
ATOM      1  C   UNL     1       2.402   7.794  18.409  0.00  0.00    +0.000 C 
ATOM      2  C   UNL     1       1.763   8.475  19.373  0.00  0.00    +0.000 C 
ATOM      3  S   UNL     1       1.351   7.935  20.944  0.00  0.00    +0.000 S 
ATOM      4  C   UNL     1       0.601   9.473  21.371  0.00  0.00    +0.000 C 
ATOM      5  S   UNL     1      -0.074   9.725  22.877  0.00  0.00    +0.000 S 
ATOM      6  N   UNL     1       0.670  10.349  20.305  0.00  0.00    +0.000 N 
ATOM      7  C   UNL     1       1.317   9.877  19.175  0.00  0.00    +0.000 C 
ATOM      8  O   UNL     1       1.503  10.502  18.138  0.00  0.00    +0.000 OA
ENDROOT
BRANCH   1  11
ATOM      9  C   UNL     1       4.739   4.834  18.398  0.00  0.00    +0.000 A 
ATOM     10  C   UNL     1       4.207   6.112  18.146  0.00  0.00    +0.000 A 
ATOM     11  C   UNL     1       2.887   6.413  18.470  0.00  0.00    +0.000 A 
ATOM     12  C   UNL     1       2.068   5.398  18.954  0.00  0.00    +0.000 A 
ATOM     13  C   UNL     1       2.553   4.090  19.134  0.00  0.00    +0.000 A 
ATOM     14  C   UNL     1       3.905   3.788  18.853  0.00  0.00    +0.000 A 
BRANCH   9  16
ATOM     15  C   UNL     1       6.466   4.528  16.811  0.00  0.00    +0.000 C 
ATOM     16  O   UNL     1       6.076   4.603  18.183  0.00  0.00    +0.000 OA
ENDBRANCH   9  16
BRANCH  13  17
ATOM     17  O   UNL     1       1.568   3.259  19.613  0.00  0.00    +0.000 OA
ATOM     18  C   UNL     1       0.794   2.488  18.708  0.00  0.00    +0.000 C 
ENDBRANCH  13  17
BRANCH  14  19
ATOM     19  O   UNL     1       4.277   2.485  19.042  0.00  0.00    +0.000 OA
ATOM     20  C   UNL     1       4.600   1.992  20.330  0.00  0.00    +0.000 C 
ENDBRANCH  14  19
ENDBRANCH   1  11
BRANCH   6  21
ATOM     21  C   UNL     1       0.220  11.752  20.331  0.00  0.00    +0.000 C 
BRANCH  21  22
ATOM     22  C   UNL     1      -1.297  11.913  20.202  0.00  0.00    +0.000 C 
BRANCH  22  23
ATOM     23  C   UNL     1      -1.756  11.653  18.779  0.00  0.00    +0.000 C 
ATOM     24  O   UNL     1      -1.417  12.344  17.825  0.00  0.00    +0.000 OA
ATOM     25  N   UNL     1      -2.577  10.550  18.670  0.00  0.00    +0.000 N 
ATOM     26  H   UNL     1      -2.932  10.130  19.519  0.00  0.00    +0.000 HD
BRANCH  25  27
ATOM     27  C   UNL     1      -3.163  10.131  17.409  0.00  0.00    +0.000 C 
ATOM     28  C   UNL     1      -3.966  11.249  16.753  0.00  0.00    +0.000 C 
ATOM     29  C   UNL     1      -4.084  10.812  15.301  0.00  0.00    +0.000 C 
ATOM     30  C   UNL     1      -2.824  10.000  15.008  0.00  0.00    +0.000 C 
ATOM     31  C   UNL     1      -2.113   9.804  16.348  0.00  0.00    +0.000 C 
ENDBRANCH  25  27
ENDBRANCH  22  23
ENDBRANCH  21  22
ENDBRANCH   6  21
TORSDOF 8
ENDMDL
MODEL 9
REMARK VINA RESULT:      -7.1      1.685      2.077
REMARK  Name = 
REMARK  11 active torsions:
REMARK  status: ('A' for Active; 'I' for Inactive)
REMARK    1  A    between atoms: C_1  and  O_2
REMARK    2  A    between atoms: O_2  and  C_3
REMARK    3  A    between atoms: C_5  and  C_6
REMARK    4  A    between atoms: N_11  and  C_12
REMARK    5  A    between atoms: C_12  and  C_13
REMARK    6  A    between atoms: C_13  and  C_14
REMARK    7  A    between atoms: N_16  and  C_17
REMARK    8  A    between atoms: C_25  and  O_26
REMARK    9  A    between atoms: O_26  and  C_27
REMARK   10  A    between atoms: C_28  and  O_29
REMARK   11  A    between atoms: O_29  and  C_30
REMARK                            x       y       z     vdW  Elec       q    Type
REMARK                         _______ _______ _______ _____ _____    ______ ____
ROOT
ATOM      1  C   UNL     1       2.512   7.411  18.323  0.00  0.00    +0.000 C 
ATOM      2  C   UNL     1       1.812   8.220  19.134  0.00  0.00    +0.000 C 
ATOM      3  S   UNL     1       1.385   7.956  20.769  0.00  0.00    +0.000 S 
ATOM      4  C   UNL     1       0.544   9.502  20.891  0.00  0.00    +0.000 C 
ATOM      5  S   UNL     1      -0.185   9.987  22.312  0.00  0.00    +0.000 S 
ATOM      6  N   UNL     1       0.596  10.168  19.683  0.00  0.00    +0.000 N 
ATOM      7  C   UNL     1       1.298   9.534  18.671  0.00  0.00    +0.000 C 
ATOM      8  O   UNL     1       1.480   9.967  17.540  0.00  0.00    +0.000 OA
ENDROOT
BRANCH   1  11
ATOM      9  C   UNL     1       5.002   4.678  19.066  0.00  0.00    +0.000 A 
ATOM     10  C   UNL     1       4.437   5.864  18.562  0.00  0.00    +0.000 A 
ATOM     11  C   UNL     1       3.066   6.094  18.648  0.00  0.00    +0.000 A 
ATOM     12  C   UNL     1       2.248   5.087  19.149  0.00  0.00    +0.000 A 
ATOM     13  C   UNL     1       2.780   3.858  19.579  0.00  0.00    +0.000 A 
ATOM     14  C   UNL     1       4.175   3.635  19.540  0.00  0.00    +0.000 A 
BRANCH   9  16
ATOM     15  C   UNL     1       6.995   4.559  17.795  0.00  0.00    +0.000 C 
ATOM     16  O   UNL     1       6.369   4.532  19.079  0.00  0.00    +0.000 OA
ENDBRANCH   9  16
BRANCH  13  17
ATOM     17  O   UNL     1       1.787   3.018  20.025  0.00  0.00    +0.000 OA
ATOM     18  C   UNL     1       0.782   2.576  19.127  0.00  0.00    +0.000 C 
ENDBRANCH  13  17
BRANCH  14  19
ATOM     19  O   UNL     1       4.595   2.403  19.962  0.00  0.00    +0.000 OA
ATOM     20  C   UNL     1       4.288   1.231  19.227  0.00  0.00    +0.000 C 
ENDBRANCH  14  19
ENDBRANCH   1  11
BRANCH   6  21
ATOM     21  C   UNL     1       0.073  11.524  19.441  0.00  0.00    +0.000 C 
BRANCH  21  22
ATOM     22  C   UNL     1      -1.012  11.581  18.361  0.00  0.00    +0.000 C 
BRANCH  22  23
ATOM     23  C   UNL     1      -2.374  11.861  18.968  0.00  0.00    +0.000 C 
ATOM     24  O   UNL     1      -2.538  12.172  20.142  0.00  0.00    +0.000 OA
ATOM     25  N   UNL     1      -3.404  11.745  18.057  0.00  0.00    +0.000 N 
ATOM     26  H   UNL     1      -3.203  11.335  17.155  0.00  0.00    +0.000 HD
BRANCH  25  27
ATOM     27  C   UNL     1      -4.797  11.936  18.421  0.00  0.00    +0.000 C 
ATOM     28  C   UNL     1      -5.625  12.453  17.249  0.00  0.00    +0.000 C 
ATOM     29  C   UNL     1      -7.060  12.142  17.649  0.00  0.00    +0.000 C 
ATOM     30  C   UNL     1      -6.985  10.889  18.518  0.00  0.00    +0.000 C 
ATOM     31  C   UNL     1      -5.501  10.628  18.778  0.00  0.00    +0.000 C 
ENDBRANCH  25  27
ENDBRANCH  22  23
ENDBRANCH  21  22
ENDBRANCH   6  21
TORSDOF 8
ENDMDL
