MODEL 1
REMARK VINA RESULT:      -8.1      0.000      0.000
REMARK  Name = 
REMARK  8 active torsions:
REMARK  status: ('A' for Active; 'I' for Inactive)
REMARK    1  A    between atoms: C_1  and  C_2
REMARK    2  A    between atoms: C_2  and  C_3
REMARK    3  A    between atoms: C_2  and  C_4
REMARK    4  A    between atoms: C_6  and  C_7
REMARK    5  A    between atoms: C_7  and  N_8
REMARK    6  A    between atoms: N_8  and  S_9
REMARK    7  A    between atoms: S_9  and  C_12
REMARK    8  A    between atoms: N_16  and  C_17
REMARK                            x       y       z     vdW  Elec       q    Type
REMARK                         _______ _______ _______ _____ _____    ______ ____
ROOT
ATOM      1  S   UNL     1       3.765   2.894  18.867  0.00  0.00    +0.000 S 
ATOM      2  O   UNL     1       2.675   1.997  18.558  0.00  0.00    +0.000 OA
ATOM      3  O   UNL     1       4.818   2.533  19.789  0.00  0.00    +0.000 OA
ENDROOT
BRANCH   1   4
ATOM      4  C   UNL     1       2.988   4.337  19.514  0.00  0.00    +0.000 A 
ATOM      5  C   UNL     1       2.884   5.610  18.978  0.00  0.00    +0.000 A 
ATOM      6  C   UNL     1       2.156   6.368  19.913  0.00  0.00    +0.000 A 
ATOM      7  N   UNL     1       1.834   5.654  20.990  0.00  0.00    +0.000 NA
ATOM      8  N   UNL     1       2.317   4.416  20.714  0.00  0.00    +0.000 N 
ATOM      9  C   UNL     1       2.089   3.369  21.684  0.00  0.00    +0.000 C 
ATOM     10  C   UNL     1       1.824   7.810  19.732  0.00  0.00    +0.000 C 
ATOM     11  C   UNL     1       2.068   8.250  18.274  0.00  0.00    +0.000 C 
ATOM     12  C   UNL     1       3.381   7.682  17.704  0.00  0.00    +0.000 C 
ATOM     13  C   UNL     1       3.368   6.146  17.681  0.00  0.00    +0.000 C 
ENDBRANCH   1   4
BRANCH   1  14
ATOM     14  N   UNL     1       4.472   3.350  17.415  0.00  0.00    +0.000 NA
ATOM     15  H   UNL     1       4.519   2.568  16.757  0.00  0.00    +0.000 HD
BRANCH  14  16
ATOM     16  C   UNL     1       5.778   4.009  17.555  0.00  0.00    +0.000 C 
BRANCH  16  19
ATOM     17  C   UNL     1       6.646   4.150  14.081  0.00  0.00    +0.000 A 
ATOM     18  N   UNL     1       5.961   3.625  15.080  0.00  0.00    +0.000 NA
ATOM     19  C   UNL     1       6.309   4.354  16.203  0.00  0.00    +0.000 A 
ATOM     20  C   UNL     1       7.209   5.340  15.862  0.00  0.00    +0.000 A 
ATOM     21  N   UNL     1       7.417   5.197  14.521  0.00  0.00    +0.000 N 
ATOM     22  H   UNL     1       8.034   5.756  13.947  0.00  0.00    +0.000 HD
BRANCH  17  24
ATOM     23  C   UNL     1       5.208   3.445  12.162  0.00  0.00    +0.000 C 
ATOM     24  C   UNL     1       6.631   3.732  12.639  0.00  0.00    +0.000 C 
ATOM     25  C   UNL     1       7.293   4.798  11.769  0.00  0.00    +0.000 C 
ENDBRANCH  17  24
ENDBRANCH  16  19
ENDBRANCH  14  16
ENDBRANCH   1  14
TORSDOF 5
ENDMDL
MODEL 2
REMARK VINA RESULT:      -8.0      2.283      3.604
REMARK  Name = 
REMARK  8 active torsions:
REMARK  status: ('A' for Active; 'I' for Inactive)
REMARK    1  A    between atoms: C_1  and  C_2
REMARK    2  A    between atoms: C_2  and  C_3
REMARK    3  A    between atoms: C_2  and  C_4
REMARK    4  A    between atoms: C_6  and  C_7
REMARK    5  A    between atoms: C_7  and  N_8
REMARK    6  A    between atoms: N_8  and  S_9
REMARK    7  A    between atoms: S_9  and  C_12
REMARK    8  A    between atoms: N_16  and  C_17
REMARK                            x       y       z     vdW  Elec       q    Type
REMARK                         _______ _______ _______ _____ _____    ______ ____
ROOT
ATOM      1  S   UNL     1       5.969   5.475  17.867  0.00  0.00    +0.000 S 
ATOM      2  O   UNL     1       6.558   4.920  19.065  0.00  0.00    +0.000 OA
ATOM      3  O   UNL     1       6.129   6.866  17.507  0.00  0.00    +0.000 OA
ENDROOT
BRANCH   1   4
ATOM      4  C   UNL     1       4.240   5.183  18.041  0.00  0.00    +0.000 A 
ATOM      5  C   UNL     1       3.557   4.009  18.312  0.00  0.00    +0.000 A 
ATOM      6  C   UNL     1       2.193   4.351  18.346  0.00  0.00    +0.000 A 
ATOM      7  N   UNL     1       1.997   5.643  18.089  0.00  0.00    +0.000 NA
ATOM      8  N   UNL     1       3.253   6.138  17.941  0.00  0.00    +0.000 N 
ATOM      9  C   UNL     1       3.397   7.555  17.692  0.00  0.00    +0.000 C 
ATOM     10  C   UNL     1       1.099   3.372  18.600  0.00  0.00    +0.000 C 
ATOM     11  C   UNL     1       1.666   2.048  19.153  0.00  0.00    +0.000 C 
ATOM     12  C   UNL     1       2.944   1.606  18.416  0.00  0.00    +0.000 C 
ATOM     13  C   UNL     1       4.070   2.640  18.569  0.00  0.00    +0.000 C 
ENDBRANCH   1   4
BRANCH   1  14
ATOM     14  N   UNL     1       6.478   4.537  16.572  0.00  0.00    +0.000 NA
ATOM     15  H   UNL     1       6.925   3.673  16.886  0.00  0.00    +0.000 HD
BRANCH  14  16
ATOM     16  C   UNL     1       7.317   5.249  15.598  0.00  0.00    +0.000 C 
BRANCH  16  19
ATOM     17  C   UNL     1       6.139   3.482  12.711  0.00  0.00    +0.000 A 
ATOM     18  N   UNL     1       6.082   3.755  14.001  0.00  0.00    +0.000 NA
ATOM     19  C   UNL     1       7.039   4.727  14.227  0.00  0.00    +0.000 A 
ATOM     20  C   UNL     1       7.669   5.050  13.044  0.00  0.00    +0.000 A 
ATOM     21  N   UNL     1       7.096   4.253  12.096  0.00  0.00    +0.000 N 
ATOM     22  H   UNL     1       7.332   4.226  11.114  0.00  0.00    +0.000 HD
BRANCH  17  24
ATOM     23  C   UNL     1       4.231   3.207  11.120  0.00  0.00    +0.000 C 
ATOM     24  C   UNL     1       5.306   2.499  11.943  0.00  0.00    +0.000 C 
ATOM     25  C   UNL     1       6.191   1.632  11.051  0.00  0.00    +0.000 C 
ENDBRANCH  17  24
ENDBRANCH  16  19
ENDBRANCH  14  16
ENDBRANCH   1  14
TORSDOF 5
ENDMDL
MODEL 3
REMARK VINA RESULT:      -8.0      1.568      2.898
REMARK  Name = 
REMARK  8 active torsions:
REMARK  status: ('A' for Active; 'I' for Inactive)
REMARK    1  A    between atoms: C_1  and  C_2
REMARK    2  A    between atoms: C_2  and  C_3
REMARK    3  A    between atoms: C_2  and  C_4
REMARK    4  A    between atoms: C_6  and  C_7
REMARK    5  A    between atoms: C_7  and  N_8
REMARK    6  A    between atoms: N_8  and  S_9
REMARK    7  A    between atoms: S_9  and  C_12
REMARK    8  A    between atoms: N_16  and  C_17
REMARK                            x       y       z     vdW  Elec       q    Type
REMARK                         _______ _______ _______ _____ _____    ______ ____
ROOT
ATOM      1  S   UNL     1       2.724   2.728  18.247  0.00  0.00    +0.000 S 
ATOM      2  O   UNL     1       1.958   2.905  17.034  0.00  0.00    +0.000 OA
ATOM      3  O   UNL     1       2.559   1.569  19.095  0.00  0.00    +0.000 OA
ENDROOT
BRANCH   1   4
ATOM      4  C   UNL     1       2.345   4.142  19.228  0.00  0.00    +0.000 A 
ATOM      5  C   UNL     1       2.429   5.490  18.919  0.00  0.00    +0.000 A 
ATOM      6  C   UNL     1       1.999   6.179  20.066  0.00  0.00    +0.000 A 
ATOM      7  N   UNL     1       1.686   5.348  21.059  0.00  0.00    +0.000 NA
ATOM      8  N   UNL     1       1.869   4.116  20.520  0.00  0.00    +0.000 N 
ATOM      9  C   UNL     1       1.567   2.966  21.341  0.00  0.00    +0.000 C 
ATOM     10  C   UNL     1       1.942   7.665  20.167  0.00  0.00    +0.000 C 
ATOM     11  C   UNL     1       2.073   8.315  18.774  0.00  0.00    +0.000 C 
ATOM     12  C   UNL     1       3.158   7.639  17.914  0.00  0.00    +0.000 C 
ATOM     13  C   UNL     1       2.834   6.159  17.658  0.00  0.00    +0.000 C 
ENDBRANCH   1   4
BRANCH   1  14
ATOM     14  N   UNL     1       4.348   2.855  17.843  0.00  0.00    +0.000 NA
ATOM     15  H   UNL     1       4.841   3.502  18.463  0.00  0.00    +0.000 HD
BRANCH  14  16
ATOM     16  C   UNL     1       4.600   3.172  16.430  0.00  0.00    +0.000 C 
BRANCH  16  19
ATOM     17  C   UNL     1       7.079   5.692  17.020  0.00  0.00    +0.000 A 
ATOM     18  N   UNL     1       6.192   4.820  17.460  0.00  0.00    +0.000 NA
ATOM     19  C   UNL     1       5.688   4.191  16.336  0.00  0.00    +0.000 A 
ATOM     20  C   UNL     1       6.297   4.690  15.205  0.00  0.00    +0.000 A 
ATOM     21  N   UNL     1       7.169   5.641  15.651  0.00  0.00    +0.000 N 
ATOM     22  H   UNL     1       7.775   6.214  15.078  0.00  0.00    +0.000 HD
BRANCH  17  24
ATOM     23  C   UNL     1       7.456   8.078  17.663  0.00  0.00    +0.000 C 
ATOM     24  C   UNL     1       7.922   6.632  17.831  0.00  0.00    +0.000 C 
ATOM     25  C   UNL     1       7.911   6.224  19.302  0.00  0.00    +0.000 C 
ENDBRANCH  17  24
ENDBRANCH  16  19
ENDBRANCH  14  16
ENDBRANCH   1  14
TORSDOF 5
ENDMDL
MODEL 4
REMARK VINA RESULT:      -7.8      1.059      1.435
REMARK  Name = 
REMARK  8 active torsions:
REMARK  status: ('A' for Active; 'I' for Inactive)
REMARK    1  A    between atoms: C_1  and  C_2
REMARK    2  A    between atoms: C_2  and  C_3
REMARK    3  A    between atoms: C_2  and  C_4
REMARK    4  A    between atoms: C_6  and  C_7
REMARK    5  A    between atoms: C_7  and  N_8
REMARK    6  A    between atoms: N_8  and  S_9
REMARK    7  A    between atoms: S_9  and  C_12
REMARK    8  A    between atoms: N_16  and  C_17
REMARK                            x       y       z     vdW  Elec       q    Type
REMARK                         _______ _______ _______ _____ _____    ______ ____
ROOT
ATOM      1  S   UNL     1       2.889   2.860  18.164  0.00  0.00    +0.000 S 
ATOM      2  O   UNL     1       2.400   3.280  16.870  0.00  0.00    +0.000 OA
ATOM      3  O   UNL     1       2.416   1.656  18.809  0.00  0.00    +0.000 OA
ENDROOT
BRANCH   1   4
ATOM      4  C   UNL     1       2.514   4.203  19.242  0.00  0.00    +0.000 A 
ATOM      5  C   UNL     1       2.425   5.560  18.978  0.00  0.00    +0.000 A 
ATOM      6  C   UNL     1       2.092   6.173  20.199  0.00  0.00    +0.000 A 
ATOM      7  N   UNL     1       1.999   5.289  21.191  0.00  0.00    +0.000 NA
ATOM      8  N   UNL     1       2.224   4.096  20.584  0.00  0.00    +0.000 N 
ATOM      9  C   UNL     1       2.148   2.899  21.392  0.00  0.00    +0.000 C 
ATOM     10  C   UNL     1       1.907   7.642  20.366  0.00  0.00    +0.000 C 
ATOM     11  C   UNL     1       1.783   8.338  18.994  0.00  0.00    +0.000 C 
ATOM     12  C   UNL     1       2.800   7.798  17.971  0.00  0.00    +0.000 C 
ATOM     13  C   UNL     1       2.587   6.300  17.702  0.00  0.00    +0.000 C 
ENDBRANCH   1   4
BRANCH   1  14
ATOM     14  N   UNL     1       4.563   2.783  18.071  0.00  0.00    +0.000 NA
ATOM     15  H   UNL     1       4.930   1.966  18.566  0.00  0.00    +0.000 HD
BRANCH  14  16
ATOM     16  C   UNL     1       5.252   4.013  18.485  0.00  0.00    +0.000 C 
BRANCH  16  19
ATOM     17  C   UNL     1       6.455   4.914  15.232  0.00  0.00    +0.000 A 
ATOM     18  N   UNL     1       5.623   4.250  16.013  0.00  0.00    +0.000 NA
ATOM     19  C   UNL     1       5.944   4.615  17.307  0.00  0.00    +0.000 A 
ATOM     20  C   UNL     1       6.978   5.526  17.296  0.00  0.00    +0.000 A 
ATOM     21  N   UNL     1       7.295   5.702  15.980  0.00  0.00    +0.000 N 
ATOM     22  H   UNL     1       8.022   6.301  15.614  0.00  0.00    +0.000 HD
BRANCH  17  24
ATOM     23  C   UNL     1       7.929   5.246  13.241  0.00  0.00    +0.000 C 
ATOM     24  C   UNL     1       6.529   4.883  13.733  0.00  0.00    +0.000 C 
ATOM     25  C   UNL     1       6.104   3.514  13.207  0.00  0.00    +0.000 C 
ENDBRANCH  17  24
ENDBRANCH  16  19
ENDBRANCH  14  16
ENDBRANCH   1  14
TORSDOF 5
ENDMDL
MODEL 5
REMARK VINA RESULT:      -7.8      1.122      1.230
REMARK  Name = 
REMARK  8 active torsions:
REMARK  status: ('A' for Active; 'I' for Inactive)
REMARK    1  A    between atoms: C_1  and  C_2
REMARK    2  A    between atoms: C_2  and  C_3
REMARK    3  A    between atoms: C_2  and  C_4
REMARK    4  A    between atoms: C_6  and  C_7
REMARK    5  A    between atoms: C_7  and  N_8
REMARK    6  A    between atoms: N_8  and  S_9
REMARK    7  A    between atoms: S_9  and  C_12
REMARK    8  A    between atoms: N_16  and  C_17
REMARK                            x       y       z     vdW  Elec       q    Type
REMARK                         _______ _______ _______ _____ _____    ______ ____
ROOT
ATOM      1  S   UNL     1       2.571   2.981  18.059  0.00  0.00    +0.000 S 
ATOM      2  O   UNL     1       2.113   3.512  16.795  0.00  0.00    +0.000 OA
ATOM      3  O   UNL     1       2.001   1.787  18.641  0.00  0.00    +0.000 OA
ENDROOT
BRANCH   1   4
ATOM      4  C   UNL     1       2.317   4.289  19.213  0.00  0.00    +0.000 A 
ATOM      5  C   UNL     1       2.234   5.656  19.007  0.00  0.00    +0.000 A 
ATOM      6  C   UNL     1       2.018   6.228  20.273  0.00  0.00    +0.000 A 
ATOM      7  N   UNL     1       1.991   5.309  21.236  0.00  0.00    +0.000 NA
ATOM      8  N   UNL     1       2.138   4.136  20.569  0.00  0.00    +0.000 N 
ATOM      9  C   UNL     1       2.106   2.911  21.337  0.00  0.00    +0.000 C 
ATOM     10  C   UNL     1       1.879   7.693  20.508  0.00  0.00    +0.000 C 
ATOM     11  C   UNL     1       1.655   8.443  19.178  0.00  0.00    +0.000 C 
ATOM     12  C   UNL     1       2.571   7.924  18.054  0.00  0.00    +0.000 C 
ATOM     13  C   UNL     1       2.305   6.441  17.749  0.00  0.00    +0.000 C 
ENDBRANCH   1   4
BRANCH   1  14
ATOM     14  N   UNL     1       4.232   2.768  17.946  0.00  0.00    +0.000 NA
ATOM     15  H   UNL     1       4.567   2.064  18.607  0.00  0.00    +0.000 HD
BRANCH  14  16
ATOM     16  C   UNL     1       5.013   4.010  18.046  0.00  0.00    +0.000 C 
BRANCH  16  19
ATOM     17  C   UNL     1       6.114   4.348  14.652  0.00  0.00    +0.000 A 
ATOM     18  N   UNL     1       5.826   3.604  15.704  0.00  0.00    +0.000 NA
ATOM     19  C   UNL     1       5.377   4.480  16.676  0.00  0.00    +0.000 A 
ATOM     20  C   UNL     1       5.384   5.768  16.187  0.00  0.00    +0.000 A 
ATOM     21  N   UNL     1       5.857   5.672  14.911  0.00  0.00    +0.000 N 
ATOM     22  H   UNL     1       6.000   6.436  14.266  0.00  0.00    +0.000 HD
BRANCH  17  24
ATOM     23  C   UNL     1       5.496   3.490  12.388  0.00  0.00    +0.000 C 
ATOM     24  C   UNL     1       6.636   3.891  13.322  0.00  0.00    +0.000 C 
ATOM     25  C   UNL     1       7.503   4.976  12.689  0.00  0.00    +0.000 C 
ENDBRANCH  17  24
ENDBRANCH  16  19
ENDBRANCH  14  16
ENDBRANCH   1  14
TORSDOF 5
ENDMDL
MODEL 6
REMARK VINA RESULT:      -7.7      2.957      3.868
REMARK  Name = 
REMARK  8 active torsions:
REMARK  status: ('A' for Active; 'I' for Inactive)
REMARK    1  A    between atoms: C_1  and  C_2
REMARK    2  A    between atoms: C_2  and  C_3
REMARK    3  A    between atoms: C_2  and  C_4
REMARK    4  A    between atoms: C_6  and  C_7
REMARK    5  A    between atoms: C_7  and  N_8
REMARK    6  A    between atoms: N_8  and  S_9
REMARK    7  A    between atoms: S_9  and  C_12
REMARK    8  A    between atoms: N_16  and  C_17
REMARK                            x       y       z     vdW  Elec       q    Type
REMARK                         _______ _______ _______ _____ _____    ______ ____
ROOT
ATOM      1  S   UNL     1       5.145   6.767  17.157  0.00  0.00    +0.000 S 
ATOM      2  O   UNL     1       6.395   7.362  17.574  0.00  0.00    +0.000 OA
ATOM      3  O   UNL     1       3.899   7.499  17.187  0.00  0.00    +0.000 OA
ENDROOT
BRANCH   1   4
ATOM      4  C   UNL     1       4.944   5.366  18.207  0.00  0.00    +0.000 A 
ATOM      5  C   UNL     1       3.888   4.475  18.313  0.00  0.00    +0.000 A 
ATOM      6  C   UNL     1       4.258   3.548  19.304  0.00  0.00    +0.000 A 
ATOM      7  N   UNL     1       5.450   3.828  19.827  0.00  0.00    +0.000 NA
ATOM      8  N   UNL     1       5.866   4.913  19.125  0.00  0.00    +0.000 N 
ATOM      9  C   UNL     1       7.173   5.453  19.423  0.00  0.00    +0.000 C 
ATOM     10  C   UNL     1       3.396   2.415  19.741  0.00  0.00    +0.000 C 
ATOM     11  C   UNL     1       2.238   2.191  18.747  0.00  0.00    +0.000 C 
ATOM     12  C   UNL     1       1.599   3.515  18.286  0.00  0.00    +0.000 C 
ATOM     13  C   UNL     1       2.614   4.406  17.554  0.00  0.00    +0.000 C 
ENDBRANCH   1   4
BRANCH   1  14
ATOM     14  N   UNL     1       5.364   6.166  15.606  0.00  0.00    +0.000 NA
ATOM     15  H   UNL     1       4.645   5.480  15.362  0.00  0.00    +0.000 HD
BRANCH  14  16
ATOM     16  C   UNL     1       6.712   5.642  15.341  0.00  0.00    +0.000 C 
BRANCH  16  19
ATOM     17  C   UNL     1       6.057   3.443  12.587  0.00  0.00    +0.000 A 
ATOM     18  N   UNL     1       5.729   3.958  13.758  0.00  0.00    +0.000 NA
ATOM     19  C   UNL     1       6.708   4.890  14.051  0.00  0.00    +0.000 A 
ATOM     20  C   UNL     1       7.630   4.940  13.028  0.00  0.00    +0.000 A 
ATOM     21  N   UNL     1       7.211   4.018  12.114  0.00  0.00    +0.000 N 
ATOM     22  H   UNL     1       7.667   3.790  11.241  0.00  0.00    +0.000 HD
BRANCH  17  24
ATOM     23  C   UNL     1       4.202   3.001  10.973  0.00  0.00    +0.000 C 
ATOM     24  C   UNL     1       5.324   2.390  11.810  0.00  0.00    +0.000 C 
ATOM     25  C   UNL     1       6.294   1.604  10.931  0.00  0.00    +0.000 C 
ENDBRANCH  17  24
ENDBRANCH  16  19
ENDBRANCH  14  16
ENDBRANCH   1  14
TORSDOF 5
ENDMDL
MODEL 7
REMARK VINA RESULT:      -7.7      2.017      3.291
REMARK  Name = 
REMARK  8 active torsions:
REMARK  status: ('A' for Active; 'I' for Inactive)
REMARK    1  A    between atoms: C_1  and  C_2
REMARK    2  A    between atoms: C_2  and  C_3
REMARK    3  A    between atoms: C_2  and  C_4
REMARK    4  A    between atoms: C_6  and  C_7
REMARK    5  A    between atoms: C_7  and  N_8
REMARK    6  A    between atoms: N_8  and  S_9
REMARK    7  A    between atoms: S_9  and  C_12
REMARK    8  A    between atoms: N_16  and  C_17
REMARK                            x       y       z     vdW  Elec       q    Type
REMARK                         _______ _______ _______ _____ _____    ______ ____
ROOT
ATOM      1  S   UNL     1       5.977   5.474  18.587  0.00  0.00    +0.000 S 
ATOM      2  O   UNL     1       6.625   5.257  19.860  0.00  0.00    +0.000 OA
ATOM      3  O   UNL     1       6.221   6.659  17.794  0.00  0.00    +0.000 OA
ENDROOT
BRANCH   1   4
ATOM      4  C   UNL     1       4.253   5.443  18.949  0.00  0.00    +0.000 A 
ATOM      5  C   UNL     1       3.506   4.510  19.650  0.00  0.00    +0.000 A 
ATOM      6  C   UNL     1       2.182   4.984  19.640  0.00  0.00    +0.000 A 
ATOM      7  N   UNL     1       2.067   6.124  18.961  0.00  0.00    +0.000 NA
ATOM      8  N   UNL     1       3.339   6.404  18.580  0.00  0.00    +0.000 N 
ATOM      9  C   UNL     1       3.572   7.627  17.845  0.00  0.00    +0.000 C 
ATOM     10  C   UNL     1       1.042   4.271  20.281  0.00  0.00    +0.000 C 
ATOM     11  C   UNL     1       1.550   3.163  21.227  0.00  0.00    +0.000 C 
ATOM     12  C   UNL     1       2.717   2.364  20.618  0.00  0.00    +0.000 C 
ATOM     13  C   UNL     1       3.931   3.265  20.338  0.00  0.00    +0.000 C 
ENDBRANCH   1   4
BRANCH   1  14
ATOM     14  N   UNL     1       6.282   4.130  17.628  0.00  0.00    +0.000 NA
ATOM     15  H   UNL     1       7.213   4.172  17.207  0.00  0.00    +0.000 HD
BRANCH  14  16
ATOM     16  C   UNL     1       5.251   3.857  16.618  0.00  0.00    +0.000 C 
BRANCH  16  19
ATOM     17  C   UNL     1       6.072   3.757  13.131  0.00  0.00    +0.000 A 
ATOM     18  N   UNL     1       5.299   3.419  14.145  0.00  0.00    +0.000 NA
ATOM     19  C   UNL     1       5.826   4.054  15.254  0.00  0.00    +0.000 A 
ATOM     20  C   UNL     1       6.929   4.797  14.890  0.00  0.00    +0.000 A 
ATOM     21  N   UNL     1       7.076   4.596  13.548  0.00  0.00    +0.000 N 
ATOM     22  H   UNL     1       7.798   4.989  12.959  0.00  0.00    +0.000 HD
BRANCH  17  24
ATOM     23  C   UNL     1       6.769   2.095  11.399  0.00  0.00    +0.000 C 
ATOM     24  C   UNL     1       5.937   3.342  11.695  0.00  0.00    +0.000 C 
ATOM     25  C   UNL     1       4.469   3.114  11.342  0.00  0.00    +0.000 C 
ENDBRANCH  17  24
ENDBRANCH  16  19
ENDBRANCH  14  16
ENDBRANCH   1  14
TORSDOF 5
ENDMDL
MODEL 8
REMARK VINA RESULT:      -7.5      1.956      2.375
REMARK  Name = 
REMARK  8 active torsions:
REMARK  status: ('A' for Active; 'I' for Inactive)
REMARK    1  A    between atoms: C_1  and  C_2
REMARK    2  A    between atoms: C_2  and  C_3
REMARK    3  A    between atoms: C_2  and  C_4
REMARK    4  A    between atoms: C_6  and  C_7
REMARK    5  A    between atoms: C_7  and  N_8
REMARK    6  A    between atoms: N_8  and  S_9
REMARK    7  A    between atoms: S_9  and  C_12
REMARK    8  A    between atoms: N_16  and  C_17
REMARK                            x       y       z     vdW  Elec       q    Type
REMARK                         _______ _______ _______ _____ _____    ______ ____
ROOT
ATOM      1  S   UNL     1       3.545   5.963  17.880  0.00  0.00    +0.000 S 
ATOM      2  O   UNL     1       3.961   6.949  16.908  0.00  0.00    +0.000 OA
ATOM      3  O   UNL     1       2.796   4.785  17.505  0.00  0.00    +0.000 OA
ENDROOT
BRANCH   1   4
ATOM      4  C   UNL     1       2.557   6.857  19.032  0.00  0.00    +0.000 A 
ATOM      5  C   UNL     1       2.036   8.138  18.955  0.00  0.00    +0.000 A 
ATOM      6  C   UNL     1       1.322   8.341  20.149  0.00  0.00    +0.000 A 
ATOM      7  N   UNL     1       1.394   7.286  20.958  0.00  0.00    +0.000 NA
ATOM      8  N   UNL     1       2.118   6.383  20.248  0.00  0.00    +0.000 N 
ATOM      9  C   UNL     1       2.346   5.083  20.839  0.00  0.00    +0.000 C 
ATOM     10  C   UNL     1       0.605   9.605  20.481  0.00  0.00    +0.000 C 
ATOM     11  C   UNL     1       0.458  10.497  19.231  0.00  0.00    +0.000 C 
ATOM     12  C   UNL     1       1.747  10.538  18.388  0.00  0.00    +0.000 C 
ATOM     13  C   UNL     1       2.122   9.143  17.865  0.00  0.00    +0.000 C 
ENDBRANCH   1   4
BRANCH   1  14
ATOM     14  N   UNL     1       4.914   5.469  18.716  0.00  0.00    +0.000 NA
ATOM     15  H   UNL     1       5.590   6.230  18.816  0.00  0.00    +0.000 HD
BRANCH  14  16
ATOM     16  C   UNL     1       5.551   4.258  18.178  0.00  0.00    +0.000 C 
BRANCH  16  19
ATOM     17  C   UNL     1       6.660   4.341  14.771  0.00  0.00    +0.000 A 
ATOM     18  N   UNL     1       5.889   3.850  15.723  0.00  0.00    +0.000 NA
ATOM     19  C   UNL     1       6.186   4.573  16.864  0.00  0.00    +0.000 A 
ATOM     20  C   UNL     1       7.144   5.522  16.582  0.00  0.00    +0.000 A 
ATOM     21  N   UNL     1       7.439   5.362  15.259  0.00  0.00    +0.000 N 
ATOM     22  H   UNL     1       8.114   5.894  14.727  0.00  0.00    +0.000 HD
BRANCH  17  24
ATOM     23  C   UNL     1       5.333   3.671  12.763  0.00  0.00    +0.000 C 
ATOM     24  C   UNL     1       6.729   3.914  13.334  0.00  0.00    +0.000 C 
ATOM     25  C   UNL     1       7.484   4.951  12.506  0.00  0.00    +0.000 C 
ENDBRANCH  17  24
ENDBRANCH  16  19
ENDBRANCH  14  16
ENDBRANCH   1  14
TORSDOF 5
ENDMDL
MODEL 9
REMARK VINA RESULT:      -7.5      2.313      3.534
REMARK  Name = 
REMARK  8 active torsions:
REMARK  status: ('A' for Active; 'I' for Inactive)
REMARK    1  A    between atoms: C_1  and  C_2
REMARK    2  A    between atoms: C_2  and  C_3
REMARK    3  A    between atoms: C_2  and  C_4
REMARK    4  A    between atoms: C_6  and  C_7
REMARK    5  A    between atoms: C_7  and  N_8
REMARK    6  A    between atoms: N_8  and  S_9
REMARK    7  A    between atoms: S_9  and  C_12
REMARK    8  A    between atoms: N_16  and  C_17
REMARK                            x       y       z     vdW  Elec       q    Type
REMARK                         _______ _______ _______ _____ _____    ______ ____
ROOT
ATOM      1  S   UNL     1       5.212   6.021  16.957  0.00  0.00    +0.000 S 
ATOM      2  O   UNL     1       6.193   6.562  17.870  0.00  0.00    +0.000 OA
ATOM      3  O   UNL     1       4.771   6.748  15.787  0.00  0.00    +0.000 OA
ENDROOT
BRANCH   1   4
ATOM      4  C   UNL     1       3.787   5.729  17.950  0.00  0.00    +0.000 A 
ATOM      5  C   UNL     1       3.344   4.564  18.553  0.00  0.00    +0.000 A 
ATOM      6  C   UNL     1       2.157   4.901  19.228  0.00  0.00    +0.000 A 
ATOM      7  N   UNL     1       1.833   6.181  19.056  0.00  0.00    +0.000 NA
ATOM      8  N   UNL     1       2.852   6.675  18.307  0.00  0.00    +0.000 N 
ATOM      9  C   UNL     1       2.827   8.082  17.974  0.00  0.00    +0.000 C 
ATOM     10  C   UNL     1       1.341   3.927  20.007  0.00  0.00    +0.000 C 
ATOM     11  C   UNL     1       2.134   2.628  20.261  0.00  0.00    +0.000 C 
ATOM     12  C   UNL     1       2.910   2.163  19.014  0.00  0.00    +0.000 C 
ATOM     13  C   UNL     1       3.947   3.208  18.574  0.00  0.00    +0.000 C 
ENDBRANCH   1   4
BRANCH   1  14
ATOM     14  N   UNL     1       5.760   4.514  16.462  0.00  0.00    +0.000 NA
ATOM     15  H   UNL     1       5.687   3.822  17.212  0.00  0.00    +0.000 HD
BRANCH  14  16
ATOM     16  C   UNL     1       7.105   4.520  15.869  0.00  0.00    +0.000 C 
BRANCH  16  19
ATOM     17  C   UNL     1       6.331   3.660  12.477  0.00  0.00    +0.000 A 
ATOM     18  N   UNL     1       6.135   3.527  13.776  0.00  0.00    +0.000 NA
ATOM     19  C   UNL     1       6.993   4.425  14.383  0.00  0.00    +0.000 A 
ATOM     20  C   UNL     1       7.704   5.117  13.426  0.00  0.00    +0.000 A 
ATOM     21  N   UNL     1       7.280   4.621  12.228  0.00  0.00    +0.000 N 
ATOM     22  H   UNL     1       7.607   4.902  11.313  0.00  0.00    +0.000 HD
BRANCH  17  24
ATOM     23  C   UNL     1       5.961   1.426  11.420  0.00  0.00    +0.000 C 
ATOM     24  C   UNL     1       5.646   2.920  11.365  0.00  0.00    +0.000 C 
ATOM     25  C   UNL     1       4.140   3.162  11.413  0.00  0.00    +0.000 C 
ENDBRANCH  17  24
ENDBRANCH  16  19
ENDBRANCH  14  16
ENDBRANCH   1  14
TORSDOF 5
ENDMDL
