MODEL 1
REMARK VINA RESULT:      -9.5      0.000      0.000
REMARK  Name = 
REMARK  5 active torsions:
REMARK  status: ('A' for Active; 'I' for Inactive)
REMARK    1  A    between atoms: C_2  and  C_3
REMARK    2  A    between atoms: C_3  and  C_4
REMARK    3  A    between atoms: C_7  and  N_8
REMARK    4  A    between atoms: N_8  and  C_9
REMARK    5  A    between atoms: C_16  and  C_17
REMARK                            x       y       z     vdW  Elec       q    Type
REMARK                         _______ _______ _______ _____ _____    ______ ____
ROOT
ATOM      1  C   UNL     1       6.800   6.657  17.102  0.00  0.00    +0.000 A 
ATOM      2  N   UNL     1       7.579   6.535  18.144  0.00  0.00    +0.000 NA
ATOM      3  C   UNL     1       7.047   5.641  18.959  0.00  0.00    +0.000 A 
ATOM      4  N   UNL     1       5.819   5.069  18.856  0.00  0.00    +0.000 NA
ATOM      5  C   UNL     1       4.873   5.660  18.153  0.00  0.00    +0.000 A 
ATOM      6  C   UNL     1       3.531   5.342  18.543  0.00  0.00    +0.000 A 
ATOM      7  C   UNL     1       2.440   6.239  18.699  0.00  0.00    +0.000 A 
ATOM      8  C   UNL     1       2.608   7.601  18.536  0.00  0.00    +0.000 A 
ATOM      9  C   UNL     1       3.951   7.851  17.836  0.00  0.00    +0.000 A 
ATOM     10  C   UNL     1       5.197   6.793  17.442  0.00  0.00    +0.000 A 
ENDROOT
BRANCH   8  11
ATOM     11  C   UNL     1       1.509   8.574  19.300  0.00  0.00    +0.000 A 
ATOM     12  C   UNL     1       0.907   9.673  18.703  0.00  0.00    +0.000 A 
ATOM     13  N   UNL     1       0.242  10.734  19.328  0.00  0.00    +0.000 NA
ATOM     14  C   UNL     1      -0.047  10.720  20.655  0.00  0.00    +0.000 A 
ATOM     15  C   UNL     1      -0.654  11.839  21.293  0.00  0.00    +0.000 A 
ATOM     16  C   UNL     1      -1.184  11.808  22.593  0.00  0.00    +0.000 A 
ATOM     17  C   UNL     1      -1.104  10.622  23.293  0.00  0.00    +0.000 A 
ATOM     18  C   UNL     1      -0.369   9.549  22.732  0.00  0.00    +0.000 A 
ATOM     19  C   UNL     1       0.235   9.579  21.400  0.00  0.00    +0.000 A 
ATOM     20  C   UNL     1       1.112   8.566  20.708  0.00  0.00    +0.000 A 
ENDBRANCH   8  11
BRANCH   1  21
ATOM     21  N   UNL     1       7.448   5.769  15.922  0.00  0.00    +0.000 N 
ATOM     22  H   UNL     1       7.823   5.015  16.510  0.00  0.00    +0.000 HD
BRANCH  21  26
ATOM     23  C   UNL     1       5.435   3.348  12.133  0.00  0.00    +0.000 A 
ATOM     24  C   UNL     1       4.818   3.641  13.412  0.00  0.00    +0.000 A 
ATOM     25  C   UNL     1       5.452   4.400  14.653  0.00  0.00    +0.000 A 
ATOM     26  C   UNL     1       6.779   4.881  14.742  0.00  0.00    +0.000 A 
ATOM     27  C   UNL     1       7.376   4.690  13.442  0.00  0.00    +0.000 A 
ATOM     28  C   UNL     1       6.741   3.933  12.195  0.00  0.00    +0.000 A 
BRANCH  23  29
ATOM     29  C   UNL     1       4.670   2.413  10.709  0.00  0.00    +0.000 C 
BRANCH  29  31
ATOM     30  N   UNL     1       2.754   4.173   9.727  0.00  0.00    +0.000 NA
ATOM     31  C   UNL     1       3.623   3.375  10.172  0.00  0.00    +0.000 C 
ENDBRANCH  29  31
ENDBRANCH  23  29
ENDBRANCH  21  26
ENDBRANCH   1  21
TORSDOF 5
ENDMDL
MODEL 2
REMARK VINA RESULT:      -9.5      1.145      1.250
REMARK  Name = 
REMARK  5 active torsions:
REMARK  status: ('A' for Active; 'I' for Inactive)
REMARK    1  A    between atoms: C_2  and  C_3
REMARK    2  A    between atoms: C_3  and  C_4
REMARK    3  A    between atoms: C_7  and  N_8
REMARK    4  A    between atoms: N_8  and  C_9
REMARK    5  A    between atoms: C_16  and  C_17
REMARK                            x       y       z     vdW  Elec       q    Type
REMARK                         _______ _______ _______ _____ _____    ______ ____
ROOT
ATOM      1  C   UNL     1       6.897   6.871  17.048  0.00  0.00    +0.000 A 
ATOM      2  N   UNL     1       7.690   6.838  18.086  0.00  0.00    +0.000 NA
ATOM      3  C   UNL     1       7.222   5.939  18.936  0.00  0.00    +0.000 A 
ATOM      4  N   UNL     1       6.034   5.285  18.864  0.00  0.00    +0.000 NA
ATOM      5  C   UNL     1       5.047   5.788  18.149  0.00  0.00    +0.000 A 
ATOM      6  C   UNL     1       3.731   5.397  18.562  0.00  0.00    +0.000 A 
ATOM      7  C   UNL     1       2.584   6.225  18.697  0.00  0.00    +0.000 A 
ATOM      8  C   UNL     1       2.661   7.588  18.485  0.00  0.00    +0.000 A 
ATOM      9  C   UNL     1       3.981   7.901  17.765  0.00  0.00    +0.000 A 
ATOM     10  C   UNL     1       5.291   6.914  17.397  0.00  0.00    +0.000 A 
ENDROOT
BRANCH   8  11
ATOM     11  C   UNL     1       1.506   8.514  19.225  0.00  0.00    +0.000 A 
ATOM     12  C   UNL     1       0.795   9.518  18.582  0.00  0.00    +0.000 A 
ATOM     13  N   UNL     1       0.060  10.558  19.163  0.00  0.00    +0.000 NA
ATOM     14  C   UNL     1      -0.188  10.605  20.497  0.00  0.00    +0.000 A 
ATOM     15  C   UNL     1      -0.870  11.708  21.085  0.00  0.00    +0.000 A 
ATOM     16  C   UNL     1      -1.357  11.718  22.402  0.00  0.00    +0.000 A 
ATOM     17  C   UNL     1      -1.156  10.590  23.171  0.00  0.00    +0.000 A 
ATOM     18  C   UNL     1      -0.349   9.548  22.652  0.00  0.00    +0.000 A 
ATOM     19  C   UNL     1       0.212   9.542  21.301  0.00  0.00    +0.000 A 
ATOM     20  C   UNL     1       1.152   8.563  20.643  0.00  0.00    +0.000 A 
ENDBRANCH   8  11
BRANCH   1  21
ATOM     21  N   UNL     1       7.594   5.987  15.894  0.00  0.00    +0.000 N 
ATOM     22  H   UNL     1       8.038   5.291  16.505  0.00  0.00    +0.000 HD
BRANCH  21  26
ATOM     23  C   UNL     1       5.685   3.259  12.263  0.00  0.00    +0.000 A 
ATOM     24  C   UNL     1       5.133   3.462  13.588  0.00  0.00    +0.000 A 
ATOM     25  C   UNL     1       5.739   4.319  14.778  0.00  0.00    +0.000 A 
ATOM     26  C   UNL     1       6.979   4.998  14.766  0.00  0.00    +0.000 A 
ATOM     27  C   UNL     1       7.494   4.892  13.422  0.00  0.00    +0.000 A 
ATOM     28  C   UNL     1       6.887   4.037  12.225  0.00  0.00    +0.000 A 
BRANCH  23  29
ATOM     29  C   UNL     1       4.963   2.207  10.899  0.00  0.00    +0.000 C 
BRANCH  29  31
ATOM     30  N   UNL     1       6.351  -0.192  11.123  0.00  0.00    +0.000 NA
ATOM     31  C   UNL     1       5.721   0.896  11.021  0.00  0.00    +0.000 C 
ENDBRANCH  29  31
ENDBRANCH  23  29
ENDBRANCH  21  26
ENDBRANCH   1  21
TORSDOF 5
ENDMDL
MODEL 3
REMARK VINA RESULT:      -8.7      2.179      3.715
REMARK  Name = 
REMARK  5 active torsions:
REMARK  status: ('A' for Active; 'I' for Inactive)
REMARK    1  A    between atoms: C_2  and  C_3
REMARK    2  A    between atoms: C_3  and  C_4
REMARK    3  A    between atoms: C_7  and  N_8
REMARK    4  A    between atoms: N_8  and  C_9
REMARK    5  A    between atoms: C_16  and  C_17
REMARK                            x       y       z     vdW  Elec       q    Type
REMARK                         _______ _______ _______ _____ _____    ______ ____
ROOT
ATOM      1  C   UNL     1       3.162   4.564  19.794  0.00  0.00    +0.000 A 
ATOM      2  N   UNL     1       2.181   3.749  19.504  0.00  0.00    +0.000 NA
ATOM      3  C   UNL     1       1.554   4.217  18.438  0.00  0.00    +0.000 A 
ATOM      4  N   UNL     1       1.748   5.420  17.838  0.00  0.00    +0.000 NA
ATOM      5  C   UNL     1       2.298   6.411  18.509  0.00  0.00    +0.000 A 
ATOM      6  C   UNL     1       1.956   7.726  18.052  0.00  0.00    +0.000 A 
ATOM      7  C   UNL     1       1.601   8.852  18.844  0.00  0.00    +0.000 A 
ATOM      8  C   UNL     1       1.488   8.752  20.216  0.00  0.00    +0.000 A 
ATOM      9  C   UNL     1       2.148   7.441  20.670  0.00  0.00    +0.000 A 
ATOM     10  C   UNL     1       2.771   6.160  19.777  0.00  0.00    +0.000 A 
ENDROOT
BRANCH   8  11
ATOM     11  C   UNL     1       0.521   9.872  20.959  0.00  0.00    +0.000 A 
ATOM     12  C   UNL     1       0.482  10.064  22.333  0.00  0.00    +0.000 A 
ATOM     13  N   UNL     1      -0.502  10.720  23.081  0.00  0.00    +0.000 NA
ATOM     14  C   UNL     1      -1.503  11.424  22.492  0.00  0.00    +0.000 A 
ATOM     15  C   UNL     1      -2.541  12.022  23.262  0.00  0.00    +0.000 A 
ATOM     16  C   UNL     1      -3.467  12.944  22.748  0.00  0.00    +0.000 A 
ATOM     17  C   UNL     1      -3.365  13.285  21.415  0.00  0.00    +0.000 A 
ATOM     18  C   UNL     1      -2.437  12.587  20.604  0.00  0.00    +0.000 A 
ATOM     19  C   UNL     1      -1.499  11.585  21.110  0.00  0.00    +0.000 A 
ATOM     20  C   UNL     1      -0.528  10.701  20.368  0.00  0.00    +0.000 A 
ENDBRANCH   8  11
BRANCH   1  21
ATOM     21  N   UNL     1       4.509   3.909  19.196  0.00  0.00    +0.000 N 
ATOM     22  H   UNL     1       4.168   2.944  19.118  0.00  0.00    +0.000 HD
BRANCH  21  26
ATOM     23  C   UNL     1       6.756   4.684  14.881  0.00  0.00    +0.000 A 
ATOM     24  C   UNL     1       5.393   4.237  15.090  0.00  0.00    +0.000 A 
ATOM     25  C   UNL     1       4.655   3.961  16.467  0.00  0.00    +0.000 A 
ATOM     26  C   UNL     1       5.235   4.053  17.753  0.00  0.00    +0.000 A 
ATOM     27  C   UNL     1       6.560   4.596  17.571  0.00  0.00    +0.000 A 
ATOM     28  C   UNL     1       7.302   4.877  16.192  0.00  0.00    +0.000 A 
BRANCH  23  29
ATOM     29  C   UNL     1       7.606   4.957  13.241  0.00  0.00    +0.000 C 
BRANCH  29  31
ATOM     30  N   UNL     1       6.584   2.932  11.632  0.00  0.00    +0.000 NA
ATOM     31  C   UNL     1       7.047   3.850  12.361  0.00  0.00    +0.000 C 
ENDBRANCH  29  31
ENDBRANCH  23  29
ENDBRANCH  21  26
ENDBRANCH   1  21
TORSDOF 5
ENDMDL
MODEL 4
REMARK VINA RESULT:      -8.5      3.547     10.856
REMARK  Name = 
REMARK  5 active torsions:
REMARK  status: ('A' for Active; 'I' for Inactive)
REMARK    1  A    between atoms: C_2  and  C_3
REMARK    2  A    between atoms: C_3  and  C_4
REMARK    3  A    between atoms: C_7  and  N_8
REMARK    4  A    between atoms: N_8  and  C_9
REMARK    5  A    between atoms: C_16  and  C_17
REMARK                            x       y       z     vdW  Elec       q    Type
REMARK                         _______ _______ _______ _____ _____    ______ ____
ROOT
ATOM      1  C   UNL     1      -0.532  11.649  21.638  0.00  0.00    +0.000 A 
ATOM      2  N   UNL     1       0.349  12.536  22.017  0.00  0.00    +0.000 NA
ATOM      3  C   UNL     1       0.910  13.051  20.936  0.00  0.00    +0.000 A 
ATOM      4  N   UNL     1       0.758  12.627  19.655  0.00  0.00    +0.000 NA
ATOM      5  C   UNL     1       0.353  11.397  19.411  0.00  0.00    +0.000 A 
ATOM      6  C   UNL     1       0.755  10.860  18.145  0.00  0.00    +0.000 A 
ATOM      7  C   UNL     1       1.271   9.562  17.880  0.00  0.00    +0.000 A 
ATOM      8  C   UNL     1       1.502   8.664  18.904  0.00  0.00    +0.000 A 
ATOM      9  C   UNL     1       0.785   9.163  20.167  0.00  0.00    +0.000 A 
ATOM     10  C   UNL     1      -0.018  10.607  20.475  0.00  0.00    +0.000 A 
ENDROOT
BRANCH   8  11
ATOM     11  C   UNL     1       2.619   7.480  18.606  0.00  0.00    +0.000 A 
ATOM     12  C   UNL     1       2.827   6.389  19.440  0.00  0.00    +0.000 A 
ATOM     13  N   UNL     1       3.931   5.531  19.473  0.00  0.00    +0.000 NA
ATOM     14  C   UNL     1       4.904   5.574  18.526  0.00  0.00    +0.000 A 
ATOM     15  C   UNL     1       6.060   4.747  18.614  0.00  0.00    +0.000 A 
ATOM     16  C   UNL     1       6.982   4.574  17.569  0.00  0.00    +0.000 A 
ATOM     17  C   UNL     1       6.753   5.252  16.390  0.00  0.00    +0.000 A 
ATOM     18  C   UNL     1       5.695   6.193  16.340  0.00  0.00    +0.000 A 
ATOM     19  C   UNL     1       4.755   6.425  17.436  0.00  0.00    +0.000 A 
ATOM     20  C   UNL     1       3.648   7.442  17.568  0.00  0.00    +0.000 A 
ENDBRANCH   8  11
BRANCH   1  21
ATOM     21  N   UNL     1      -1.976  12.362  21.704  0.00  0.00    +0.000 N 
ATOM     22  H   UNL     1      -1.647  13.335  21.719  0.00  0.00    +0.000 HD
BRANCH  21  26
ATOM     23  C   UNL     1      -5.794  12.597  18.599  0.00  0.00    +0.000 A 
ATOM     24  C   UNL     1      -4.508  11.973  18.359  0.00  0.00    +0.000 A 
ATOM     25  C   UNL     1      -3.258  11.902  19.335  0.00  0.00    +0.000 A 
ATOM     26  C   UNL     1      -3.167  12.501  20.612  0.00  0.00    +0.000 A 
ATOM     27  C   UNL     1      -4.473  13.039  20.910  0.00  0.00    +0.000 A 
ATOM     28  C   UNL     1      -5.729  13.108  19.935  0.00  0.00    +0.000 A 
BRANCH  23  29
ATOM     29  C   UNL     1      -7.229  12.698  17.408  0.00  0.00    +0.000 C 
BRANCH  29  31
ATOM     30  N   UNL     1      -6.828  15.122  16.106  0.00  0.00    +0.000 NA
ATOM     31  C   UNL     1      -7.009  14.023  16.697  0.00  0.00    +0.000 C 
ENDBRANCH  29  31
ENDBRANCH  23  29
ENDBRANCH  21  26
ENDBRANCH   1  21
TORSDOF 5
ENDMDL
MODEL 5
REMARK VINA RESULT:      -8.2      1.937      3.558
REMARK  Name = 
REMARK  5 active torsions:
REMARK  status: ('A' for Active; 'I' for Inactive)
REMARK    1  A    between atoms: C_2  and  C_3
REMARK    2  A    between atoms: C_3  and  C_4
REMARK    3  A    between atoms: C_7  and  N_8
REMARK    4  A    between atoms: N_8  and  C_9
REMARK    5  A    between atoms: C_16  and  C_17
REMARK                            x       y       z     vdW  Elec       q    Type
REMARK                         _______ _______ _______ _____ _____    ______ ____
ROOT
ATOM      1  C   UNL     1       3.264   5.394  19.854  0.00  0.00    +0.000 A 
ATOM      2  N   UNL     1       2.431   4.416  19.612  0.00  0.00    +0.000 NA
ATOM      3  C   UNL     1       1.821   4.665  18.465  0.00  0.00    +0.000 A 
ATOM      4  N   UNL     1       1.885   5.810  17.737  0.00  0.00    +0.000 NA
ATOM      5  C   UNL     1       2.242   6.940  18.314  0.00  0.00    +0.000 A 
ATOM      6  C   UNL     1       1.751   8.131  17.685  0.00  0.00    +0.000 A 
ATOM      7  C   UNL     1       1.185   9.272  18.315  0.00  0.00    +0.000 A 
ATOM      8  C   UNL     1       0.991   9.308  19.682  0.00  0.00    +0.000 A 
ATOM      9  C   UNL     1       1.795   8.168  20.324  0.00  0.00    +0.000 A 
ATOM     10  C   UNL     1       2.654   6.903  19.626  0.00  0.00    +0.000 A 
ENDROOT
BRANCH   8  11
ATOM     11  C   UNL     1      -0.174  10.348  20.232  0.00  0.00    +0.000 A 
ATOM     12  C   UNL     1      -1.098  10.975  19.408  0.00  0.00    +0.000 A 
ATOM     13  N   UNL     1      -1.887  12.094  19.697  0.00  0.00    +0.000 NA
ATOM     14  C   UNL     1      -1.958  12.621  20.946  0.00  0.00    +0.000 A 
ATOM     15  C   UNL     1      -2.703  13.805  21.210  0.00  0.00    +0.000 A 
ATOM     16  C   UNL     1      -3.006  14.271  22.499  0.00  0.00    +0.000 A 
ATOM     17  C   UNL     1      -2.547  13.536  23.573  0.00  0.00    +0.000 A 
ATOM     18  C   UNL     1      -1.678  12.444  23.330  0.00  0.00    +0.000 A 
ATOM     19  C   UNL     1      -1.309  11.975  21.994  0.00  0.00    +0.000 A 
ATOM     20  C   UNL     1      -0.337  10.900  21.577  0.00  0.00    +0.000 A 
ENDBRANCH   8  11
BRANCH   1  21
ATOM     21  N   UNL     1       4.728   4.884  19.413  0.00  0.00    +0.000 N 
ATOM     22  H   UNL     1       4.609   3.895  19.661  0.00  0.00    +0.000 HD
BRANCH  21  26
ATOM     23  C   UNL     1       6.718   4.678  14.910  0.00  0.00    +0.000 A 
ATOM     24  C   UNL     1       5.684   3.818  15.450  0.00  0.00    +0.000 A 
ATOM     25  C   UNL     1       5.042   3.853  16.901  0.00  0.00    +0.000 A 
ATOM     26  C   UNL     1       5.422   4.712  17.957  0.00  0.00    +0.000 A 
ATOM     27  C   UNL     1       6.379   5.643  17.408  0.00  0.00    +0.000 A 
ATOM     28  C   UNL     1       7.021   5.614  15.952  0.00  0.00    +0.000 A 
BRANCH  23  29
ATOM     29  C   UNL     1       7.480   4.580  13.208  0.00  0.00    +0.000 C 
BRANCH  29  31
ATOM     30  N   UNL     1       5.776   2.869  11.829  0.00  0.00    +0.000 NA
ATOM     31  C   UNL     1       6.549   3.645  12.454  0.00  0.00    +0.000 C 
ENDBRANCH  29  31
ENDBRANCH  23  29
ENDBRANCH  21  26
ENDBRANCH   1  21
TORSDOF 5
ENDMDL
MODEL 6
REMARK VINA RESULT:      -8.2      1.105      1.729
REMARK  Name = 
REMARK  5 active torsions:
REMARK  status: ('A' for Active; 'I' for Inactive)
REMARK    1  A    between atoms: C_2  and  C_3
REMARK    2  A    between atoms: C_3  and  C_4
REMARK    3  A    between atoms: C_7  and  N_8
REMARK    4  A    between atoms: N_8  and  C_9
REMARK    5  A    between atoms: C_16  and  C_17
REMARK                            x       y       z     vdW  Elec       q    Type
REMARK                         _______ _______ _______ _____ _____    ______ ____
ROOT
ATOM      1  C   UNL     1       6.852   6.541  17.108  0.00  0.00    +0.000 A 
ATOM      2  N   UNL     1       7.503   6.281  18.211  0.00  0.00    +0.000 NA
ATOM      3  C   UNL     1       6.767   5.461  18.943  0.00  0.00    +0.000 A 
ATOM      4  N   UNL     1       5.483   5.085  18.709  0.00  0.00    +0.000 NA
ATOM      5  C   UNL     1       4.708   5.827  17.944  0.00  0.00    +0.000 A 
ATOM      6  C   UNL     1       3.302   5.708  18.199  0.00  0.00    +0.000 A 
ATOM      7  C   UNL     1       2.347   6.757  18.287  0.00  0.00    +0.000 A 
ATOM      8  C   UNL     1       2.731   8.081  18.188  0.00  0.00    +0.000 A 
ATOM      9  C   UNL     1       4.157   8.139  17.622  0.00  0.00    +0.000 A 
ATOM     10  C   UNL     1       5.263   6.912  17.306  0.00  0.00    +0.000 A 
ENDROOT
BRANCH   8  11
ATOM     11  C   UNL     1       1.722   9.193  18.883  0.00  0.00    +0.000 A 
ATOM     12  C   UNL     1       0.964   8.942  20.019  0.00  0.00    +0.000 A 
ATOM     13  N   UNL     1      -0.141   9.659  20.490  0.00  0.00    +0.000 NA
ATOM     14  C   UNL     1      -0.514  10.846  19.946  0.00  0.00    +0.000 A 
ATOM     15  C   UNL     1      -1.685  11.527  20.384  0.00  0.00    +0.000 A 
ATOM     16  C   UNL     1      -2.001  12.849  20.032  0.00  0.00    +0.000 A 
ATOM     17  C   UNL     1      -1.124  13.524  19.209  0.00  0.00    +0.000 A 
ATOM     18  C   UNL     1      -0.037  12.813  18.644  0.00  0.00    +0.000 A 
ATOM     19  C   UNL     1       0.279  11.419  18.956  0.00  0.00    +0.000 A 
ATOM     20  C   UNL     1       1.333  10.508  18.376  0.00  0.00    +0.000 A 
ENDBRANCH   8  11
BRANCH   1  21
ATOM     21  N   UNL     1       7.470   5.591  15.961  0.00  0.00    +0.000 N 
ATOM     22  H   UNL     1       7.752   4.811  16.568  0.00  0.00    +0.000 HD
BRANCH  21  26
ATOM     23  C   UNL     1       5.373   3.339  12.114  0.00  0.00    +0.000 A 
ATOM     24  C   UNL     1       4.792   3.557  13.424  0.00  0.00    +0.000 A 
ATOM     25  C   UNL     1       5.454   4.261  14.682  0.00  0.00    +0.000 A 
ATOM     26  C   UNL     1       6.776   4.754  14.758  0.00  0.00    +0.000 A 
ATOM     27  C   UNL     1       7.336   4.639  13.432  0.00  0.00    +0.000 A 
ATOM     28  C   UNL     1       6.673   3.938  12.167  0.00  0.00    +0.000 A 
BRANCH  23  29
ATOM     29  C   UNL     1       4.577   2.468  10.667  0.00  0.00    +0.000 C 
BRANCH  29  31
ATOM     30  N   UNL     1       2.767   4.341   9.692  0.00  0.00    +0.000 NA
ATOM     31  C   UNL     1       3.588   3.491  10.134  0.00  0.00    +0.000 C 
ENDBRANCH  29  31
ENDBRANCH  23  29
ENDBRANCH  21  26
ENDBRANCH   1  21
TORSDOF 5
ENDMDL
MODEL 7
REMARK VINA RESULT:      -7.9      1.708      2.351
REMARK  Name = 
REMARK  5 active torsions:
REMARK  status: ('A' for Active; 'I' for Inactive)
REMARK    1  A    between atoms: C_2  and  C_3
REMARK    2  A    between atoms: C_3  and  C_4
REMARK    3  A    between atoms: C_7  and  N_8
REMARK    4  A    between atoms: N_8  and  C_9
REMARK    5  A    between atoms: C_16  and  C_17
REMARK                            x       y       z     vdW  Elec       q    Type
REMARK                         _______ _______ _______ _____ _____    ______ ____
ROOT
ATOM      1  C   UNL     1       6.714   6.757  17.178  0.00  0.00    +0.000 A 
ATOM      2  N   UNL     1       7.285   6.585  18.341  0.00  0.00    +0.000 NA
ATOM      3  C   UNL     1       6.516   5.791  19.067  0.00  0.00    +0.000 A 
ATOM      4  N   UNL     1       5.262   5.365  18.763  0.00  0.00    +0.000 NA
ATOM      5  C   UNL     1       4.530   6.034  17.897  0.00  0.00    +0.000 A 
ATOM      6  C   UNL     1       3.112   5.892  18.053  0.00  0.00    +0.000 A 
ATOM      7  C   UNL     1       2.128   6.916  18.002  0.00  0.00    +0.000 A 
ATOM      8  C   UNL     1       2.486   8.241  17.847  0.00  0.00    +0.000 A 
ATOM      9  C   UNL     1       3.950   8.305  17.386  0.00  0.00    +0.000 A 
ATOM     10  C   UNL     1       5.106   7.094  17.233  0.00  0.00    +0.000 A 
ENDROOT
BRANCH   8  11
ATOM     11  C   UNL     1       1.401   9.365  18.391  0.00  0.00    +0.000 A 
ATOM     12  C   UNL     1       1.568  10.095  19.561  0.00  0.00    +0.000 A 
ATOM     13  N   UNL     1       0.599  10.804  20.278  0.00  0.00    +0.000 NA
ATOM     14  C   UNL     1      -0.653  11.003  19.791  0.00  0.00    +0.000 A 
ATOM     15  C   UNL     1      -1.653  11.659  20.564  0.00  0.00    +0.000 A 
ATOM     16  C   UNL     1      -2.882  12.098  20.046  0.00  0.00    +0.000 A 
ATOM     17  C   UNL     1      -3.134  11.874  18.709  0.00  0.00    +0.000 A 
ATOM     18  C   UNL     1      -2.218  11.090  17.965  0.00  0.00    +0.000 A 
ATOM     19  C   UNL     1      -0.956  10.579  18.501  0.00  0.00    +0.000 A 
ATOM     20  C   UNL     1       0.067   9.667  17.872  0.00  0.00    +0.000 A 
ENDBRANCH   8  11
BRANCH   1  21
ATOM     21  N   UNL     1       7.440   5.755  16.145  0.00  0.00    +0.000 N 
ATOM     22  H   UNL     1       7.519   4.946  16.772  0.00  0.00    +0.000 HD
BRANCH  21  26
ATOM     23  C   UNL     1       5.872   3.175  12.251  0.00  0.00    +0.000 A 
ATOM     24  C   UNL     1       7.038   4.034  12.320  0.00  0.00    +0.000 A 
ATOM     25  C   UNL     1       7.551   4.889  13.554  0.00  0.00    +0.000 A 
ATOM     26  C   UNL     1       6.909   5.005  14.809  0.00  0.00    +0.000 A 
ATOM     27  C   UNL     1       5.803   4.077  14.793  0.00  0.00    +0.000 A 
ATOM     28  C   UNL     1       5.289   3.215  13.559  0.00  0.00    +0.000 A 
BRANCH  23  29
ATOM     29  C   UNL     1       5.275   2.216  10.764  0.00  0.00    +0.000 C 
BRANCH  29  31
ATOM     30  N   UNL     1       6.245  -0.352  11.213  0.00  0.00    +0.000 NA
ATOM     31  C   UNL     1       5.805   0.813  11.010  0.00  0.00    +0.000 C 
ENDBRANCH  29  31
ENDBRANCH  23  29
ENDBRANCH  21  26
ENDBRANCH   1  21
TORSDOF 5
ENDMDL
MODEL 8
REMARK VINA RESULT:      -7.8      2.346      4.183
REMARK  Name = 
REMARK  5 active torsions:
REMARK  status: ('A' for Active; 'I' for Inactive)
REMARK    1  A    between atoms: C_2  and  C_3
REMARK    2  A    between atoms: C_3  and  C_4
REMARK    3  A    between atoms: C_7  and  N_8
REMARK    4  A    between atoms: N_8  and  C_9
REMARK    5  A    between atoms: C_16  and  C_17
REMARK                            x       y       z     vdW  Elec       q    Type
REMARK                         _______ _______ _______ _____ _____    ______ ____
ROOT
ATOM      1  C   UNL     1       2.915   5.606  19.732  0.00  0.00    +0.000 A 
ATOM      2  N   UNL     1       2.026   4.772  19.261  0.00  0.00    +0.000 NA
ATOM      3  C   UNL     1       1.517   5.289  18.155  0.00  0.00    +0.000 A 
ATOM      4  N   UNL     1       1.721   6.542  17.669  0.00  0.00    +0.000 NA
ATOM      5  C   UNL     1       2.125   7.504  18.473  0.00  0.00    +0.000 A 
ATOM      6  C   UNL     1       1.773   8.832  18.065  0.00  0.00    +0.000 A 
ATOM      7  C   UNL     1       1.257   9.879  18.876  0.00  0.00    +0.000 A 
ATOM      8  C   UNL     1       0.973   9.671  20.212  0.00  0.00    +0.000 A 
ATOM      9  C   UNL     1       1.640   8.362  20.660  0.00  0.00    +0.000 A 
ATOM     10  C   UNL     1       2.442   7.181  19.773  0.00  0.00    +0.000 A 
ENDROOT
BRANCH   8  11
ATOM     11  C   UNL     1      -0.141  10.687  20.894  0.00  0.00    +0.000 A 
ATOM     12  C   UNL     1      -0.374  10.770  22.260  0.00  0.00    +0.000 A 
ATOM     13  N   UNL     1      -1.482  11.323  22.911  0.00  0.00    +0.000 NA
ATOM     14  C   UNL     1      -2.430  12.028  22.243  0.00  0.00    +0.000 A 
ATOM     15  C   UNL     1      -3.592  12.519  22.905  0.00  0.00    +0.000 A 
ATOM     16  C   UNL     1      -4.488  13.439  22.337  0.00  0.00    +0.000 A 
ATOM     17  C   UNL     1      -4.226  13.887  21.059  0.00  0.00    +0.000 A 
ATOM     18  C   UNL     1      -3.164  13.295  20.333  0.00  0.00    +0.000 A 
ATOM     19  C   UNL     1      -2.251  12.297  20.890  0.00  0.00    +0.000 A 
ATOM     20  C   UNL     1      -1.144  11.516  20.226  0.00  0.00    +0.000 A 
ENDBRANCH   8  11
BRANCH   1  21
ATOM     21  N   UNL     1       4.362   5.060  19.276  0.00  0.00    +0.000 N 
ATOM     22  H   UNL     1       4.237   4.084  19.568  0.00  0.00    +0.000 HD
BRANCH  21  26
ATOM     23  C   UNL     1       6.088   4.511  14.694  0.00  0.00    +0.000 A 
ATOM     24  C   UNL     1       5.628   3.466  15.587  0.00  0.00    +0.000 A 
ATOM     25  C   UNL     1       5.088   3.616  17.072  0.00  0.00    +0.000 A 
ATOM     26  C   UNL     1       5.016   4.819  17.811  0.00  0.00    +0.000 A 
ATOM     27  C   UNL     1       5.372   5.884  16.904  0.00  0.00    +0.000 A 
ATOM     28  C   UNL     1       5.910   5.737  15.414  0.00  0.00    +0.000 A 
BRANCH  23  29
ATOM     29  C   UNL     1       6.758   4.291  12.965  0.00  0.00    +0.000 C 
BRANCH  29  31
ATOM     30  N   UNL     1       8.900   6.063  12.866  0.00  0.00    +0.000 NA
ATOM     31  C   UNL     1       7.928   5.259  12.911  0.00  0.00    +0.000 C 
ENDBRANCH  29  31
ENDBRANCH  23  29
ENDBRANCH  21  26
ENDBRANCH   1  21
TORSDOF 5
ENDMDL
MODEL 9
REMARK VINA RESULT:      -7.8      4.506     10.174
REMARK  Name = 
REMARK  5 active torsions:
REMARK  status: ('A' for Active; 'I' for Inactive)
REMARK    1  A    between atoms: C_2  and  C_3
REMARK    2  A    between atoms: C_3  and  C_4
REMARK    3  A    between atoms: C_7  and  N_8
REMARK    4  A    between atoms: N_8  and  C_9
REMARK    5  A    between atoms: C_16  and  C_17
REMARK                            x       y       z     vdW  Elec       q    Type
REMARK                         _______ _______ _______ _____ _____    ______ ____
ROOT
ATOM      1  C   UNL     1       0.208  12.221  18.735  0.00  0.00    +0.000 A 
ATOM      2  N   UNL     1      -1.090  12.182  18.591  0.00  0.00    +0.000 NA
ATOM      3  C   UNL     1      -1.620  11.749  19.723  0.00  0.00    +0.000 A 
ATOM      4  N   UNL     1      -0.956  11.248  20.798  0.00  0.00    +0.000 NA
ATOM      5  C   UNL     1       0.261  10.765  20.654  0.00  0.00    +0.000 A 
ATOM      6  C   UNL     1       0.648   9.782  21.623  0.00  0.00    +0.000 A 
ATOM      7  C   UNL     1       1.325   8.554  21.387  0.00  0.00    +0.000 A 
ATOM      8  C   UNL     1       1.636   8.146  20.105  0.00  0.00    +0.000 A 
ATOM      9  C   UNL     1       1.482   9.344  19.156  0.00  0.00    +0.000 A 
ATOM     10  C   UNL     1       0.874  10.888  19.428  0.00  0.00    +0.000 A 
ENDROOT
BRANCH   8  11
ATOM     11  C   UNL     1       1.848   6.520  19.881  0.00  0.00    +0.000 A 
ATOM     12  C   UNL     1       1.811   5.590  20.910  0.00  0.00    +0.000 A 
ATOM     13  N   UNL     1       2.293   4.276  20.899  0.00  0.00    +0.000 NA
ATOM     14  C   UNL     1       2.727   3.679  19.759  0.00  0.00    +0.000 A 
ATOM     15  C   UNL     1       3.286   2.370  19.775  0.00  0.00    +0.000 A 
ATOM     16  C   UNL     1       3.540   1.611  18.621  0.00  0.00    +0.000 A 
ATOM     17  C   UNL     1       3.232   2.174  17.400  0.00  0.00    +0.000 A 
ATOM     18  C   UNL     1       2.819   3.529  17.359  0.00  0.00    +0.000 A 
ATOM     19  C   UNL     1       2.599   4.352  18.548  0.00  0.00    +0.000 A 
ATOM     20  C   UNL     1       2.253   5.816  18.665  0.00  0.00    +0.000 A 
ENDBRANCH   8  11
BRANCH   1  21
ATOM     21  N   UNL     1       0.601  13.753  19.050  0.00  0.00    +0.000 N 
ATOM     22  H   UNL     1       0.467  13.721  20.068  0.00  0.00    +0.000 HD
BRANCH  21  26
ATOM     23  C   UNL     1       4.850  16.241  19.205  0.00  0.00    +0.000 A 
ATOM     24  C   UNL     1       3.701  16.523  18.367  0.00  0.00    +0.000 A 
ATOM     25  C   UNL     1       2.332  15.725  18.286  0.00  0.00    +0.000 A 
ATOM     26  C   UNL     1       2.016  14.542  18.992  0.00  0.00    +0.000 A 
ATOM     27  C   UNL     1       3.108  14.304  19.907  0.00  0.00    +0.000 A 
ATOM     28  C   UNL     1       4.480  15.104  19.994  0.00  0.00    +0.000 A 
BRANCH  23  29
ATOM     29  C   UNL     1       6.465  17.179  19.243  0.00  0.00    +0.000 C 
BRANCH  29  31
ATOM     30  N   UNL     1       8.185  15.577  17.758  0.00  0.00    +0.000 NA
ATOM     31  C   UNL     1       7.405  16.303  18.431  0.00  0.00    +0.000 C 
ENDBRANCH  29  31
ENDBRANCH  23  29
ENDBRANCH  21  26
ENDBRANCH   1  21
TORSDOF 5
ENDMDL
