MODEL 1
REMARK VINA RESULT:      -7.9      0.000      0.000
REMARK  Name = 
REMARK  6 active torsions:
REMARK  status: ('A' for Active; 'I' for Inactive)
REMARK    1  A    between atoms: C_1  and  N_2
REMARK    2  A    between atoms: C_5  and  C_6
REMARK    3  A    between atoms: C_8  and  C_9
REMARK    4  A    between atoms: N_14  and  C_15
REMARK    5  A    between atoms: C_18  and  S_19
REMARK    6  A    between atoms: S_19  and  N_20
REMARK                            x       y       z     vdW  Elec       q    Type
REMARK                         _______ _______ _______ _____ _____    ______ ____
ROOT
ATOM      1  C   UNL     1       2.511   6.170  18.311  0.00  0.00    +0.000 C 
ATOM      2  O   UNL     1       2.308   4.720  18.262  0.00  0.00    +0.000 OA
ATOM      3  C   UNL     1       1.960   4.380  19.592  0.00  0.00    +0.000 C 
ATOM      4  C   UNL     1       1.797   5.454  20.369  0.00  0.00    +0.000 C 
ATOM      5  N   UNL     1       2.059   6.596  19.655  0.00  0.00    +0.000 N 
ENDROOT
BRANCH   1  10
ATOM      6  C   UNL     1       7.456   4.996  15.808  0.00  0.00    +0.000 C 
ATOM      7  N   UNL     1       6.242   5.397  16.523  0.00  0.00    +0.000 N 
ATOM      8  C   UNL     1       5.976   4.926  17.801  0.00  0.00    +0.000 C 
ATOM      9  C   UNL     1       4.969   5.384  18.559  0.00  0.00    +0.000 C 
ATOM     10  C   UNL     1       4.024   6.478  18.061  0.00  0.00    +0.000 C 
ATOM     11  C   UNL     1       4.297   6.811  16.595  0.00  0.00    +0.000 C 
ATOM     12  C   UNL     1       5.347   6.284  15.943  0.00  0.00    +0.000 C 
ENDBRANCH   1  10
BRANCH   5  13
ATOM     13  C   UNL     1       1.694   7.889  20.025  0.00  0.00    +0.000 A 
ATOM     14  C   UNL     1       1.378   8.183  21.368  0.00  0.00    +0.000 A 
ATOM     15  C   UNL     1       0.915   9.438  21.769  0.00  0.00    +0.000 A 
ATOM     16  C   UNL     1       0.763  10.445  20.824  0.00  0.00    +0.000 A 
ATOM     17  C   UNL     1       1.085  10.205  19.488  0.00  0.00    +0.000 A 
ATOM     18  C   UNL     1       1.563   8.941  19.101  0.00  0.00    +0.000 A 
BRANCH  16  19
ATOM     19  S   UNL     1       0.091  12.001  21.321  0.00  0.00    +0.000 S 
ATOM     20  O   UNL     1       1.164  12.943  21.506  0.00  0.00    +0.000 OA
ATOM     21  O   UNL     1      -1.072  12.295  20.517  0.00  0.00    +0.000 OA
BRANCH  19  22
ATOM     22  N   UNL     1      -0.487  11.647  22.857  0.00  0.00    +0.000 NA
ATOM     23  H   UNL     1      -1.020  10.777  22.830  0.00  0.00    +0.000 HD
ATOM     24  H   UNL     1       0.285  11.638  23.523  0.00  0.00    +0.000 HD
ENDBRANCH  19  22
ENDBRANCH  16  19
ENDBRANCH   5  13
BRANCH   3  25
ATOM     25  C   UNL     1       1.843   2.932  19.986  0.00  0.00    +0.000 C 
ATOM     26 CL   UNL     1       1.337   2.722  21.688  0.00  0.00    +0.000 Cl
ATOM     27 CL   UNL     1       0.621   2.136  18.935  0.00  0.00    +0.000 Cl
ATOM     28 CL   UNL     1       3.418   2.104  19.763  0.00  0.00    +0.000 Cl
ENDBRANCH   3  25
TORSDOF 5
ENDMDL
MODEL 2
REMARK VINA RESULT:      -7.9      0.610      1.149
REMARK  Name = 
REMARK  6 active torsions:
REMARK  status: ('A' for Active; 'I' for Inactive)
REMARK    1  A    between atoms: C_1  and  N_2
REMARK    2  A    between atoms: C_5  and  C_6
REMARK    3  A    between atoms: C_8  and  C_9
REMARK    4  A    between atoms: N_14  and  C_15
REMARK    5  A    between atoms: C_18  and  S_19
REMARK    6  A    between atoms: S_19  and  N_20
REMARK                            x       y       z     vdW  Elec       q    Type
REMARK                         _______ _______ _______ _____ _____    ______ ____
ROOT
ATOM      1  C   UNL     1       2.575   6.198  18.268  0.00  0.00    +0.000 C 
ATOM      2  O   UNL     1       2.360   4.753  18.161  0.00  0.00    +0.000 OA
ATOM      3  C   UNL     1       1.927   4.377  19.457  0.00  0.00    +0.000 C 
ATOM      4  C   UNL     1       1.728   5.430  20.255  0.00  0.00    +0.000 C 
ATOM      5  N   UNL     1       2.046   6.589  19.595  0.00  0.00    +0.000 N 
ENDROOT
BRANCH   1  10
ATOM      6  C   UNL     1       7.908   4.448  17.494  0.00  0.00    +0.000 C 
ATOM      7  N   UNL     1       6.579   5.025  17.711  0.00  0.00    +0.000 N 
ATOM      8  C   UNL     1       6.093   5.241  18.992  0.00  0.00    +0.000 C 
ATOM      9  C   UNL     1       4.959   5.910  19.247  0.00  0.00    +0.000 C 
ATOM     10  C   UNL     1       4.104   6.496  18.121  0.00  0.00    +0.000 C 
ATOM     11  C   UNL     1       4.633   6.067  16.754  0.00  0.00    +0.000 C 
ATOM     12  C   UNL     1       5.790   5.396  16.631  0.00  0.00    +0.000 C 
ENDBRANCH   1  10
BRANCH   5  13
ATOM     13  C   UNL     1       1.672   7.874  19.982  0.00  0.00    +0.000 A 
ATOM     14  C   UNL     1       1.380   8.155  21.333  0.00  0.00    +0.000 A 
ATOM     15  C   UNL     1       0.909   9.401  21.753  0.00  0.00    +0.000 A 
ATOM     16  C   UNL     1       0.727  10.413  20.819  0.00  0.00    +0.000 A 
ATOM     17  C   UNL     1       1.025  10.186  19.474  0.00  0.00    +0.000 A 
ATOM     18  C   UNL     1       1.510   8.932  19.069  0.00  0.00    +0.000 A 
BRANCH  16  19
ATOM     19  S   UNL     1       0.046  11.957  21.341  0.00  0.00    +0.000 S 
ATOM     20  O   UNL     1       1.110  12.908  21.519  0.00  0.00    +0.000 OA
ATOM     21  O   UNL     1      -1.133  12.246  20.557  0.00  0.00    +0.000 OA
BRANCH  19  22
ATOM     22  N   UNL     1      -0.505  11.582  22.882  0.00  0.00    +0.000 NA
ATOM     23  H   UNL     1      -1.331  10.985  22.815  0.00  0.00    +0.000 HD
ATOM     24  H   UNL     1       0.253  11.178  23.431  0.00  0.00    +0.000 HD
ENDBRANCH  19  22
ENDBRANCH  16  19
ENDBRANCH   5  13
BRANCH   3  25
ATOM     25  C   UNL     1       1.772   2.920  19.797  0.00  0.00    +0.000 C 
ATOM     26 CL   UNL     1       0.508   2.118  18.818  0.00  0.00    +0.000 Cl
ATOM     27 CL   UNL     1       3.331   2.078  19.496  0.00  0.00    +0.000 Cl
ATOM     28 CL   UNL     1       1.343   2.732  21.527  0.00  0.00    +0.000 Cl
ENDBRANCH   3  25
TORSDOF 5
ENDMDL
MODEL 3
REMARK VINA RESULT:      -7.8      0.919      1.047
REMARK  Name = 
REMARK  6 active torsions:
REMARK  status: ('A' for Active; 'I' for Inactive)
REMARK    1  A    between atoms: C_1  and  N_2
REMARK    2  A    between atoms: C_5  and  C_6
REMARK    3  A    between atoms: C_8  and  C_9
REMARK    4  A    between atoms: N_14  and  C_15
REMARK    5  A    between atoms: C_18  and  S_19
REMARK    6  A    between atoms: S_19  and  N_20
REMARK                            x       y       z     vdW  Elec       q    Type
REMARK                         _______ _______ _______ _____ _____    ______ ____
ROOT
ATOM      1  C   UNL     1       2.561   6.183  18.309  0.00  0.00    +0.000 C 
ATOM      2  O   UNL     1       2.352   4.737  18.212  0.00  0.00    +0.000 OA
ATOM      3  C   UNL     1       1.933   4.366  19.513  0.00  0.00    +0.000 C 
ATOM      4  C   UNL     1       1.736   5.421  20.308  0.00  0.00    +0.000 C 
ATOM      5  N   UNL     1       2.043   6.579  19.638  0.00  0.00    +0.000 N 
ENDROOT
BRANCH   1  10
ATOM      6  C   UNL     1       7.890   4.457  17.459  0.00  0.00    +0.000 C 
ATOM      7  N   UNL     1       6.562   5.028  17.696  0.00  0.00    +0.000 N 
ATOM      8  C   UNL     1       6.090   5.233  18.984  0.00  0.00    +0.000 C 
ATOM      9  C   UNL     1       4.957   5.896  19.257  0.00  0.00    +0.000 C 
ATOM     10  C   UNL     1       4.087   6.487  18.146  0.00  0.00    +0.000 C 
ATOM     11  C   UNL     1       4.601   6.071  16.769  0.00  0.00    +0.000 C 
ATOM     12  C   UNL     1       5.759   5.404  16.628  0.00  0.00    +0.000 C 
ENDBRANCH   1  10
BRANCH   5  13
ATOM     13  C   UNL     1       1.666   7.864  20.022  0.00  0.00    +0.000 A 
ATOM     14  C   UNL     1       1.367   8.146  21.372  0.00  0.00    +0.000 A 
ATOM     15  C   UNL     1       0.894   9.392  21.788  0.00  0.00    +0.000 A 
ATOM     16  C   UNL     1       0.716  10.403  20.852  0.00  0.00    +0.000 A 
ATOM     17  C   UNL     1       1.020  10.175  19.509  0.00  0.00    +0.000 A 
ATOM     18  C   UNL     1       1.508   8.921  19.108  0.00  0.00    +0.000 A 
BRANCH  16  19
ATOM     19  S   UNL     1       0.031  11.948  21.370  0.00  0.00    +0.000 S 
ATOM     20  O   UNL     1      -0.878  12.425  20.362  0.00  0.00    +0.000 OA
ATOM     21  O   UNL     1      -0.329  11.863  22.767  0.00  0.00    +0.000 OA
BRANCH  19  22
ATOM     22  N   UNL     1       1.372  12.954  21.300  0.00  0.00    +0.000 NA
ATOM     23  H   UNL     1       1.146  13.791  20.760  0.00  0.00    +0.000 HD
ATOM     24  H   UNL     1       1.707  13.149  22.243  0.00  0.00    +0.000 HD
ENDBRANCH  19  22
ENDBRANCH  16  19
ENDBRANCH   5  13
BRANCH   3  25
ATOM     25  C   UNL     1       1.787   2.909  19.862  0.00  0.00    +0.000 C 
ATOM     26 CL   UNL     1       1.357   2.654  21.579  0.00  0.00    +0.000 Cl
ATOM     27 CL   UNL     1       0.489   2.190  18.848  0.00  0.00    +0.000 Cl
ATOM     28 CL   UNL     1       3.320   2.040  19.534  0.00  0.00    +0.000 Cl
ENDBRANCH   3  25
TORSDOF 5
ENDMDL
MODEL 4
REMARK VINA RESULT:      -7.7      0.698      1.298
REMARK  Name = 
REMARK  6 active torsions:
REMARK  status: ('A' for Active; 'I' for Inactive)
REMARK    1  A    between atoms: C_1  and  N_2
REMARK    2  A    between atoms: C_5  and  C_6
REMARK    3  A    between atoms: C_8  and  C_9
REMARK    4  A    between atoms: N_14  and  C_15
REMARK    5  A    between atoms: C_18  and  S_19
REMARK    6  A    between atoms: S_19  and  N_20
REMARK                            x       y       z     vdW  Elec       q    Type
REMARK                         _______ _______ _______ _____ _____    ______ ____
ROOT
ATOM      1  C   UNL     1       2.494   6.215  18.348  0.00  0.00    +0.000 C 
ATOM      2  O   UNL     1       2.278   4.770  18.243  0.00  0.00    +0.000 OA
ATOM      3  C   UNL     1       1.924   4.383  19.559  0.00  0.00    +0.000 C 
ATOM      4  C   UNL     1       1.770   5.429  20.376  0.00  0.00    +0.000 C 
ATOM      5  N   UNL     1       2.044   6.594  19.707  0.00  0.00    +0.000 N 
ENDROOT
BRANCH   1  10
ATOM      6  C   UNL     1       7.484   4.962  15.974  0.00  0.00    +0.000 C 
ATOM      7  N   UNL     1       6.257   5.386  16.654  0.00  0.00    +0.000 N 
ATOM      8  C   UNL     1       5.971   4.964  17.943  0.00  0.00    +0.000 C 
ATOM      9  C   UNL     1       4.950   5.447  18.667  0.00  0.00    +0.000 C 
ATOM     10  C   UNL     1       4.010   6.519  18.112  0.00  0.00    +0.000 C 
ATOM     11  C   UNL     1       4.308   6.796  16.639  0.00  0.00    +0.000 C 
ATOM     12  C   UNL     1       5.369   6.247  16.025  0.00  0.00    +0.000 C 
ENDBRANCH   1  10
BRANCH   5  13
ATOM     13  C   UNL     1       1.691   7.875  20.125  0.00  0.00    +0.000 A 
ATOM     14  C   UNL     1       1.470   8.143  21.493  0.00  0.00    +0.000 A 
ATOM     15  C   UNL     1       1.021   9.384  21.949  0.00  0.00    +0.000 A 
ATOM     16  C   UNL     1       0.789  10.404  21.035  0.00  0.00    +0.000 A 
ATOM     17  C   UNL     1       1.016  10.191  19.675  0.00  0.00    +0.000 A 
ATOM     18  C   UNL     1       1.480   8.941  19.232  0.00  0.00    +0.000 A 
BRANCH  16  19
ATOM     19  S   UNL     1       0.135  11.943  21.608  0.00  0.00    +0.000 S 
ATOM     20  O   UNL     1      -0.478  11.747  22.895  0.00  0.00    +0.000 OA
ATOM     21  O   UNL     1       1.097  12.991  21.355  0.00  0.00    +0.000 OA
BRANCH  19  22
ATOM     22  N   UNL     1      -1.123  12.201  20.528  0.00  0.00    +0.000 NA
ATOM     23  H   UNL     1      -0.993  11.614  19.703  0.00  0.00    +0.000 HD
ATOM     24  H   UNL     1      -2.017  12.061  20.998  0.00  0.00    +0.000 HD
ENDBRANCH  19  22
ENDBRANCH  16  19
ENDBRANCH   5  13
BRANCH   3  25
ATOM     25  C   UNL     1       1.794   2.922  19.897  0.00  0.00    +0.000 C 
ATOM     26 CL   UNL     1       0.591   2.086  18.871  0.00  0.00    +0.000 Cl
ATOM     27 CL   UNL     1       3.385   2.122  19.661  0.00  0.00    +0.000 Cl
ATOM     28 CL   UNL     1       1.301   2.726  21.609  0.00  0.00    +0.000 Cl
ENDBRANCH   3  25
TORSDOF 5
ENDMDL
MODEL 5
REMARK VINA RESULT:      -7.7      1.407      1.631
REMARK  Name = 
REMARK  6 active torsions:
REMARK  status: ('A' for Active; 'I' for Inactive)
REMARK    1  A    between atoms: C_1  and  N_2
REMARK    2  A    between atoms: C_5  and  C_6
REMARK    3  A    between atoms: C_8  and  C_9
REMARK    4  A    between atoms: N_14  and  C_15
REMARK    5  A    between atoms: C_18  and  S_19
REMARK    6  A    between atoms: S_19  and  N_20
REMARK                            x       y       z     vdW  Elec       q    Type
REMARK                         _______ _______ _______ _____ _____    ______ ____
ROOT
ATOM      1  C   UNL     1       2.970   5.601  17.911  0.00  0.00    +0.000 C 
ATOM      2  O   UNL     1       2.833   4.176  18.219  0.00  0.00    +0.000 OA
ATOM      3  C   UNL     1       2.538   4.154  19.604  0.00  0.00    +0.000 C 
ATOM      4  C   UNL     1       2.349   5.377  20.106  0.00  0.00    +0.000 C 
ATOM      5  N   UNL     1       2.538   6.322  19.130  0.00  0.00    +0.000 N 
ENDROOT
BRANCH   1  10
ATOM      6  C   UNL     1       7.415   5.020  14.445  0.00  0.00    +0.000 C 
ATOM      7  N   UNL     1       6.348   5.239  15.424  0.00  0.00    +0.000 N 
ATOM      8  C   UNL     1       6.208   4.409  16.527  0.00  0.00    +0.000 C 
ATOM      9  C   UNL     1       5.356   4.658  17.533  0.00  0.00    +0.000 C 
ATOM     10  C   UNL     1       4.460   5.898  17.536  0.00  0.00    +0.000 C 
ATOM     11  C   UNL     1       4.570   6.654  16.214  0.00  0.00    +0.000 C 
ATOM     12  C   UNL     1       5.470   6.304  15.280  0.00  0.00    +0.000 C 
ENDBRANCH   1  10
BRANCH   5  13
ATOM     13  C   UNL     1       2.124   7.651  19.192  0.00  0.00    +0.000 A 
ATOM     14  C   UNL     1       1.568   8.168  20.381  0.00  0.00    +0.000 A 
ATOM     15  C   UNL     1       1.051   9.463  20.463  0.00  0.00    +0.000 A 
ATOM     16  C   UNL     1       1.089  10.286  19.344  0.00  0.00    +0.000 A 
ATOM     17  C   UNL     1       1.650   9.823  18.153  0.00  0.00    +0.000 A 
ATOM     18  C   UNL     1       2.178   8.522  18.090  0.00  0.00    +0.000 A 
BRANCH  16  19
ATOM     19  S   UNL     1       0.353  11.890  19.427  0.00  0.00    +0.000 S 
ATOM     20  O   UNL     1      -1.035  11.795  19.056  0.00  0.00    +0.000 OA
ATOM     21  O   UNL     1       0.792  12.552  20.634  0.00  0.00    +0.000 OA
BRANCH  19  22
ATOM     22  N   UNL     1       1.119  12.682  18.162  0.00  0.00    +0.000 NA
ATOM     23  H   UNL     1       0.964  13.688  18.242  0.00  0.00    +0.000 HD
ATOM     24  H   UNL     1       2.103  12.417  18.133  0.00  0.00    +0.000 HD
ENDBRANCH  19  22
ENDBRANCH  16  19
ENDBRANCH   5  13
BRANCH   3  25
ATOM     25  C   UNL     1       2.500   2.840  20.337  0.00  0.00    +0.000 C 
ATOM     26 CL   UNL     1       1.727   2.974  21.944  0.00  0.00    +0.000 Cl
ATOM     27 CL   UNL     1       1.566   1.653  19.364  0.00  0.00    +0.000 Cl
ATOM     28 CL   UNL     1       4.163   2.213  20.566  0.00  0.00    +0.000 Cl
ENDBRANCH   3  25
TORSDOF 5
ENDMDL
MODEL 6
REMARK VINA RESULT:      -7.6      1.104      1.553
REMARK  Name = 
REMARK  6 active torsions:
REMARK  status: ('A' for Active; 'I' for Inactive)
REMARK    1  A    between atoms: C_1  and  N_2
REMARK    2  A    between atoms: C_5  and  C_6
REMARK    3  A    between atoms: C_8  and  C_9
REMARK    4  A    between atoms: N_14  and  C_15
REMARK    5  A    between atoms: C_18  and  S_19
REMARK    6  A    between atoms: S_19  and  N_20
REMARK                            x       y       z     vdW  Elec       q    Type
REMARK                         _______ _______ _______ _____ _____    ______ ____
ROOT
ATOM      1  C   UNL     1       2.887   5.606  17.947  0.00  0.00    +0.000 C 
ATOM      2  O   UNL     1       2.728   4.171  18.200  0.00  0.00    +0.000 OA
ATOM      3  C   UNL     1       2.427   4.102  19.583  0.00  0.00    +0.000 C 
ATOM      4  C   UNL     1       2.252   5.308  20.130  0.00  0.00    +0.000 C 
ATOM      5  N   UNL     1       2.459   6.286  19.190  0.00  0.00    +0.000 N 
ENDROOT
BRANCH   1  10
ATOM      6  C   UNL     1       7.353   5.051  14.505  0.00  0.00    +0.000 C 
ATOM      7  N   UNL     1       6.280   5.260  15.480  0.00  0.00    +0.000 N 
ATOM      8  C   UNL     1       6.123   4.409  16.564  0.00  0.00    +0.000 C 
ATOM      9  C   UNL     1       5.266   4.646  17.568  0.00  0.00    +0.000 C 
ATOM     10  C   UNL     1       4.382   5.895  17.590  0.00  0.00    +0.000 C 
ATOM     11  C   UNL     1       4.510   6.677  16.284  0.00  0.00    +0.000 C 
ATOM     12  C   UNL     1       5.415   6.338  15.351  0.00  0.00    +0.000 C 
ENDBRANCH   1  10
BRANCH   5  13
ATOM     13  C   UNL     1       2.063   7.617  19.302  0.00  0.00    +0.000 A 
ATOM     14  C   UNL     1       1.556   8.110  20.522  0.00  0.00    +0.000 A 
ATOM     15  C   UNL     1       1.058   9.408  20.655  0.00  0.00    +0.000 A 
ATOM     16  C   UNL     1       1.066  10.259  19.557  0.00  0.00    +0.000 A 
ATOM     17  C   UNL     1       1.579   9.821  18.335  0.00  0.00    +0.000 A 
ATOM     18  C   UNL     1       2.088   8.516  18.220  0.00  0.00    +0.000 A 
BRANCH  16  19
ATOM     19  S   UNL     1       0.352  11.868  19.707  0.00  0.00    +0.000 S 
ATOM     20  O   UNL     1       1.030  12.772  18.816  0.00  0.00    +0.000 OA
ATOM     21  O   UNL     1      -1.087  11.748  19.746  0.00  0.00    +0.000 OA
BRANCH  19  22
ATOM     22  N   UNL     1       0.821  12.305  21.258  0.00  0.00    +0.000 NA
ATOM     23  H   UNL     1       0.054  12.135  21.909  0.00  0.00    +0.000 HD
ATOM     24  H   UNL     1       1.686  11.826  21.505  0.00  0.00    +0.000 HD
ENDBRANCH  19  22
ENDBRANCH  16  19
ENDBRANCH   5  13
BRANCH   3  25
ATOM     25  C   UNL     1       2.366   2.762  20.266  0.00  0.00    +0.000 C 
ATOM     26 CL   UNL     1       1.470   1.545  19.310  0.00  0.00    +0.000 Cl
ATOM     27 CL   UNL     1       4.040   2.156  20.516  0.00  0.00    +0.000 Cl
ATOM     28 CL   UNL     1       1.568   2.919  21.863  0.00  0.00    +0.000 Cl
ENDBRANCH   3  25
TORSDOF 5
ENDMDL
MODEL 7
REMARK VINA RESULT:      -7.6      0.753      1.213
REMARK  Name = 
REMARK  6 active torsions:
REMARK  status: ('A' for Active; 'I' for Inactive)
REMARK    1  A    between atoms: C_1  and  N_2
REMARK    2  A    between atoms: C_5  and  C_6
REMARK    3  A    between atoms: C_8  and  C_9
REMARK    4  A    between atoms: N_14  and  C_15
REMARK    5  A    between atoms: C_18  and  S_19
REMARK    6  A    between atoms: S_19  and  N_20
REMARK                            x       y       z     vdW  Elec       q    Type
REMARK                         _______ _______ _______ _____ _____    ______ ____
ROOT
ATOM      1  C   UNL     1       2.575   6.115  18.177  0.00  0.00    +0.000 C 
ATOM      2  O   UNL     1       2.390   4.663  18.119  0.00  0.00    +0.000 OA
ATOM      3  C   UNL     1       1.934   4.327  19.417  0.00  0.00    +0.000 C 
ATOM      4  C   UNL     1       1.698   5.403  20.171  0.00  0.00    +0.000 C 
ATOM      5  N   UNL     1       2.009   6.544  19.476  0.00  0.00    +0.000 N 
ENDROOT
BRANCH   1  10
ATOM      6  C   UNL     1       7.959   4.440  17.618  0.00  0.00    +0.000 C 
ATOM      7  N   UNL     1       6.614   5.000  17.775  0.00  0.00    +0.000 N 
ATOM      8  C   UNL     1       6.092   5.265  19.032  0.00  0.00    +0.000 C 
ATOM      9  C   UNL     1       4.939   5.923  19.226  0.00  0.00    +0.000 C 
ATOM     10  C   UNL     1       4.102   6.437  18.054  0.00  0.00    +0.000 C 
ATOM     11  C   UNL     1       4.674   5.955  16.721  0.00  0.00    +0.000 C 
ATOM     12  C   UNL     1       5.847   5.303  16.659  0.00  0.00    +0.000 C 
ENDBRANCH   1  10
BRANCH   5  13
ATOM     13  C   UNL     1       1.602   7.835  19.806  0.00  0.00    +0.000 A 
ATOM     14  C   UNL     1       1.553   8.841  18.819  0.00  0.00    +0.000 A 
ATOM     15  C   UNL     1       1.245  10.170  19.120  0.00  0.00    +0.000 A 
ATOM     16  C   UNL     1       0.967  10.526  20.434  0.00  0.00    +0.000 A 
ATOM     17  C   UNL     1       0.982   9.559  21.439  0.00  0.00    +0.000 A 
ATOM     18  C   UNL     1       1.281   8.224  21.119  0.00  0.00    +0.000 A 
BRANCH  16  19
ATOM     19  S   UNL     1       0.667  12.223  20.823  0.00  0.00    +0.000 S 
ATOM     20  O   UNL     1       1.908  12.850  21.193  0.00  0.00    +0.000 OA
ATOM     21  O   UNL     1      -0.225  12.786  19.836  0.00  0.00    +0.000 OA
BRANCH  19  22
ATOM     22  N   UNL     1      -0.229  12.095  22.236  0.00  0.00    +0.000 NA
ATOM     23  H   UNL     1       0.354  11.709  22.979  0.00  0.00    +0.000 HD
ATOM     24  H   UNL     1      -0.645  12.998  22.464  0.00  0.00    +0.000 HD
ENDBRANCH  19  22
ENDBRANCH  16  19
ENDBRANCH   5  13
BRANCH   3  25
ATOM     25  C   UNL     1       1.798   2.880  19.808  0.00  0.00    +0.000 C 
ATOM     26 CL   UNL     1       1.411   2.670  21.541  0.00  0.00    +0.000 Cl
ATOM     27 CL   UNL     1       0.476   2.135  18.845  0.00  0.00    +0.000 Cl
ATOM     28 CL   UNL     1       3.322   2.002  19.464  0.00  0.00    +0.000 Cl
ENDBRANCH   3  25
TORSDOF 5
ENDMDL
MODEL 8
REMARK VINA RESULT:      -7.6      1.576      2.005
REMARK  Name = 
REMARK  6 active torsions:
REMARK  status: ('A' for Active; 'I' for Inactive)
REMARK    1  A    between atoms: C_1  and  N_2
REMARK    2  A    between atoms: C_5  and  C_6
REMARK    3  A    between atoms: C_8  and  C_9
REMARK    4  A    between atoms: N_14  and  C_15
REMARK    5  A    between atoms: C_18  and  S_19
REMARK    6  A    between atoms: S_19  and  N_20
REMARK                            x       y       z     vdW  Elec       q    Type
REMARK                         _______ _______ _______ _____ _____    ______ ____
ROOT
ATOM      1  C   UNL     1       3.083   5.449  17.790  0.00  0.00    +0.000 C 
ATOM      2  O   UNL     1       2.944   4.034  18.142  0.00  0.00    +0.000 OA
ATOM      3  C   UNL     1       2.628   4.058  19.523  0.00  0.00    +0.000 C 
ATOM      4  C   UNL     1       2.428   5.296  19.981  0.00  0.00    +0.000 C 
ATOM      5  N   UNL     1       2.630   6.209  18.978  0.00  0.00    +0.000 N 
ENDROOT
BRANCH   1  10
ATOM      6  C   UNL     1       7.489   5.041  14.252  0.00  0.00    +0.000 C 
ATOM      7  N   UNL     1       6.434   5.206  15.255  0.00  0.00    +0.000 N 
ATOM      8  C   UNL     1       6.280   4.292  16.287  0.00  0.00    +0.000 C 
ATOM      9  C   UNL     1       5.440   4.479  17.317  0.00  0.00    +0.000 C 
ATOM     10  C   UNL     1       4.578   5.738  17.429  0.00  0.00    +0.000 C 
ATOM     11  C   UNL     1       4.699   6.597  16.171  0.00  0.00    +0.000 C 
ATOM     12  C   UNL     1       5.585   6.302  15.205  0.00  0.00    +0.000 C 
ENDBRANCH   1  10
BRANCH   5  13
ATOM     13  C   UNL     1       2.212   7.538  18.990  0.00  0.00    +0.000 A 
ATOM     14  C   UNL     1       1.590   8.078  20.135  0.00  0.00    +0.000 A 
ATOM     15  C   UNL     1       1.068   9.373  20.162  0.00  0.00    +0.000 A 
ATOM     16  C   UNL     1       1.168  10.173  19.030  0.00  0.00    +0.000 A 
ATOM     17  C   UNL     1       1.797   9.688  17.883  0.00  0.00    +0.000 A 
ATOM     18  C   UNL     1       2.328   8.387  17.875  0.00  0.00    +0.000 A 
BRANCH  16  19
ATOM     19  S   UNL     1       0.428  11.778  19.039  0.00  0.00    +0.000 S 
ATOM     20  O   UNL     1      -0.227  11.990  20.303  0.00  0.00    +0.000 OA
ATOM     21  O   UNL     1       1.353  12.731  18.473  0.00  0.00    +0.000 OA
BRANCH  19  22
ATOM     22  N   UNL     1      -0.796  11.594  17.906  0.00  0.00    +0.000 NA
ATOM     23  H   UNL     1      -1.625  11.204  18.357  0.00  0.00    +0.000 HD
ATOM     24  H   UNL     1      -0.963  12.480  17.431  0.00  0.00    +0.000 HD
ENDBRANCH  19  22
ENDBRANCH  16  19
ENDBRANCH   5  13
BRANCH   3  25
ATOM     25  C   UNL     1       2.581   2.769  20.299  0.00  0.00    +0.000 C 
ATOM     26 CL   UNL     1       1.480   1.566  19.564  0.00  0.00    +0.000 Cl
ATOM     27 CL   UNL     1       4.231   2.058  20.353  0.00  0.00    +0.000 Cl
ATOM     28 CL   UNL     1       2.034   3.078  21.977  0.00  0.00    +0.000 Cl
ENDBRANCH   3  25
TORSDOF 5
ENDMDL
MODEL 9
REMARK VINA RESULT:      -7.5      1.009      1.741
REMARK  Name = 
REMARK  6 active torsions:
REMARK  status: ('A' for Active; 'I' for Inactive)
REMARK    1  A    between atoms: C_1  and  N_2
REMARK    2  A    between atoms: C_5  and  C_6
REMARK    3  A    between atoms: C_8  and  C_9
REMARK    4  A    between atoms: N_14  and  C_15
REMARK    5  A    between atoms: C_18  and  S_19
REMARK    6  A    between atoms: S_19  and  N_20
REMARK                            x       y       z     vdW  Elec       q    Type
REMARK                         _______ _______ _______ _____ _____    ______ ____
ROOT
ATOM      1  C   UNL     1       2.545   6.177  18.261  0.00  0.00    +0.000 C 
ATOM      2  O   UNL     1       2.357   4.725  18.197  0.00  0.00    +0.000 OA
ATOM      3  C   UNL     1       1.890   4.386  19.491  0.00  0.00    +0.000 C 
ATOM      4  C   UNL     1       1.650   5.461  20.246  0.00  0.00    +0.000 C 
ATOM      5  N   UNL     1       1.970   6.603  19.556  0.00  0.00    +0.000 N 
ENDROOT
BRANCH   1  10
ATOM      6  C   UNL     1       7.906   4.514  17.488  0.00  0.00    +0.000 C 
ATOM      7  N   UNL     1       6.569   5.069  17.711  0.00  0.00    +0.000 N 
ATOM      8  C   UNL     1       6.062   5.222  18.993  0.00  0.00    +0.000 C 
ATOM      9  C   UNL     1       4.917   5.868  19.261  0.00  0.00    +0.000 C 
ATOM     10  C   UNL     1       4.073   6.495  18.150  0.00  0.00    +0.000 C 
ATOM     11  C   UNL     1       4.626   6.134  16.773  0.00  0.00    +0.000 C 
ATOM     12  C   UNL     1       5.792   5.480  16.637  0.00  0.00    +0.000 C 
ENDBRANCH   1  10
BRANCH   5  13
ATOM     13  C   UNL     1       1.564   7.894  19.888  0.00  0.00    +0.000 A 
ATOM     14  C   UNL     1       1.474   8.890  18.893  0.00  0.00    +0.000 A 
ATOM     15  C   UNL     1       1.166  10.219  19.191  0.00  0.00    +0.000 A 
ATOM     16  C   UNL     1       0.927  10.586  20.510  0.00  0.00    +0.000 A 
ATOM     17  C   UNL     1       0.982   9.629  21.523  0.00  0.00    +0.000 A 
ATOM     18  C   UNL     1       1.281   8.293  21.206  0.00  0.00    +0.000 A 
BRANCH  16  19
ATOM     19  S   UNL     1       0.626  12.285  20.892  0.00  0.00    +0.000 S 
ATOM     20  O   UNL     1       0.090  12.944  19.730  0.00  0.00    +0.000 OA
ATOM     21  O   UNL     1       0.006  12.376  22.194  0.00  0.00    +0.000 OA
BRANCH  19  22
ATOM     22  N   UNL     1       2.187  12.872  21.082  0.00  0.00    +0.000 NA
ATOM     23  H   UNL     1       2.839  12.091  21.167  0.00  0.00    +0.000 HD
ATOM     24  H   UNL     1       2.409  13.514  20.322  0.00  0.00    +0.000 HD
ENDBRANCH  19  22
ENDBRANCH  16  19
ENDBRANCH   5  13
BRANCH   3  25
ATOM     25  C   UNL     1       1.748   2.939  19.876  0.00  0.00    +0.000 C 
ATOM     26 CL   UNL     1       0.549   2.075  18.868  0.00  0.00    +0.000 Cl
ATOM     27 CL   UNL     1       3.336   2.121  19.680  0.00  0.00    +0.000 Cl
ATOM     28 CL   UNL     1       1.240   2.803  21.590  0.00  0.00    +0.000 Cl
ENDBRANCH   3  25
TORSDOF 5
ENDMDL
