MODEL 1
REMARK VINA RESULT:      -6.9      0.000      0.000
REMARK  Name = 
REMARK  4 active torsions:
REMARK  status: ('A' for Active; 'I' for Inactive)
REMARK    1  A    between atoms: C_2  and  O_3
REMARK    2  A    between atoms: C_2  and  C_4
REMARK    3  A    between atoms: N_9  and  C_10
REMARK    4  A    between atoms: C_10  and  C_11
REMARK                            x       y       z     vdW  Elec       q    Type
REMARK                         _______ _______ _______ _____ _____    ______ ____
ROOT
ATOM      1  C   UNL     1       3.283   3.061  18.702  0.00  0.00    +0.000 C 
ATOM      2  C   UNL     1       1.815   2.637  18.667  0.00  0.00    +0.000 C 
ATOM      3  C   UNL     1       1.207   3.262  19.919  0.00  0.00    +0.000 C 
ATOM      4  C   UNL     1       2.037   4.506  20.101  0.00  0.00    +0.000 C 
ATOM      5  O   UNL     1       1.700   5.491  20.730  0.00  0.00    +0.000 OA
ATOM      6  N   UNL     1       3.265   4.285  19.492  0.00  0.00    +0.000 N 
ENDROOT
BRANCH   1   8
ATOM      7  O   UNL     1       4.799   2.065  20.314  0.00  0.00    +0.000 OA
ATOM      8  C   UNL     1       4.130   1.937  19.298  0.00  0.00    +0.000 C 
BRANCH   8   9
ATOM      9  O   UNL     1       4.168   0.816  18.545  0.00  0.00    +0.000 OA
ATOM     10  H   UNL     1       3.820   0.043  19.036  0.00  0.00    +0.000 HD
ENDBRANCH   8   9
ENDBRANCH   1   8
BRANCH   6  11
ATOM     11  C   UNL     1       4.270   5.331  19.328  0.00  0.00    +0.000 C 
BRANCH  11  12
ATOM     12  C   UNL     1       5.103   5.210  18.074  0.00  0.00    +0.000 A 
ATOM     13  C   UNL     1       4.621   5.757  16.873  0.00  0.00    +0.000 A 
ATOM     14  C   UNL     1       5.402   5.743  15.714  0.00  0.00    +0.000 A 
ATOM     15  C   UNL     1       6.673   5.177  15.736  0.00  0.00    +0.000 A 
ATOM     16  C   UNL     1       7.169   4.635  16.918  0.00  0.00    +0.000 A 
ATOM     17  C   UNL     1       6.399   4.670  18.082  0.00  0.00    +0.000 A 
ENDBRANCH  11  12
ENDBRANCH   6  11
TORSDOF 4
ENDMDL
MODEL 2
REMARK VINA RESULT:      -6.8      0.929      1.406
REMARK  Name = 
REMARK  4 active torsions:
REMARK  status: ('A' for Active; 'I' for Inactive)
REMARK    1  A    between atoms: C_2  and  O_3
REMARK    2  A    between atoms: C_2  and  C_4
REMARK    3  A    between atoms: N_9  and  C_10
REMARK    4  A    between atoms: C_10  and  C_11
REMARK                            x       y       z     vdW  Elec       q    Type
REMARK                         _______ _______ _______ _____ _____    ______ ____
ROOT
ATOM      1  C   UNL     1       2.631   2.747  19.089  0.00  0.00    +0.000 C 
ATOM      2  C   UNL     1       1.671   2.486  20.249  0.00  0.00    +0.000 C 
ATOM      3  C   UNL     1       1.849   3.689  21.169  0.00  0.00    +0.000 C 
ATOM      4  C   UNL     1       2.210   4.789  20.205  0.00  0.00    +0.000 C 
ATOM      5  O   UNL     1       2.086   5.980  20.418  0.00  0.00    +0.000 OA
ATOM      6  N   UNL     1       2.771   4.197  19.082  0.00  0.00    +0.000 N 
ENDROOT
BRANCH   1   8
ATOM      7  O   UNL     1       4.824   2.381  20.065  0.00  0.00    +0.000 OA
ATOM      8  C   UNL     1       3.937   1.987  19.319  0.00  0.00    +0.000 C 
BRANCH   8   9
ATOM      9  O   UNL     1       4.082   0.890  18.542  0.00  0.00    +0.000 OA
ATOM     10  H   UNL     1       4.844   0.982  17.933  0.00  0.00    +0.000 HD
ENDBRANCH   8   9
ENDBRANCH   1   8
BRANCH   6  11
ATOM     11  C   UNL     1       3.096   4.941  17.869  0.00  0.00    +0.000 C 
BRANCH  11  12
ATOM     12  C   UNL     1       4.548   4.869  17.458  0.00  0.00    +0.000 A 
ATOM     13  C   UNL     1       5.538   5.313  18.350  0.00  0.00    +0.000 A 
ATOM     14  C   UNL     1       6.894   5.180  18.041  0.00  0.00    +0.000 A 
ATOM     15  C   UNL     1       7.281   4.608  16.832  0.00  0.00    +0.000 A 
ATOM     16  C   UNL     1       6.314   4.158  15.938  0.00  0.00    +0.000 A 
ATOM     17  C   UNL     1       4.959   4.269  16.258  0.00  0.00    +0.000 A 
ENDBRANCH  11  12
ENDBRANCH   6  11
TORSDOF 4
ENDMDL
MODEL 3
REMARK VINA RESULT:      -6.8      0.112      1.209
REMARK  Name = 
REMARK  4 active torsions:
REMARK  status: ('A' for Active; 'I' for Inactive)
REMARK    1  A    between atoms: C_2  and  O_3
REMARK    2  A    between atoms: C_2  and  C_4
REMARK    3  A    between atoms: N_9  and  C_10
REMARK    4  A    between atoms: C_10  and  C_11
REMARK                            x       y       z     vdW  Elec       q    Type
REMARK                         _______ _______ _______ _____ _____    ______ ____
ROOT
ATOM      1  C   UNL     1       3.349   3.122  18.625  0.00  0.00    +0.000 C 
ATOM      2  C   UNL     1       1.874   2.741  18.499  0.00  0.00    +0.000 C 
ATOM      3  C   UNL     1       1.215   3.353  19.731  0.00  0.00    +0.000 C 
ATOM      4  C   UNL     1       2.067   4.568  19.990  0.00  0.00    +0.000 C 
ATOM      5  O   UNL     1       1.722   5.546  20.624  0.00  0.00    +0.000 OA
ATOM      6  N   UNL     1       3.320   4.327  19.444  0.00  0.00    +0.000 N 
ENDROOT
BRANCH   1   8
ATOM      7  O   UNL     1       4.785   2.057  20.267  0.00  0.00    +0.000 OA
ATOM      8  C   UNL     1       4.130   1.960  19.238  0.00  0.00    +0.000 C 
BRANCH   8   9
ATOM      9  O   UNL     1       4.130   0.837  18.486  0.00  0.00    +0.000 OA
ATOM     10  H   UNL     1       3.273   0.366  18.547  0.00  0.00    +0.000 HD
ENDBRANCH   8   9
ENDBRANCH   1   8
BRANCH   6  11
ATOM     11  C   UNL     1       4.361   5.346  19.363  0.00  0.00    +0.000 C 
BRANCH  11  12
ATOM     12  C   UNL     1       5.167   5.321  18.085  0.00  0.00    +0.000 A 
ATOM     13  C   UNL     1       6.439   4.725  18.085  0.00  0.00    +0.000 A 
ATOM     14  C   UNL     1       7.175   4.605  16.904  0.00  0.00    +0.000 A 
ATOM     15  C   UNL     1       6.653   5.084  15.706  0.00  0.00    +0.000 A 
ATOM     16  C   UNL     1       5.393   5.672  15.685  0.00  0.00    +0.000 A 
ATOM     17  C   UNL     1       4.647   5.772  16.861  0.00  0.00    +0.000 A 
ENDBRANCH  11  12
ENDBRANCH   6  11
TORSDOF 4
ENDMDL
MODEL 4
REMARK VINA RESULT:      -6.8      0.896      1.082
REMARK  Name = 
REMARK  4 active torsions:
REMARK  status: ('A' for Active; 'I' for Inactive)
REMARK    1  A    between atoms: C_2  and  O_3
REMARK    2  A    between atoms: C_2  and  C_4
REMARK    3  A    between atoms: N_9  and  C_10
REMARK    4  A    between atoms: C_10  and  C_11
REMARK                            x       y       z     vdW  Elec       q    Type
REMARK                         _______ _______ _______ _____ _____    ______ ____
ROOT
ATOM      1  C   UNL     1       2.657   2.702  18.992  0.00  0.00    +0.000 C 
ATOM      2  C   UNL     1       1.605   2.394  20.057  0.00  0.00    +0.000 C 
ATOM      3  C   UNL     1       1.706   3.556  21.040  0.00  0.00    +0.000 C 
ATOM      4  C   UNL     1       2.143   4.696  20.157  0.00  0.00    +0.000 C 
ATOM      5  O   UNL     1       2.001   5.876  20.411  0.00  0.00    +0.000 OA
ATOM      6  N   UNL     1       2.795   4.151  19.059  0.00  0.00    +0.000 N 
ENDROOT
BRANCH   1   8
ATOM      7  O   UNL     1       4.767   2.295  20.119  0.00  0.00    +0.000 OA
ATOM      8  C   UNL     1       3.940   1.929  19.294  0.00  0.00    +0.000 C 
BRANCH   8   9
ATOM      9  O   UNL     1       4.143   0.860  18.494  0.00  0.00    +0.000 OA
ATOM     10  H   UNL     1       4.654   1.104  17.695  0.00  0.00    +0.000 HD
ENDBRANCH   8   9
ENDBRANCH   1   8
BRANCH   6  11
ATOM     11  C   UNL     1       3.217   4.946  17.910  0.00  0.00    +0.000 C 
BRANCH  11  12
ATOM     12  C   UNL     1       4.666   4.769  17.522  0.00  0.00    +0.000 A 
ATOM     13  C   UNL     1       4.980   4.293  16.238  0.00  0.00    +0.000 A 
ATOM     14  C   UNL     1       6.307   4.200  15.812  0.00  0.00    +0.000 A 
ATOM     15  C   UNL     1       7.341   4.576  16.666  0.00  0.00    +0.000 A 
ATOM     16  C   UNL     1       7.049   5.055  17.938  0.00  0.00    +0.000 A 
ATOM     17  C   UNL     1       5.721   5.169  18.356  0.00  0.00    +0.000 A 
ENDBRANCH  11  12
ENDBRANCH   6  11
TORSDOF 4
ENDMDL
MODEL 5
REMARK VINA RESULT:      -6.8      1.512      2.145
REMARK  Name = 
REMARK  4 active torsions:
REMARK  status: ('A' for Active; 'I' for Inactive)
REMARK    1  A    between atoms: C_2  and  O_3
REMARK    2  A    between atoms: C_2  and  C_4
REMARK    3  A    between atoms: N_9  and  C_10
REMARK    4  A    between atoms: C_10  and  C_11
REMARK                            x       y       z     vdW  Elec       q    Type
REMARK                         _______ _______ _______ _____ _____    ______ ____
ROOT
ATOM      1  C   UNL     1       2.813   3.359  19.303  0.00  0.00    +0.000 C 
ATOM      2  C   UNL     1       1.531   3.650  20.083  0.00  0.00    +0.000 C 
ATOM      3  C   UNL     1       1.723   5.066  20.617  0.00  0.00    +0.000 C 
ATOM      4  C   UNL     1       2.593   5.700  19.562  0.00  0.00    +0.000 C 
ATOM      5  O   UNL     1       2.701   6.894  19.364  0.00  0.00    +0.000 OA
ATOM      6  N   UNL     1       3.290   4.682  18.925  0.00  0.00    +0.000 N 
ENDROOT
BRANCH   1   8
ATOM      7  O   UNL     1       3.615   2.392  21.379  0.00  0.00    +0.000 OA
ATOM      8  C   UNL     1       3.780   2.564  20.179  0.00  0.00    +0.000 C 
BRANCH   8   9
ATOM      9  O   UNL     1       4.898   2.155  19.538  0.00  0.00    +0.000 OA
ATOM     10  H   UNL     1       5.567   1.815  20.168  0.00  0.00    +0.000 HD
ENDBRANCH   8   9
ENDBRANCH   1   8
BRANCH   6  11
ATOM     11  C   UNL     1       4.111   4.903  17.739  0.00  0.00    +0.000 C 
BRANCH  11  12
ATOM     12  C   UNL     1       5.413   5.623  18.000  0.00  0.00    +0.000 A 
ATOM     13  C   UNL     1       6.238   5.192  19.053  0.00  0.00    +0.000 A 
ATOM     14  C   UNL     1       7.488   5.776  19.269  0.00  0.00    +0.000 A 
ATOM     15  C   UNL     1       7.930   6.804  18.441  0.00  0.00    +0.000 A 
ATOM     16  C   UNL     1       7.130   7.241  17.391  0.00  0.00    +0.000 A 
ATOM     17  C   UNL     1       5.890   6.641  17.160  0.00  0.00    +0.000 A 
ENDBRANCH  11  12
ENDBRANCH   6  11
TORSDOF 4
ENDMDL
MODEL 6
REMARK VINA RESULT:      -6.7      1.563      2.108
REMARK  Name = 
REMARK  4 active torsions:
REMARK  status: ('A' for Active; 'I' for Inactive)
REMARK    1  A    between atoms: C_2  and  O_3
REMARK    2  A    between atoms: C_2  and  C_4
REMARK    3  A    between atoms: N_9  and  C_10
REMARK    4  A    between atoms: C_10  and  C_11
REMARK                            x       y       z     vdW  Elec       q    Type
REMARK                         _______ _______ _______ _____ _____    ______ ____
ROOT
ATOM      1  C   UNL     1       2.973   2.798  17.844  0.00  0.00    +0.000 C 
ATOM      2  C   UNL     1       1.541   2.941  18.358  0.00  0.00    +0.000 C 
ATOM      3  C   UNL     1       1.524   4.290  19.069  0.00  0.00    +0.000 C 
ATOM      4  C   UNL     1       2.550   5.080  18.299  0.00  0.00    +0.000 C 
ATOM      5  O   UNL     1       2.618   6.293  18.258  0.00  0.00    +0.000 OA
ATOM      6  N   UNL     1       3.430   4.175  17.721  0.00  0.00    +0.000 N 
ENDROOT
BRANCH   1   8
ATOM      7  O   UNL     1       4.271   2.383  19.853  0.00  0.00    +0.000 OA
ATOM      8  C   UNL     1       3.788   1.945  18.817  0.00  0.00    +0.000 C 
BRANCH   8   9
ATOM      9  O   UNL     1       4.027   0.688  18.383  0.00  0.00    +0.000 OA
ATOM     10  H   UNL     1       4.649   0.218  18.976  0.00  0.00    +0.000 HD
ENDBRANCH   8   9
ENDBRANCH   1   8
BRANCH   6  11
ATOM     11  C   UNL     1       4.464   4.569  16.768  0.00  0.00    +0.000 C 
BRANCH  11  12
ATOM     12  C   UNL     1       5.593   5.376  17.364  0.00  0.00    +0.000 A 
ATOM     13  C   UNL     1       6.336   4.837  18.428  0.00  0.00    +0.000 A 
ATOM     14  C   UNL     1       7.442   5.515  18.946  0.00  0.00    +0.000 A 
ATOM     15  C   UNL     1       7.819   6.744  18.413  0.00  0.00    +0.000 A 
ATOM     16  C   UNL     1       7.100   7.291  17.355  0.00  0.00    +0.000 A 
ATOM     17  C   UNL     1       6.008   6.602  16.822  0.00  0.00    +0.000 A 
ENDBRANCH  11  12
ENDBRANCH   6  11
TORSDOF 4
ENDMDL
MODEL 7
REMARK VINA RESULT:      -6.6      1.427      1.997
REMARK  Name = 
REMARK  4 active torsions:
REMARK  status: ('A' for Active; 'I' for Inactive)
REMARK    1  A    between atoms: C_2  and  O_3
REMARK    2  A    between atoms: C_2  and  C_4
REMARK    3  A    between atoms: N_9  and  C_10
REMARK    4  A    between atoms: C_10  and  C_11
REMARK                            x       y       z     vdW  Elec       q    Type
REMARK                         _______ _______ _______ _____ _____    ______ ____
ROOT
ATOM      1  C   UNL     1       1.902   3.423  18.106  0.00  0.00    +0.000 C 
ATOM      2  C   UNL     1       0.835   2.780  18.992  0.00  0.00    +0.000 C 
ATOM      3  C   UNL     1       1.110   3.336  20.385  0.00  0.00    +0.000 C 
ATOM      4  C   UNL     1       1.686   4.696  20.087  0.00  0.00    +0.000 C 
ATOM      5  O   UNL     1       1.711   5.634  20.861  0.00  0.00    +0.000 OA
ATOM      6  N   UNL     1       2.239   4.649  18.815  0.00  0.00    +0.000 N 
ENDROOT
BRANCH   1   8
ATOM      7  O   UNL     1       4.069   2.722  17.266  0.00  0.00    +0.000 OA
ATOM      8  C   UNL     1       3.072   2.455  17.923  0.00  0.00    +0.000 C 
BRANCH   8   9
ATOM      9  O   UNL     1       2.866   1.232  18.459  0.00  0.00    +0.000 OA
ATOM     10  H   UNL     1       3.554   0.597  18.174  0.00  0.00    +0.000 HD
ENDBRANCH   8   9
ENDBRANCH   1   8
BRANCH   6  11
ATOM     11  C   UNL     1       2.749   5.831  18.126  0.00  0.00    +0.000 C 
BRANCH  11  12
ATOM     12  C   UNL     1       4.252   5.979  18.160  0.00  0.00    +0.000 A 
ATOM     13  C   UNL     1       4.979   5.374  19.198  0.00  0.00    +0.000 A 
ATOM     14  C   UNL     1       6.375   5.414  19.214  0.00  0.00    +0.000 A 
ATOM     15  C   UNL     1       7.066   6.066  18.196  0.00  0.00    +0.000 A 
ATOM     16  C   UNL     1       6.363   6.665  17.156  0.00  0.00    +0.000 A 
ATOM     17  C   UNL     1       4.968   6.605  17.128  0.00  0.00    +0.000 A 
ENDBRANCH  11  12
ENDBRANCH   6  11
TORSDOF 4
ENDMDL
MODEL 8
REMARK VINA RESULT:      -6.6      2.249      5.071
REMARK  Name = 
REMARK  4 active torsions:
REMARK  status: ('A' for Active; 'I' for Inactive)
REMARK    1  A    between atoms: C_2  and  O_3
REMARK    2  A    between atoms: C_2  and  C_4
REMARK    3  A    between atoms: N_9  and  C_10
REMARK    4  A    between atoms: C_10  and  C_11
REMARK                            x       y       z     vdW  Elec       q    Type
REMARK                         _______ _______ _______ _____ _____    ______ ____
ROOT
ATOM      1  C   UNL     1       6.119   5.402  18.636  0.00  0.00    +0.000 C 
ATOM      2  C   UNL     1       5.823   6.429  17.543  0.00  0.00    +0.000 C 
ATOM      3  C   UNL     1       5.354   5.597  16.354  0.00  0.00    +0.000 C 
ATOM      4  C   UNL     1       4.705   4.411  17.019  0.00  0.00    +0.000 C 
ATOM      5  O   UNL     1       3.881   3.679  16.505  0.00  0.00    +0.000 OA
ATOM      6  N   UNL     1       5.274   4.271  18.278  0.00  0.00    +0.000 N 
ENDROOT
BRANCH   1   8
ATOM      7  O   UNL     1       8.168   4.376  17.834  0.00  0.00    +0.000 OA
ATOM      8  C   UNL     1       7.616   5.091  18.660  0.00  0.00    +0.000 C 
BRANCH   8   9
ATOM      9  O   UNL     1       8.265   5.585  19.737  0.00  0.00    +0.000 OA
ATOM     10  H   UNL     1       8.105   6.545  19.842  0.00  0.00    +0.000 HD
ENDBRANCH   8   9
ENDBRANCH   1   8
BRANCH   6  11
ATOM     11  C   UNL     1       4.781   3.324  19.272  0.00  0.00    +0.000 C 
BRANCH  11  12
ATOM     12  C   UNL     1       3.358   3.565  19.718  0.00  0.00    +0.000 A 
ATOM     13  C   UNL     1       3.000   4.825  20.224  0.00  0.00    +0.000 A 
ATOM     14  C   UNL     1       1.676   5.113  20.563  0.00  0.00    +0.000 A 
ATOM     15  C   UNL     1       0.690   4.142  20.407  0.00  0.00    +0.000 A 
ATOM     16  C   UNL     1       1.024   2.890  19.901  0.00  0.00    +0.000 A 
ATOM     17  C   UNL     1       2.344   2.610  19.541  0.00  0.00    +0.000 A 
ENDBRANCH  11  12
ENDBRANCH   6  11
TORSDOF 4
ENDMDL
MODEL 9
REMARK VINA RESULT:      -6.6      2.148      4.914
REMARK  Name = 
REMARK  4 active torsions:
REMARK  status: ('A' for Active; 'I' for Inactive)
REMARK    1  A    between atoms: C_2  and  O_3
REMARK    2  A    between atoms: C_2  and  C_4
REMARK    3  A    between atoms: N_9  and  C_10
REMARK    4  A    between atoms: C_10  and  C_11
REMARK                            x       y       z     vdW  Elec       q    Type
REMARK                         _______ _______ _______ _____ _____    ______ ____
ROOT
ATOM      1  C   UNL     1       6.252   5.837  17.944  0.00  0.00    +0.000 C 
ATOM      2  C   UNL     1       7.396   5.506  16.986  0.00  0.00    +0.000 C 
ATOM      3  C   UNL     1       6.818   4.444  16.056  0.00  0.00    +0.000 C 
ATOM      4  C   UNL     1       5.356   4.804  16.014  0.00  0.00    +0.000 C 
ATOM      5  O   UNL     1       4.577   4.482  15.138  0.00  0.00    +0.000 OA
ATOM      6  N   UNL     1       5.059   5.492  17.183  0.00  0.00    +0.000 N 
ENDROOT
BRANCH   1   8
ATOM      7  O   UNL     1       7.176   5.394  20.144  0.00  0.00    +0.000 OA
ATOM      8  C   UNL     1       6.423   5.050  19.243  0.00  0.00    +0.000 C 
BRANCH   8   9
ATOM      9  O   UNL     1       5.752   3.878  19.271  0.00  0.00    +0.000 OA
ATOM     10  H   UNL     1       4.797   4.016  19.438  0.00  0.00    +0.000 HD
ENDBRANCH   8   9
ENDBRANCH   1   8
BRANCH   6  11
ATOM     11  C   UNL     1       3.772   6.138  17.419  0.00  0.00    +0.000 C 
BRANCH  11  12
ATOM     12  C   UNL     1       2.821   5.346  18.286  0.00  0.00    +0.000 A 
ATOM     13  C   UNL     1       2.159   4.233  17.741  0.00  0.00    +0.000 A 
ATOM     14  C   UNL     1       1.342   3.425  18.535  0.00  0.00    +0.000 A 
ATOM     15  C   UNL     1       1.169   3.721  19.884  0.00  0.00    +0.000 A 
ATOM     16  C   UNL     1       1.821   4.815  20.443  0.00  0.00    +0.000 A 
ATOM     17  C   UNL     1       2.656   5.610  19.654  0.00  0.00    +0.000 A 
ENDBRANCH  11  12
ENDBRANCH   6  11
TORSDOF 4
ENDMDL
