MODEL 1
REMARK VINA RESULT:      -8.2      0.000      0.000
REMARK  Name = 
REMARK  5 active torsions:
REMARK  status: ('A' for Active; 'I' for Inactive)
REMARK    1  A    between atoms: C_1  and  C_2
REMARK    2  A    between atoms: C_7  and  C_8
REMARK    3  A    between atoms: N_13  and  N_14
REMARK    4  A    between atoms: C_15  and  C_16
REMARK    5  A    between atoms: C_19  and  O_20
REMARK                            x       y       z     vdW  Elec       q    Type
REMARK                         _______ _______ _______ _____ _____    ______ ____
ROOT
ATOM      1  C   UNL     1       4.503   3.596  18.926  0.00  0.00    +0.000 A 
ATOM      2  N   UNL     1       4.874   2.477  19.497  0.00  0.00    +0.000 NA
ATOM      3  N   UNL     1       3.959   2.252  20.482  0.00  0.00    +0.000 N 
ATOM      4  C   UNL     1       2.973   3.230  20.465  0.00  0.00    +0.000 A 
ATOM      5  S   UNL     1       1.595   3.120  21.386  0.00  0.00    +0.000 S 
ATOM      6  N   UNL     1       3.396   4.163  19.524  0.00  0.00    +0.000 N 
ATOM      7  H   UNL     1       3.930   1.380  20.995  0.00  0.00    +0.000 HD
ENDROOT
BRANCH   1  14
ATOM      8  C   UNL     1       6.803   5.515  19.275  0.00  0.00    +0.000 C 
ATOM      9  C   UNL     1       6.301   5.073  17.924  0.00  0.00    +0.000 A 
ATOM     10  C   UNL     1       6.947   5.597  16.789  0.00  0.00    +0.000 A 
ATOM     11  C   UNL     1       6.534   5.254  15.505  0.00  0.00    +0.000 A 
ATOM     12  C   UNL     1       5.455   4.395  15.334  0.00  0.00    +0.000 A 
ATOM     13  C   UNL     1       4.797   3.865  16.449  0.00  0.00    +0.000 A 
ATOM     14  C   UNL     1       5.218   4.172  17.753  0.00  0.00    +0.000 A 
ENDBRANCH   1  14
BRANCH   6  15
ATOM     15  N   UNL     1       2.681   5.234  19.053  0.00  0.00    +0.000 NA
ATOM     16  C   UNL     1       2.925   6.361  19.650  0.00  0.00    +0.000 C 
BRANCH  16  17
ATOM     17  C   UNL     1       2.202   7.610  19.343  0.00  0.00    +0.000 A 
ATOM     18  C   UNL     1       1.476   8.291  20.323  0.00  0.00    +0.000 A 
ATOM     19  C   UNL     1       0.821   9.483  19.999  0.00  0.00    +0.000 A 
ATOM     20  C   UNL     1       0.891   9.974  18.698  0.00  0.00    +0.000 A 
ATOM     21  C   UNL     1       1.612   9.300  17.716  0.00  0.00    +0.000 A 
ATOM     22  C   UNL     1       2.276   8.117  18.039  0.00  0.00    +0.000 A 
BRANCH  20  23
ATOM     23  O   UNL     1       0.265  11.130  18.339  0.00  0.00    +0.000 OA
ATOM     24  H   UNL     1      -0.674  11.065  18.579  0.00  0.00    +0.000 HD
ENDBRANCH  20  23
ENDBRANCH  16  17
ENDBRANCH   6  15
TORSDOF 4
ENDMDL
MODEL 2
REMARK VINA RESULT:      -8.1      0.575      1.615
REMARK  Name = 
REMARK  5 active torsions:
REMARK  status: ('A' for Active; 'I' for Inactive)
REMARK    1  A    between atoms: C_1  and  C_2
REMARK    2  A    between atoms: C_7  and  C_8
REMARK    3  A    between atoms: N_13  and  N_14
REMARK    4  A    between atoms: C_15  and  C_16
REMARK    5  A    between atoms: C_19  and  O_20
REMARK                            x       y       z     vdW  Elec       q    Type
REMARK                         _______ _______ _______ _____ _____    ______ ____
ROOT
ATOM      1  C   UNL     1       4.677   3.988  19.294  0.00  0.00    +0.000 A 
ATOM      2  N   UNL     1       4.979   2.811  19.781  0.00  0.00    +0.000 NA
ATOM      3  N   UNL     1       3.832   2.352  20.358  0.00  0.00    +0.000 N 
ATOM      4  C   UNL     1       2.793   3.251  20.159  0.00  0.00    +0.000 A 
ATOM      5  S   UNL     1       1.217   2.888  20.539  0.00  0.00    +0.000 S 
ATOM      6  N   UNL     1       3.378   4.365  19.566  0.00  0.00    +0.000 N 
ATOM      7  H   UNL     1       3.746   1.402  20.695  0.00  0.00    +0.000 HD
ENDROOT
BRANCH   1  14
ATOM      8  C   UNL     1       4.658   4.054  16.279  0.00  0.00    +0.000 C 
ATOM      9  C   UNL     1       5.638   4.841  17.111  0.00  0.00    +0.000 A 
ATOM     10  C   UNL     1       6.582   5.631  16.427  0.00  0.00    +0.000 A 
ATOM     11  C   UNL     1       7.533   6.374  17.119  0.00  0.00    +0.000 A 
ATOM     12  C   UNL     1       7.570   6.324  18.508  0.00  0.00    +0.000 A 
ATOM     13  C   UNL     1       6.643   5.544  19.207  0.00  0.00    +0.000 A 
ATOM     14  C   UNL     1       5.654   4.813  18.529  0.00  0.00    +0.000 A 
ENDBRANCH   1  14
BRANCH   6  15
ATOM     15  N   UNL     1       2.727   5.456  19.048  0.00  0.00    +0.000 NA
ATOM     16  C   UNL     1       2.756   6.517  19.797  0.00  0.00    +0.000 C 
BRANCH  16  17
ATOM     17  C   UNL     1       2.048   7.766  19.454  0.00  0.00    +0.000 A 
ATOM     18  C   UNL     1       1.325   8.478  20.413  0.00  0.00    +0.000 A 
ATOM     19  C   UNL     1       0.684   9.668  20.056  0.00  0.00    +0.000 A 
ATOM     20  C   UNL     1       0.767  10.126  18.743  0.00  0.00    +0.000 A 
ATOM     21  C   UNL     1       1.487   9.421  17.782  0.00  0.00    +0.000 A 
ATOM     22  C   UNL     1       2.136   8.239  18.139  0.00  0.00    +0.000 A 
BRANCH  20  23
ATOM     23  O   UNL     1       0.156  11.280  18.352  0.00  0.00    +0.000 OA
ATOM     24  H   UNL     1      -0.768  11.083  18.125  0.00  0.00    +0.000 HD
ENDBRANCH  20  23
ENDBRANCH  16  17
ENDBRANCH   6  15
TORSDOF 4
ENDMDL
MODEL 3
REMARK VINA RESULT:      -8.1      0.115      1.039
REMARK  Name = 
REMARK  5 active torsions:
REMARK  status: ('A' for Active; 'I' for Inactive)
REMARK    1  A    between atoms: C_1  and  C_2
REMARK    2  A    between atoms: C_7  and  C_8
REMARK    3  A    between atoms: N_13  and  N_14
REMARK    4  A    between atoms: C_15  and  C_16
REMARK    5  A    between atoms: C_19  and  O_20
REMARK                            x       y       z     vdW  Elec       q    Type
REMARK                         _______ _______ _______ _____ _____    ______ ____
ROOT
ATOM      1  C   UNL     1       4.526   3.591  18.947  0.00  0.00    +0.000 A 
ATOM      2  N   UNL     1       4.900   2.471  19.514  0.00  0.00    +0.000 NA
ATOM      3  N   UNL     1       3.980   2.237  20.493  0.00  0.00    +0.000 N 
ATOM      4  C   UNL     1       2.990   3.211  20.476  0.00  0.00    +0.000 A 
ATOM      5  S   UNL     1       1.607   3.092  21.388  0.00  0.00    +0.000 S 
ATOM      6  N   UNL     1       3.414   4.151  19.541  0.00  0.00    +0.000 N 
ATOM      7  H   UNL     1       3.952   1.363  21.002  0.00  0.00    +0.000 HD
ENDROOT
BRANCH   1  14
ATOM      8  C   UNL     1       6.826   5.507  19.317  0.00  0.00    +0.000 C 
ATOM      9  C   UNL     1       6.328   5.075  17.962  0.00  0.00    +0.000 A 
ATOM     10  C   UNL     1       6.979   5.606  16.832  0.00  0.00    +0.000 A 
ATOM     11  C   UNL     1       6.571   5.272  15.544  0.00  0.00    +0.000 A 
ATOM     12  C   UNL     1       5.492   4.415  15.364  0.00  0.00    +0.000 A 
ATOM     13  C   UNL     1       4.830   3.877  16.473  0.00  0.00    +0.000 A 
ATOM     14  C   UNL     1       5.247   4.175  17.780  0.00  0.00    +0.000 A 
ENDBRANCH   1  14
BRANCH   6  15
ATOM     15  N   UNL     1       2.698   5.221  19.070  0.00  0.00    +0.000 NA
ATOM     16  C   UNL     1       2.930   6.346  19.676  0.00  0.00    +0.000 C 
BRANCH  16  17
ATOM     17  C   UNL     1       2.203   7.593  19.371  0.00  0.00    +0.000 A 
ATOM     18  C   UNL     1       2.188   8.128  18.080  0.00  0.00    +0.000 A 
ATOM     19  C   UNL     1       1.471   9.300  17.824  0.00  0.00    +0.000 A 
ATOM     20  C   UNL     1       0.786   9.928  18.862  0.00  0.00    +0.000 A 
ATOM     21  C   UNL     1       0.797   9.399  20.150  0.00  0.00    +0.000 A 
ATOM     22  C   UNL     1       1.503   8.224  20.406  0.00  0.00    +0.000 A 
BRANCH  20  23
ATOM     23  O   UNL     1       0.076  11.073  18.657  0.00  0.00    +0.000 OA
ATOM     24  H   UNL     1      -0.721  10.859  18.145  0.00  0.00    +0.000 HD
ENDBRANCH  20  23
ENDBRANCH  16  17
ENDBRANCH   6  15
TORSDOF 4
ENDMDL
MODEL 4
REMARK VINA RESULT:      -8.0      0.555      1.910
REMARK  Name = 
REMARK  5 active torsions:
REMARK  status: ('A' for Active; 'I' for Inactive)
REMARK    1  A    between atoms: C_1  and  C_2
REMARK    2  A    between atoms: C_7  and  C_8
REMARK    3  A    between atoms: N_13  and  N_14
REMARK    4  A    between atoms: C_15  and  C_16
REMARK    5  A    between atoms: C_19  and  O_20
REMARK                            x       y       z     vdW  Elec       q    Type
REMARK                         _______ _______ _______ _____ _____    ______ ____
ROOT
ATOM      1  C   UNL     1       4.687   3.954  19.323  0.00  0.00    +0.000 A 
ATOM      2  N   UNL     1       5.012   2.790  19.828  0.00  0.00    +0.000 NA
ATOM      3  N   UNL     1       3.874   2.318  20.411  0.00  0.00    +0.000 N 
ATOM      4  C   UNL     1       2.817   3.194  20.199  0.00  0.00    +0.000 A 
ATOM      5  S   UNL     1       1.248   2.806  20.583  0.00  0.00    +0.000 S 
ATOM      6  N   UNL     1       3.381   4.310  19.588  0.00  0.00    +0.000 N 
ATOM      7  H   UNL     1       3.806   1.372  20.763  0.00  0.00    +0.000 HD
ENDROOT
BRANCH   1  14
ATOM      8  C   UNL     1       4.638   4.009  16.308  0.00  0.00    +0.000 C 
ATOM      9  C   UNL     1       5.619   4.808  17.127  0.00  0.00    +0.000 A 
ATOM     10  C   UNL     1       6.548   5.605  16.431  0.00  0.00    +0.000 A 
ATOM     11  C   UNL     1       7.499   6.359  17.111  0.00  0.00    +0.000 A 
ATOM     12  C   UNL     1       7.549   6.315  18.499  0.00  0.00    +0.000 A 
ATOM     13  C   UNL     1       6.637   5.529  19.210  0.00  0.00    +0.000 A 
ATOM     14  C   UNL     1       5.649   4.785  18.545  0.00  0.00    +0.000 A 
ENDBRANCH   1  14
BRANCH   6  15
ATOM     15  N   UNL     1       2.709   5.380  19.053  0.00  0.00    +0.000 NA
ATOM     16  C   UNL     1       2.872   6.501  19.688  0.00  0.00    +0.000 C 
BRANCH  16  17
ATOM     17  C   UNL     1       2.172   7.746  19.318  0.00  0.00    +0.000 A 
ATOM     18  C   UNL     1       2.275   8.284  18.033  0.00  0.00    +0.000 A 
ATOM     19  C   UNL     1       1.580   9.455  17.714  0.00  0.00    +0.000 A 
ATOM     20  C   UNL     1       0.800  10.078  18.685  0.00  0.00    +0.000 A 
ATOM     21  C   UNL     1       0.693   9.547  19.967  0.00  0.00    +0.000 A 
ATOM     22  C   UNL     1       1.376   8.373  20.285  0.00  0.00    +0.000 A 
BRANCH  20  23
ATOM     23  O   UNL     1       0.108  11.221  18.416  0.00  0.00    +0.000 OA
ATOM     24  H   UNL     1      -0.589  11.020  17.770  0.00  0.00    +0.000 HD
ENDBRANCH  20  23
ENDBRANCH  16  17
ENDBRANCH   6  15
TORSDOF 4
ENDMDL
MODEL 5
REMARK VINA RESULT:      -7.7      2.227      4.139
REMARK  Name = 
REMARK  5 active torsions:
REMARK  status: ('A' for Active; 'I' for Inactive)
REMARK    1  A    between atoms: C_1  and  C_2
REMARK    2  A    between atoms: C_7  and  C_8
REMARK    3  A    between atoms: N_13  and  N_14
REMARK    4  A    between atoms: C_15  and  C_16
REMARK    5  A    between atoms: C_19  and  O_20
REMARK                            x       y       z     vdW  Elec       q    Type
REMARK                         _______ _______ _______ _____ _____    ______ ____
ROOT
ATOM      1  C   UNL     1       4.450   4.255  18.909  0.00  0.00    +0.000 A 
ATOM      2  N   UNL     1       5.561   3.587  19.098  0.00  0.00    +0.000 NA
ATOM      3  N   UNL     1       6.544   4.356  18.547  0.00  0.00    +0.000 N 
ATOM      4  C   UNL     1       6.019   5.549  18.067  0.00  0.00    +0.000 A 
ATOM      5  S   UNL     1       6.981   6.798  17.544  0.00  0.00    +0.000 S 
ATOM      6  N   UNL     1       4.640   5.426  18.204  0.00  0.00    +0.000 N 
ATOM      7  H   UNL     1       7.524   4.140  18.672  0.00  0.00    +0.000 HD
ENDROOT
BRANCH   1  14
ATOM      8  C   UNL     1       2.434   2.966  17.074  0.00  0.00    +0.000 C 
ATOM      9  C   UNL     1       2.190   3.169  18.547  0.00  0.00    +0.000 A 
ATOM     10  C   UNL     1       0.956   2.734  19.066  0.00  0.00    +0.000 A 
ATOM     11  C   UNL     1       0.644   2.900  20.412  0.00  0.00    +0.000 A 
ATOM     12  C   UNL     1       1.554   3.522  21.259  0.00  0.00    +0.000 A 
ATOM     13  C   UNL     1       2.786   3.964  20.763  0.00  0.00    +0.000 A 
ATOM     14  C   UNL     1       3.133   3.776  19.416  0.00  0.00    +0.000 A 
ENDBRANCH   1  14
BRANCH   6  15
ATOM     15  N   UNL     1       3.704   6.408  18.000  0.00  0.00    +0.000 NA
ATOM     16  C   UNL     1       3.284   6.997  19.079  0.00  0.00    +0.000 C 
BRANCH  16  17
ATOM     17  C   UNL     1       2.223   8.022  19.077  0.00  0.00    +0.000 A 
ATOM     18  C   UNL     1       1.853   8.684  17.904  0.00  0.00    +0.000 A 
ATOM     19  C   UNL     1       0.828   9.635  17.937  0.00  0.00    +0.000 A 
ATOM     20  C   UNL     1       0.194   9.919  19.144  0.00  0.00    +0.000 A 
ATOM     21  C   UNL     1       0.559   9.263  20.317  0.00  0.00    +0.000 A 
ATOM     22  C   UNL     1       1.573   8.306  20.284  0.00  0.00    +0.000 A 
BRANCH  20  23
ATOM     23  O   UNL     1      -0.808  10.840  19.222  0.00  0.00    +0.000 OA
ATOM     24  H   UNL     1      -1.434  10.682  18.496  0.00  0.00    +0.000 HD
ENDBRANCH  20  23
ENDBRANCH  16  17
ENDBRANCH   6  15
TORSDOF 4
ENDMDL
MODEL 6
REMARK VINA RESULT:      -7.6      2.227      4.014
REMARK  Name = 
REMARK  5 active torsions:
REMARK  status: ('A' for Active; 'I' for Inactive)
REMARK    1  A    between atoms: C_1  and  C_2
REMARK    2  A    between atoms: C_7  and  C_8
REMARK    3  A    between atoms: N_13  and  N_14
REMARK    4  A    between atoms: C_15  and  C_16
REMARK    5  A    between atoms: C_19  and  O_20
REMARK                            x       y       z     vdW  Elec       q    Type
REMARK                         _______ _______ _______ _____ _____    ______ ____
ROOT
ATOM      1  C   UNL     1       4.465   4.276  18.878  0.00  0.00    +0.000 A 
ATOM      2  N   UNL     1       5.577   3.602  19.034  0.00  0.00    +0.000 NA
ATOM      3  N   UNL     1       6.550   4.373  18.468  0.00  0.00    +0.000 N 
ATOM      4  C   UNL     1       6.019   5.573  18.014  0.00  0.00    +0.000 A 
ATOM      5  S   UNL     1       6.973   6.823  17.481  0.00  0.00    +0.000 S 
ATOM      6  N   UNL     1       4.643   5.454  18.182  0.00  0.00    +0.000 N 
ATOM      7  H   UNL     1       7.532   4.151  18.568  0.00  0.00    +0.000 HD
ENDROOT
BRANCH   1  14
ATOM      8  C   UNL     1       2.430   2.948  17.092  0.00  0.00    +0.000 C 
ATOM      9  C   UNL     1       2.207   3.172  18.565  0.00  0.00    +0.000 A 
ATOM     10  C   UNL     1       0.982   2.737  19.108  0.00  0.00    +0.000 A 
ATOM     11  C   UNL     1       0.689   2.922  20.456  0.00  0.00    +0.000 A 
ATOM     12  C   UNL     1       1.607   3.561  21.280  0.00  0.00    +0.000 A 
ATOM     13  C   UNL     1       2.829   4.003  20.760  0.00  0.00    +0.000 A 
ATOM     14  C   UNL     1       3.158   3.797  19.411  0.00  0.00    +0.000 A 
ENDBRANCH   1  14
BRANCH   6  15
ATOM     15  N   UNL     1       3.707   6.441  18.010  0.00  0.00    +0.000 NA
ATOM     16  C   UNL     1       3.262   6.972  19.109  0.00  0.00    +0.000 C 
BRANCH  16  17
ATOM     17  C   UNL     1       2.196   7.992  19.139  0.00  0.00    +0.000 A 
ATOM     18  C   UNL     1       1.530   8.312  20.324  0.00  0.00    +0.000 A 
ATOM     19  C   UNL     1       0.539   9.299  20.317  0.00  0.00    +0.000 A 
ATOM     20  C   UNL     1       0.221   9.946  19.126  0.00  0.00    +0.000 A 
ATOM     21  C   UNL     1       0.882   9.631  17.941  0.00  0.00    +0.000 A 
ATOM     22  C   UNL     1       1.878   8.655  17.947  0.00  0.00    +0.000 A 
BRANCH  20  23
ATOM     23  O   UNL     1      -0.739  10.912  19.075  0.00  0.00    +0.000 OA
ATOM     24  H   UNL     1      -0.867  11.176  18.148  0.00  0.00    +0.000 HD
ENDBRANCH  20  23
ENDBRANCH  16  17
ENDBRANCH   6  15
TORSDOF 4
ENDMDL
MODEL 7
REMARK VINA RESULT:      -7.6      1.167      1.566
REMARK  Name = 
REMARK  5 active torsions:
REMARK  status: ('A' for Active; 'I' for Inactive)
REMARK    1  A    between atoms: C_1  and  C_2
REMARK    2  A    between atoms: C_7  and  C_8
REMARK    3  A    between atoms: N_13  and  N_14
REMARK    4  A    between atoms: C_15  and  C_16
REMARK    5  A    between atoms: C_19  and  O_20
REMARK                            x       y       z     vdW  Elec       q    Type
REMARK                         _______ _______ _______ _____ _____    ______ ____
ROOT
ATOM      1  C   UNL     1       4.051   3.286  17.666  0.00  0.00    +0.000 A 
ATOM      2  N   UNL     1       4.089   1.993  17.870  0.00  0.00    +0.000 NA
ATOM      3  N   UNL     1       2.924   1.693  18.511  0.00  0.00    +0.000 N 
ATOM      4  C   UNL     1       2.134   2.828  18.643  0.00  0.00    +0.000 A 
ATOM      5  S   UNL     1       0.561   2.760  19.174  0.00  0.00    +0.000 S 
ATOM      6  N   UNL     1       2.923   3.881  18.192  0.00  0.00    +0.000 N 
ATOM      7  H   UNL     1       2.631   0.737  18.670  0.00  0.00    +0.000 HD
ENDROOT
BRANCH   1  14
ATOM      8  C   UNL     1       6.074   4.980  19.127  0.00  0.00    +0.000 C 
ATOM      9  C   UNL     1       6.077   4.806  17.630  0.00  0.00    +0.000 A 
ATOM     10  C   UNL     1       7.077   5.479  16.901  0.00  0.00    +0.000 A 
ATOM     11  C   UNL     1       7.140   5.385  15.514  0.00  0.00    +0.000 A 
ATOM     12  C   UNL     1       6.193   4.633  14.830  0.00  0.00    +0.000 A 
ATOM     13  C   UNL     1       5.190   3.958  15.534  0.00  0.00    +0.000 A 
ATOM     14  C   UNL     1       5.128   4.013  16.936  0.00  0.00    +0.000 A 
ENDBRANCH   1  14
BRANCH   6  15
ATOM     15  N   UNL     1       2.525   5.178  17.994  0.00  0.00    +0.000 NA
ATOM     16  C   UNL     1       2.576   5.934  19.049  0.00  0.00    +0.000 C 
BRANCH  16  17
ATOM     17  C   UNL     1       2.115   7.336  19.059  0.00  0.00    +0.000 A 
ATOM     18  C   UNL     1       2.155   8.123  17.906  0.00  0.00    +0.000 A 
ATOM     19  C   UNL     1       1.691   9.441  17.950  0.00  0.00    +0.000 A 
ATOM     20  C   UNL     1       1.201   9.958  19.147  0.00  0.00    +0.000 A 
ATOM     21  C   UNL     1       1.159   9.179  20.300  0.00  0.00    +0.000 A 
ATOM     22  C   UNL     1       1.612   7.860  20.256  0.00  0.00    +0.000 A 
BRANCH  20  23
ATOM     23  O   UNL     1       0.741  11.239  19.234  0.00  0.00    +0.000 OA
ATOM     24  H   UNL     1      -0.010  11.342  18.626  0.00  0.00    +0.000 HD
ENDBRANCH  20  23
ENDBRANCH  16  17
ENDBRANCH   6  15
TORSDOF 4
ENDMDL
MODEL 8
REMARK VINA RESULT:      -7.5      1.498      2.486
REMARK  Name = 
REMARK  5 active torsions:
REMARK  status: ('A' for Active; 'I' for Inactive)
REMARK    1  A    between atoms: C_1  and  C_2
REMARK    2  A    between atoms: C_7  and  C_8
REMARK    3  A    between atoms: N_13  and  N_14
REMARK    4  A    between atoms: C_15  and  C_16
REMARK    5  A    between atoms: C_19  and  O_20
REMARK                            x       y       z     vdW  Elec       q    Type
REMARK                         _______ _______ _______ _____ _____    ______ ____
ROOT
ATOM      1  C   UNL     1       5.020   4.443  18.164  0.00  0.00    +0.000 A 
ATOM      2  N   UNL     1       5.173   3.299  17.544  0.00  0.00    +0.000 NA
ATOM      3  N   UNL     1       4.006   2.622  17.741  0.00  0.00    +0.000 N 
ATOM      4  C   UNL     1       3.102   3.403  18.448  0.00  0.00    +0.000 A 
ATOM      5  S   UNL     1       1.514   2.959  18.654  0.00  0.00    +0.000 S 
ATOM      6  N   UNL     1       3.809   4.542  18.818  0.00  0.00    +0.000 N 
ATOM      7  H   UNL     1       3.801   1.759  17.254  0.00  0.00    +0.000 HD
ENDROOT
BRANCH   1  14
ATOM      8  C   UNL     1       5.030   6.599  16.056  0.00  0.00    +0.000 C 
ATOM      9  C   UNL     1       6.059   6.520  17.154  0.00  0.00    +0.000 A 
ATOM     10  C   UNL     1       7.064   7.506  17.173  0.00  0.00    +0.000 A 
ATOM     11  C   UNL     1       8.063   7.496  18.142  0.00  0.00    +0.000 A 
ATOM     12  C   UNL     1       8.085   6.488  19.098  0.00  0.00    +0.000 A 
ATOM     13  C   UNL     1       7.097   5.497  19.096  0.00  0.00    +0.000 A 
ATOM     14  C   UNL     1       6.062   5.508  18.147  0.00  0.00    +0.000 A 
ENDBRANCH   1  14
BRANCH   6  15
ATOM     15  N   UNL     1       3.297   5.671  19.406  0.00  0.00    +0.000 NA
ATOM     16  C   UNL     1       2.599   6.431  18.618  0.00  0.00    +0.000 C 
BRANCH  16  17
ATOM     17  C   UNL     1       2.032   7.726  19.040  0.00  0.00    +0.000 A 
ATOM     18  C   UNL     1       1.881   8.782  18.138  0.00  0.00    +0.000 A 
ATOM     19  C   UNL     1       1.321   9.988  18.570  0.00  0.00    +0.000 A 
ATOM     20  C   UNL     1       0.929  10.127  19.899  0.00  0.00    +0.000 A 
ATOM     21  C   UNL     1       1.077   9.079  20.803  0.00  0.00    +0.000 A 
ATOM     22  C   UNL     1       1.625   7.870  20.372  0.00  0.00    +0.000 A 
BRANCH  20  23
ATOM     23  O   UNL     1       0.381  11.286  20.363  0.00  0.00    +0.000 OA
ATOM     24  H   UNL     1      -0.124  11.702  19.644  0.00  0.00    +0.000 HD
ENDBRANCH  20  23
ENDBRANCH  16  17
ENDBRANCH   6  15
TORSDOF 4
ENDMDL
MODEL 9
REMARK VINA RESULT:      -7.5      1.490      2.231
REMARK  Name = 
REMARK  5 active torsions:
REMARK  status: ('A' for Active; 'I' for Inactive)
REMARK    1  A    between atoms: C_1  and  C_2
REMARK    2  A    between atoms: C_7  and  C_8
REMARK    3  A    between atoms: N_13  and  N_14
REMARK    4  A    between atoms: C_15  and  C_16
REMARK    5  A    between atoms: C_19  and  O_20
REMARK                            x       y       z     vdW  Elec       q    Type
REMARK                         _______ _______ _______ _____ _____    ______ ____
ROOT
ATOM      1  C   UNL     1       4.832   4.430  18.192  0.00  0.00    +0.000 A 
ATOM      2  N   UNL     1       4.939   3.272  17.590  0.00  0.00    +0.000 NA
ATOM      3  N   UNL     1       3.739   2.653  17.780  0.00  0.00    +0.000 N 
ATOM      4  C   UNL     1       2.863   3.486  18.463  0.00  0.00    +0.000 A 
ATOM      5  S   UNL     1       1.254   3.121  18.654  0.00  0.00    +0.000 S 
ATOM      6  N   UNL     1       3.619   4.596  18.827  0.00  0.00    +0.000 N 
ATOM      7  H   UNL     1       3.500   1.793  17.302  0.00  0.00    +0.000 HD
ENDROOT
BRANCH   1  14
ATOM      8  C   UNL     1       4.953   6.575  16.075  0.00  0.00    +0.000 C 
ATOM      9  C   UNL     1       5.973   6.452  17.177  0.00  0.00    +0.000 A 
ATOM     10  C   UNL     1       7.023   7.389  17.196  0.00  0.00    +0.000 A 
ATOM     11  C   UNL     1       8.017   7.335  18.169  0.00  0.00    +0.000 A 
ATOM     12  C   UNL     1       7.987   6.331  19.130  0.00  0.00    +0.000 A 
ATOM     13  C   UNL     1       6.953   5.388  19.128  0.00  0.00    +0.000 A 
ATOM     14  C   UNL     1       5.924   5.445  18.175  0.00  0.00    +0.000 A 
ENDBRANCH   1  14
BRANCH   6  15
ATOM     15  N   UNL     1       3.153   5.756  19.392  0.00  0.00    +0.000 NA
ATOM     16  C   UNL     1       2.480   6.524  18.591  0.00  0.00    +0.000 C 
BRANCH  16  17
ATOM     17  C   UNL     1       1.965   7.849  18.986  0.00  0.00    +0.000 A 
ATOM     18  C   UNL     1       1.545   8.106  20.294  0.00  0.00    +0.000 A 
ATOM     19  C   UNL     1       1.083   9.380  20.636  0.00  0.00    +0.000 A 
ATOM     20  C   UNL     1       1.037  10.378  19.667  0.00  0.00    +0.000 A 
ATOM     21  C   UNL     1       1.454  10.129  18.362  0.00  0.00    +0.000 A 
ATOM     22  C   UNL     1       1.927   8.862  18.020  0.00  0.00    +0.000 A 
BRANCH  20  23
ATOM     23  O   UNL     1       0.592  11.633  19.958  0.00  0.00    +0.000 OA
ATOM     24  H   UNL     1       1.154  12.279  19.498  0.00  0.00    +0.000 HD
ENDBRANCH  20  23
ENDBRANCH  16  17
ENDBRANCH   6  15
TORSDOF 4
ENDMDL
