MODEL 1
REMARK VINA RESULT:      -7.9      0.000      0.000
REMARK  Name = 
REMARK  7 active torsions:
REMARK  status: ('A' for Active; 'I' for Inactive)
REMARK    1  A    between atoms: C_1  and  C_2
REMARK    2  A    between atoms: N_4  and  C_5
REMARK    3  A    between atoms: C_5  and  C_6
REMARK    4  A    between atoms: N_8  and  C_9
REMARK    5  A    between atoms: C_13  and  N_14
REMARK    6  A    between atoms: C_17  and  C_18
REMARK    7  A    between atoms: C_18  and  C_19
REMARK                            x       y       z     vdW  Elec       q    Type
REMARK                         _______ _______ _______ _____ _____    ______ ____
ROOT
ATOM      1  C   UNL     1       2.922   6.919  18.710  0.00  0.00    +0.000 A 
ATOM      2  C   UNL     1       2.662   7.996  17.869  0.00  0.00    +0.000 A 
ATOM      3  C   UNL     1       1.829   9.040  18.265  0.00  0.00    +0.000 A 
ATOM      4  F   UNL     1       1.567   9.972  17.338  0.00  0.00    +0.000 F 
ATOM      5  C   UNL     1       1.243   9.096  19.541  0.00  0.00    +0.000 A 
ATOM      6  C   UNL     1       1.521   7.994  20.373  0.00  0.00    +0.000 A 
ATOM      7  F   UNL     1       1.072   7.957  21.644  0.00  0.00    +0.000 F 
ATOM      8  C   UNL     1       2.319   6.909  19.969  0.00  0.00    +0.000 A 
ENDROOT
BRANCH   1  11
ATOM      9  C   UNL     1       5.591   4.496  18.001  0.00  0.00    +0.000 C 
ATOM     10  C   UNL     1       5.189   5.950  18.179  0.00  0.00    +0.000 C 
ATOM     11  N   UNL     1       3.763   5.872  18.278  0.00  0.00    +0.000 N 
ATOM     12  C   UNL     1       3.331   4.643  17.788  0.00  0.00    +0.000 C 
ATOM     13  O   UNL     1       2.193   4.266  17.586  0.00  0.00    +0.000 OA
ATOM     14  O   UNL     1       4.409   3.863  17.486  0.00  0.00    +0.000 OA
BRANCH   9  15
ATOM     15  C   UNL     1       6.740   4.291  17.011  0.00  0.00    +0.000 C 
BRANCH  15  19
ATOM     16  C   UNL     1       6.214   3.758  13.288  0.00  0.00    +0.000 C 
ATOM     17  C   UNL     1       6.739   4.399  14.544  0.00  0.00    +0.000 C 
ATOM     18  O   UNL     1       7.502   5.360  14.527  0.00  0.00    +0.000 OA
ATOM     19  N   UNL     1       6.298   3.814  15.708  0.00  0.00    +0.000 N 
ATOM     20  H   UNL     1       5.581   3.101  15.663  0.00  0.00    +0.000 HD
ENDBRANCH  15  19
ENDBRANCH   9  15
ENDBRANCH   1  11
BRANCH   5  21
ATOM     21  N   UNL     1       0.449  10.165  19.940  0.00  0.00    +0.000 N 
ATOM     22  C   UNL     1      -0.969  10.222  19.605  0.00  0.00    +0.000 C 
ATOM     23  C   UNL     1      -1.239  11.494  18.804  0.00  0.00    +0.000 C 
ATOM     24  C   UNL     1      -0.733  12.763  19.518  0.00  0.00    +0.000 C 
ATOM     25  C   UNL     1       0.752  12.590  19.885  0.00  0.00    +0.000 C 
ATOM     26  C   UNL     1       1.007  11.305  20.671  0.00  0.00    +0.000 C 
BRANCH  24  27
ATOM     27  C   UNL     1      -1.561  13.120  20.763  0.00  0.00    +0.000 C 
BRANCH  27  28
ATOM     28  C   UNL     1      -3.049  13.064  20.458  0.00  0.00    +0.000 C 
ATOM     29  N   UNL     1      -4.284  13.018  20.205  0.00  0.00    +0.000 NA
ENDBRANCH  27  28
ENDBRANCH  24  27
ENDBRANCH   5  21
TORSDOF 6
ENDMDL
MODEL 2
REMARK VINA RESULT:      -7.9      0.141      1.569
REMARK  Name = 
REMARK  7 active torsions:
REMARK  status: ('A' for Active; 'I' for Inactive)
REMARK    1  A    between atoms: C_1  and  C_2
REMARK    2  A    between atoms: N_4  and  C_5
REMARK    3  A    between atoms: C_5  and  C_6
REMARK    4  A    between atoms: N_8  and  C_9
REMARK    5  A    between atoms: C_13  and  N_14
REMARK    6  A    between atoms: C_17  and  C_18
REMARK    7  A    between atoms: C_18  and  C_19
REMARK                            x       y       z     vdW  Elec       q    Type
REMARK                         _______ _______ _______ _____ _____    ______ ____
ROOT
ATOM      1  C   UNL     1       2.891   6.995  18.687  0.00  0.00    +0.000 A 
ATOM      2  C   UNL     1       2.309   7.009  19.950  0.00  0.00    +0.000 A 
ATOM      3  C   UNL     1       1.502   8.066  20.366  0.00  0.00    +0.000 A 
ATOM      4  F   UNL     1       1.079   8.023  21.636  0.00  0.00    +0.000 F 
ATOM      5  C   UNL     1       1.190   9.151  19.530  0.00  0.00    +0.000 A 
ATOM      6  C   UNL     1       1.792   9.115  18.256  0.00  0.00    +0.000 A 
ATOM      7  F   UNL     1       1.521  10.063  17.336  0.00  0.00    +0.000 F 
ATOM      8  C   UNL     1       2.648   8.079  17.841  0.00  0.00    +0.000 A 
ENDROOT
BRANCH   1  11
ATOM      9  C   UNL     1       5.499   4.476  18.098  0.00  0.00    +0.000 C 
ATOM     10  C   UNL     1       5.139   5.945  18.241  0.00  0.00    +0.000 C 
ATOM     11  N   UNL     1       3.710   5.915  18.297  0.00  0.00    +0.000 N 
ATOM     12  C   UNL     1       3.253   4.693  17.812  0.00  0.00    +0.000 C 
ATOM     13  O   UNL     1       2.109   4.350  17.579  0.00  0.00    +0.000 OA
ATOM     14  O   UNL     1       4.313   3.873  17.554  0.00  0.00    +0.000 OA
BRANCH   9  15
ATOM     15  C   UNL     1       6.670   4.218  17.146  0.00  0.00    +0.000 C 
BRANCH  15  19
ATOM     16  C   UNL     1       6.209   3.795  13.401  0.00  0.00    +0.000 C 
ATOM     17  C   UNL     1       6.713   4.398  14.684  0.00  0.00    +0.000 C 
ATOM     18  O   UNL     1       7.478   5.358  14.709  0.00  0.00    +0.000 OA
ATOM     19  N   UNL     1       6.251   3.781  15.823  0.00  0.00    +0.000 N 
ATOM     20  H   UNL     1       5.533   3.070  15.744  0.00  0.00    +0.000 HD
ENDBRANCH  15  19
ENDBRANCH   9  15
ENDBRANCH   1  11
BRANCH   5  21
ATOM     21  N   UNL     1       0.348  10.178  19.940  0.00  0.00    +0.000 N 
ATOM     22  C   UNL     1      -1.047  10.229  19.518  0.00  0.00    +0.000 C 
ATOM     23  C   UNL     1      -1.294  11.542  18.779  0.00  0.00    +0.000 C 
ATOM     24  C   UNL     1      -0.863  12.774  19.598  0.00  0.00    +0.000 C 
ATOM     25  C   UNL     1       0.600  12.607  20.049  0.00  0.00    +0.000 C 
ATOM     26  C   UNL     1       0.834  11.281  20.772  0.00  0.00    +0.000 C 
BRANCH  24  27
ATOM     27  C   UNL     1      -1.776  13.040  20.806  0.00  0.00    +0.000 C 
BRANCH  27  28
ATOM     28  C   UNL     1      -3.240  12.945  20.411  0.00  0.00    +0.000 C 
ATOM     29  N   UNL     1      -4.456  12.866  20.084  0.00  0.00    +0.000 NA
ENDBRANCH  27  28
ENDBRANCH  24  27
ENDBRANCH   5  21
TORSDOF 6
ENDMDL
MODEL 3
REMARK VINA RESULT:      -7.8      1.082      1.942
REMARK  Name = 
REMARK  7 active torsions:
REMARK  status: ('A' for Active; 'I' for Inactive)
REMARK    1  A    between atoms: C_1  and  C_2
REMARK    2  A    between atoms: N_4  and  C_5
REMARK    3  A    between atoms: C_5  and  C_6
REMARK    4  A    between atoms: N_8  and  C_9
REMARK    5  A    between atoms: C_13  and  N_14
REMARK    6  A    between atoms: C_17  and  C_18
REMARK    7  A    between atoms: C_18  and  C_19
REMARK                            x       y       z     vdW  Elec       q    Type
REMARK                         _______ _______ _______ _____ _____    ______ ____
ROOT
ATOM      1  C   UNL     1       3.017   6.916  18.502  0.00  0.00    +0.000 A 
ATOM      2  C   UNL     1       2.461   6.812  19.773  0.00  0.00    +0.000 A 
ATOM      3  C   UNL     1       1.657   7.821  20.298  0.00  0.00    +0.000 A 
ATOM      4  F   UNL     1       1.261   7.661  21.568  0.00  0.00    +0.000 F 
ATOM      5  C   UNL     1       1.318   8.973  19.568  0.00  0.00    +0.000 A 
ATOM      6  C   UNL     1       1.893   9.055  18.284  0.00  0.00    +0.000 A 
ATOM      7  F   UNL     1       1.597  10.079  17.458  0.00  0.00    +0.000 F 
ATOM      8  C   UNL     1       2.748   8.068  17.761  0.00  0.00    +0.000 A 
ENDROOT
BRANCH   1  11
ATOM      9  C   UNL     1       5.652   4.529  17.578  0.00  0.00    +0.000 C 
ATOM     10  C   UNL     1       5.247   5.977  17.796  0.00  0.00    +0.000 C 
ATOM     11  N   UNL     1       3.835   5.882  18.001  0.00  0.00    +0.000 N 
ATOM     12  C   UNL     1       3.381   4.651  17.536  0.00  0.00    +0.000 C 
ATOM     13  O   UNL     1       2.234   4.261  17.417  0.00  0.00    +0.000 OA
ATOM     14  O   UNL     1       4.441   3.885  17.148  0.00  0.00    +0.000 OA
BRANCH   9  15
ATOM     15  C   UNL     1       6.725   4.344  16.503  0.00  0.00    +0.000 C 
BRANCH  15  19
ATOM     16  C   UNL     1       5.965   3.593  12.858  0.00  0.00    +0.000 C 
ATOM     17  C   UNL     1       6.562   4.310  14.039  0.00  0.00    +0.000 C 
ATOM     18  O   UNL     1       7.311   5.276  13.918  0.00  0.00    +0.000 OA
ATOM     19  N   UNL     1       6.206   3.789  15.261  0.00  0.00    +0.000 N 
ATOM     20  H   UNL     1       5.496   3.068  15.303  0.00  0.00    +0.000 HD
ENDBRANCH  15  19
ENDBRANCH   9  15
ENDBRANCH   1  11
BRANCH   5  21
ATOM     21  N   UNL     1       0.479   9.952  20.085  0.00  0.00    +0.000 N 
ATOM     22  C   UNL     1      -0.853  10.175  19.536  0.00  0.00    +0.000 C 
ATOM     23  C   UNL     1      -0.957  11.621  19.056  0.00  0.00    +0.000 C 
ATOM     24  C   UNL     1      -0.573  12.638  20.148  0.00  0.00    +0.000 C 
ATOM     25  C   UNL     1       0.818  12.291  20.710  0.00  0.00    +0.000 C 
ATOM     26  C   UNL     1       0.909  10.837  21.171  0.00  0.00    +0.000 C 
BRANCH  24  27
ATOM     27  C   UNL     1      -1.610  12.720  21.281  0.00  0.00    +0.000 C 
BRANCH  27  28
ATOM     28  C   UNL     1      -1.093  13.574  22.427  0.00  0.00    +0.000 C 
ATOM     29  N   UNL     1      -0.664  14.283  23.378  0.00  0.00    +0.000 NA
ENDBRANCH  27  28
ENDBRANCH  24  27
ENDBRANCH   5  21
TORSDOF 6
ENDMDL
MODEL 4
REMARK VINA RESULT:      -7.8      1.034      1.123
REMARK  Name = 
REMARK  7 active torsions:
REMARK  status: ('A' for Active; 'I' for Inactive)
REMARK    1  A    between atoms: C_1  and  C_2
REMARK    2  A    between atoms: N_4  and  C_5
REMARK    3  A    between atoms: C_5  and  C_6
REMARK    4  A    between atoms: N_8  and  C_9
REMARK    5  A    between atoms: C_13  and  N_14
REMARK    6  A    between atoms: C_17  and  C_18
REMARK    7  A    between atoms: C_18  and  C_19
REMARK                            x       y       z     vdW  Elec       q    Type
REMARK                         _______ _______ _______ _____ _____    ______ ____
ROOT
ATOM      1  C   UNL     1       2.939   6.881  18.705  0.00  0.00    +0.000 A 
ATOM      2  C   UNL     1       2.705   7.990  17.899  0.00  0.00    +0.000 A 
ATOM      3  C   UNL     1       1.882   9.032  18.319  0.00  0.00    +0.000 A 
ATOM      4  F   UNL     1       1.647   9.998  17.421  0.00  0.00    +0.000 F 
ATOM      5  C   UNL     1       1.279   9.053  19.587  0.00  0.00    +0.000 A 
ATOM      6  C   UNL     1       1.529   7.918  20.385  0.00  0.00    +0.000 A 
ATOM      7  F   UNL     1       1.062   7.844  21.648  0.00  0.00    +0.000 F 
ATOM      8  C   UNL     1       2.318   6.836  19.954  0.00  0.00    +0.000 A 
ENDROOT
BRANCH   1  11
ATOM      9  C   UNL     1       5.589   4.455  17.937  0.00  0.00    +0.000 C 
ATOM     10  C   UNL     1       5.197   5.908  18.145  0.00  0.00    +0.000 C 
ATOM     11  N   UNL     1       3.772   5.838  18.249  0.00  0.00    +0.000 N 
ATOM     12  C   UNL     1       3.330   4.621  17.737  0.00  0.00    +0.000 C 
ATOM     13  O   UNL     1       2.187   4.255  17.532  0.00  0.00    +0.000 OA
ATOM     14  O   UNL     1       4.401   3.840  17.414  0.00  0.00    +0.000 OA
BRANCH   9  15
ATOM     15  C   UNL     1       6.732   4.263  16.938  0.00  0.00    +0.000 C 
BRANCH  15  19
ATOM     16  C   UNL     1       6.190   3.738  13.216  0.00  0.00    +0.000 C 
ATOM     17  C   UNL     1       6.721   4.376  14.471  0.00  0.00    +0.000 C 
ATOM     18  O   UNL     1       7.484   5.337  14.453  0.00  0.00    +0.000 OA
ATOM     19  N   UNL     1       6.285   3.789  15.636  0.00  0.00    +0.000 N 
ATOM     20  H   UNL     1       5.567   3.076  15.592  0.00  0.00    +0.000 HD
ENDBRANCH  15  19
ENDBRANCH   9  15
ENDBRANCH   1  11
BRANCH   5  21
ATOM     21  N   UNL     1       0.495  10.118  20.012  0.00  0.00    +0.000 N 
ATOM     22  C   UNL     1      -0.840  10.341  19.468  0.00  0.00    +0.000 C 
ATOM     23  C   UNL     1      -0.893  11.731  18.837  0.00  0.00    +0.000 C 
ATOM     24  C   UNL     1      -0.441  12.840  19.806  0.00  0.00    +0.000 C 
ATOM     25  C   UNL     1       0.948  12.493  20.374  0.00  0.00    +0.000 C 
ATOM     26  C   UNL     1       0.988  11.094  20.987  0.00  0.00    +0.000 C 
BRANCH  24  27
ATOM     27  C   UNL     1      -1.445  13.089  20.943  0.00  0.00    +0.000 C 
BRANCH  27  28
ATOM     28  C   UNL     1      -0.816  13.920  22.049  0.00  0.00    +0.000 C 
ATOM     29  N   UNL     1      -0.293  14.610  22.967  0.00  0.00    +0.000 NA
ENDBRANCH  27  28
ENDBRANCH  24  27
ENDBRANCH   5  21
TORSDOF 6
ENDMDL
MODEL 5
REMARK VINA RESULT:      -7.6      1.051      2.090
REMARK  Name = 
REMARK  7 active torsions:
REMARK  status: ('A' for Active; 'I' for Inactive)
REMARK    1  A    between atoms: C_1  and  C_2
REMARK    2  A    between atoms: N_4  and  C_5
REMARK    3  A    between atoms: C_5  and  C_6
REMARK    4  A    between atoms: N_8  and  C_9
REMARK    5  A    between atoms: C_13  and  N_14
REMARK    6  A    between atoms: C_17  and  C_18
REMARK    7  A    between atoms: C_18  and  C_19
REMARK                            x       y       z     vdW  Elec       q    Type
REMARK                         _______ _______ _______ _____ _____    ______ ____
ROOT
ATOM      1  C   UNL     1       2.898   6.930  18.692  0.00  0.00    +0.000 A 
ATOM      2  C   UNL     1       2.434   6.958  20.003  0.00  0.00    +0.000 A 
ATOM      3  C   UNL     1       1.629   7.997  20.466  0.00  0.00    +0.000 A 
ATOM      4  F   UNL     1       1.327   7.973  21.771  0.00  0.00    +0.000 F 
ATOM      5  C   UNL     1       1.200   9.046  19.636  0.00  0.00    +0.000 A 
ATOM      6  C   UNL     1       1.684   8.997  18.314  0.00  0.00    +0.000 A 
ATOM      7  F   UNL     1       1.294   9.909  17.400  0.00  0.00    +0.000 F 
ATOM      8  C   UNL     1       2.538   7.981  17.846  0.00  0.00    +0.000 A 
ENDROOT
BRANCH   1  11
ATOM      9  C   UNL     1       5.514   4.452  17.980  0.00  0.00    +0.000 C 
ATOM     10  C   UNL     1       5.147   5.912  18.178  0.00  0.00    +0.000 C 
ATOM     11  N   UNL     1       3.719   5.870  18.254  0.00  0.00    +0.000 N 
ATOM     12  C   UNL     1       3.263   4.661  17.735  0.00  0.00    +0.000 C 
ATOM     13  O   UNL     1       2.118   4.318  17.508  0.00  0.00    +0.000 OA
ATOM     14  O   UNL     1       4.324   3.859  17.435  0.00  0.00    +0.000 OA
BRANCH   9  15
ATOM     15  C   UNL     1       6.672   4.235  17.003  0.00  0.00    +0.000 C 
BRANCH  15  19
ATOM     16  C   UNL     1       6.182   3.754  13.268  0.00  0.00    +0.000 C 
ATOM     17  C   UNL     1       6.701   4.373  14.538  0.00  0.00    +0.000 C 
ATOM     18  O   UNL     1       7.476   5.326  14.542  0.00  0.00    +0.000 OA
ATOM     19  N   UNL     1       6.240   3.780  15.690  0.00  0.00    +0.000 N 
ATOM     20  H   UNL     1       5.515   3.075  15.627  0.00  0.00    +0.000 HD
ENDBRANCH  15  19
ENDBRANCH   9  15
ENDBRANCH   1  11
BRANCH   5  21
ATOM     21  N   UNL     1       0.361  10.053  20.098  0.00  0.00    +0.000 N 
ATOM     22  C   UNL     1       0.586  11.449  19.742  0.00  0.00    +0.000 C 
ATOM     23  C   UNL     1       0.773  12.264  21.020  0.00  0.00    +0.000 C 
ATOM     24  C   UNL     1      -0.384  12.072  22.020  0.00  0.00    +0.000 C 
ATOM     25  C   UNL     1      -0.587  10.570  22.291  0.00  0.00    +0.000 C 
ATOM     26  C   UNL     1      -0.756   9.768  21.001  0.00  0.00    +0.000 C 
BRANCH  24  27
ATOM     27  C   UNL     1      -1.696  12.720  21.549  0.00  0.00    +0.000 C 
BRANCH  27  28
ATOM     28  C   UNL     1      -2.817  12.456  22.541  0.00  0.00    +0.000 C 
ATOM     29  N   UNL     1      -3.747  12.238  23.365  0.00  0.00    +0.000 NA
ENDBRANCH  27  28
ENDBRANCH  24  27
ENDBRANCH   5  21
TORSDOF 6
ENDMDL
MODEL 6
REMARK VINA RESULT:      -7.4      3.894      9.971
REMARK  Name = 
REMARK  7 active torsions:
REMARK  status: ('A' for Active; 'I' for Inactive)
REMARK    1  A    between atoms: C_1  and  C_2
REMARK    2  A    between atoms: N_4  and  C_5
REMARK    3  A    between atoms: C_5  and  C_6
REMARK    4  A    between atoms: N_8  and  C_9
REMARK    5  A    between atoms: C_13  and  N_14
REMARK    6  A    between atoms: C_17  and  C_18
REMARK    7  A    between atoms: C_18  and  C_19
REMARK                            x       y       z     vdW  Elec       q    Type
REMARK                         _______ _______ _______ _____ _____    ______ ____
ROOT
ATOM      1  C   UNL     1       0.666   9.375  20.611  0.00  0.00    +0.000 A 
ATOM      2  C   UNL     1       1.031   8.145  21.146  0.00  0.00    +0.000 A 
ATOM      3  C   UNL     1       1.734   7.206  20.395  0.00  0.00    +0.000 A 
ATOM      4  F   UNL     1       1.942   6.018  20.979  0.00  0.00    +0.000 F 
ATOM      5  C   UNL     1       2.156   7.455  19.079  0.00  0.00    +0.000 A 
ATOM      6  C   UNL     1       1.773   8.708  18.557  0.00  0.00    +0.000 A 
ATOM      7  F   UNL     1       2.171   9.096  17.329  0.00  0.00    +0.000 F 
ATOM      8  C   UNL     1       1.021   9.645  19.287  0.00  0.00    +0.000 A 
ENDROOT
BRANCH   1  11
ATOM      9  C   UNL     1      -1.601  11.869  22.073  0.00  0.00    +0.000 C 
ATOM     10  C   UNL     1      -0.765  11.433  20.882  0.00  0.00    +0.000 C 
ATOM     11  N   UNL     1      -0.053  10.303  21.393  0.00  0.00    +0.000 N 
ATOM     12  C   UNL     1      -0.095  10.320  22.785  0.00  0.00    +0.000 C 
ATOM     13  O   UNL     1       0.503   9.607  23.570  0.00  0.00    +0.000 OA
ATOM     14  O   UNL     1      -0.901  11.335  23.209  0.00  0.00    +0.000 OA
BRANCH   9  15
ATOM     15  C   UNL     1      -1.713  13.388  22.225  0.00  0.00    +0.000 C 
BRANCH  15  19
ATOM     16  C   UNL     1      -2.260  15.047  25.596  0.00  0.00    +0.000 C 
ATOM     17  C   UNL     1      -1.561  14.704  24.308  0.00  0.00    +0.000 C 
ATOM     18  O   UNL     1      -0.483  15.196  23.988  0.00  0.00    +0.000 OA
ATOM     19  N   UNL     1      -2.234  13.800  23.520  0.00  0.00    +0.000 N 
ATOM     20  H   UNL     1      -3.059  13.341  23.887  0.00  0.00    +0.000 HD
ENDBRANCH  15  19
ENDBRANCH   9  15
ENDBRANCH   1  11
BRANCH   5  21
ATOM     21  N   UNL     1       2.894   6.528  18.354  0.00  0.00    +0.000 N 
ATOM     22  C   UNL     1       2.299   5.280  17.890  0.00  0.00    +0.000 C 
ATOM     23  C   UNL     1       3.089   4.108  18.467  0.00  0.00    +0.000 C 
ATOM     24  C   UNL     1       4.598   4.207  18.168  0.00  0.00    +0.000 C 
ATOM     25  C   UNL     1       5.127   5.575  18.637  0.00  0.00    +0.000 C 
ATOM     26  C   UNL     1       4.315   6.736  18.064  0.00  0.00    +0.000 C 
BRANCH  24  27
ATOM     27  C   UNL     1       4.932   3.975  16.686  0.00  0.00    +0.000 C 
BRANCH  27  28
ATOM     28  C   UNL     1       6.401   4.251  16.412  0.00  0.00    +0.000 C 
ATOM     29  N   UNL     1       7.621   4.481  16.185  0.00  0.00    +0.000 NA
ENDBRANCH  27  28
ENDBRANCH  24  27
ENDBRANCH   5  21
TORSDOF 6
ENDMDL
MODEL 7
REMARK VINA RESULT:      -7.3      3.955      9.931
REMARK  Name = 
REMARK  7 active torsions:
REMARK  status: ('A' for Active; 'I' for Inactive)
REMARK    1  A    between atoms: C_1  and  C_2
REMARK    2  A    between atoms: N_4  and  C_5
REMARK    3  A    between atoms: C_5  and  C_6
REMARK    4  A    between atoms: N_8  and  C_9
REMARK    5  A    between atoms: C_13  and  N_14
REMARK    6  A    between atoms: C_17  and  C_18
REMARK    7  A    between atoms: C_18  and  C_19
REMARK                            x       y       z     vdW  Elec       q    Type
REMARK                         _______ _______ _______ _____ _____    ______ ____
ROOT
ATOM      1  C   UNL     1       0.677   9.361  20.639  0.00  0.00    +0.000 A 
ATOM      2  C   UNL     1       1.024   9.638  19.321  0.00  0.00    +0.000 A 
ATOM      3  C   UNL     1       1.755   8.731  18.557  0.00  0.00    +0.000 A 
ATOM      4  F   UNL     1       2.119   9.146  17.336  0.00  0.00    +0.000 F 
ATOM      5  C   UNL     1       2.144   7.473  19.046  0.00  0.00    +0.000 A 
ATOM      6  C   UNL     1       1.782   7.216  20.384  0.00  0.00    +0.000 A 
ATOM      7  F   UNL     1       2.040   6.021  20.952  0.00  0.00    +0.000 F 
ATOM      8  C   UNL     1       1.088   8.142  21.183  0.00  0.00    +0.000 A 
ENDROOT
BRANCH   1  11
ATOM      9  C   UNL     1      -1.618  11.878  22.013  0.00  0.00    +0.000 C 
ATOM     10  C   UNL     1      -0.762  11.421  20.845  0.00  0.00    +0.000 C 
ATOM     11  N   UNL     1      -0.056  10.302  21.391  0.00  0.00    +0.000 N 
ATOM     12  C   UNL     1      -0.122  10.347  22.781  0.00  0.00    +0.000 C 
ATOM     13  O   UNL     1       0.463   9.652  23.590  0.00  0.00    +0.000 OA
ATOM     14  O   UNL     1      -0.937  11.369  23.171  0.00  0.00    +0.000 OA
BRANCH   9  15
ATOM     15  C   UNL     1      -1.736  13.400  22.132  0.00  0.00    +0.000 C 
BRANCH  15  19
ATOM     16  C   UNL     1      -2.787  14.834  25.488  0.00  0.00    +0.000 C 
ATOM     17  C   UNL     1      -2.907  14.442  24.040  0.00  0.00    +0.000 C 
ATOM     18  O   UNL     1      -3.934  14.616  23.390  0.00  0.00    +0.000 OA
ATOM     19  N   UNL     1      -1.775  13.868  23.510  0.00  0.00    +0.000 N 
ATOM     20  H   UNL     1      -0.924  13.856  24.058  0.00  0.00    +0.000 HD
ENDBRANCH  15  19
ENDBRANCH   9  15
ENDBRANCH   1  11
BRANCH   5  21
ATOM     21  N   UNL     1       2.835   6.559  18.260  0.00  0.00    +0.000 N 
ATOM     22  C   UNL     1       2.250   5.272  17.903  0.00  0.00    +0.000 C 
ATOM     23  C   UNL     1       3.161   4.155  18.408  0.00  0.00    +0.000 C 
ATOM     24  C   UNL     1       4.615   4.314  17.926  0.00  0.00    +0.000 C 
ATOM     25  C   UNL     1       5.130   5.718  18.294  0.00  0.00    +0.000 C 
ATOM     26  C   UNL     1       4.199   6.823  17.795  0.00  0.00    +0.000 C 
BRANCH  24  27
ATOM     27  C   UNL     1       4.781   4.053  16.420  0.00  0.00    +0.000 C 
BRANCH  27  28
ATOM     28  C   UNL     1       6.188   4.398  15.962  0.00  0.00    +0.000 C 
ATOM     29  N   UNL     1       7.356   4.684  15.581  0.00  0.00    +0.000 NA
ENDBRANCH  27  28
ENDBRANCH  24  27
ENDBRANCH   5  21
TORSDOF 6
ENDMDL
MODEL 8
REMARK VINA RESULT:      -7.3      3.739      9.422
REMARK  Name = 
REMARK  7 active torsions:
REMARK  status: ('A' for Active; 'I' for Inactive)
REMARK    1  A    between atoms: C_1  and  C_2
REMARK    2  A    between atoms: N_4  and  C_5
REMARK    3  A    between atoms: C_5  and  C_6
REMARK    4  A    between atoms: N_8  and  C_9
REMARK    5  A    between atoms: C_13  and  N_14
REMARK    6  A    between atoms: C_17  and  C_18
REMARK    7  A    between atoms: C_18  and  C_19
REMARK                            x       y       z     vdW  Elec       q    Type
REMARK                         _______ _______ _______ _____ _____    ______ ____
ROOT
ATOM      1  C   UNL     1       0.720   9.250  20.612  0.00  0.00    +0.000 A 
ATOM      2  C   UNL     1       1.086   9.536  19.301  0.00  0.00    +0.000 A 
ATOM      3  C   UNL     1       1.833   8.637  18.543  0.00  0.00    +0.000 A 
ATOM      4  F   UNL     1       2.214   9.060  17.331  0.00  0.00    +0.000 F 
ATOM      5  C   UNL     1       2.219   7.378  19.031  0.00  0.00    +0.000 A 
ATOM      6  C   UNL     1       1.838   7.111  20.362  0.00  0.00    +0.000 A 
ATOM      7  F   UNL     1       2.092   5.914  20.927  0.00  0.00    +0.000 F 
ATOM      8  C   UNL     1       1.128   8.030  21.155  0.00  0.00    +0.000 A 
ENDROOT
BRANCH   1  11
ATOM      9  C   UNL     1      -1.646  11.702  21.986  0.00  0.00    +0.000 C 
ATOM     10  C   UNL     1      -0.819  11.239  20.798  0.00  0.00    +0.000 C 
ATOM     11  N   UNL     1      -0.029  10.184  21.357  0.00  0.00    +0.000 N 
ATOM     12  C   UNL     1      -0.035  10.288  22.745  0.00  0.00    +0.000 C 
ATOM     13  O   UNL     1       0.623   9.661  23.554  0.00  0.00    +0.000 OA
ATOM     14  O   UNL     1      -0.886  11.281  23.130  0.00  0.00    +0.000 OA
BRANCH   9  15
ATOM     15  C   UNL     1      -1.841  13.219  22.046  0.00  0.00    +0.000 C 
BRANCH  15  19
ATOM     16  C   UNL     1       1.234  15.447  21.992  0.00  0.00    +0.000 C 
ATOM     17  C   UNL     1       0.007  14.777  22.550  0.00  0.00    +0.000 C 
ATOM     18  O   UNL     1      -0.366  14.937  23.708  0.00  0.00    +0.000 OA
ATOM     19  N   UNL     1      -0.655  13.968  21.656  0.00  0.00    +0.000 N 
ATOM     20  H   UNL     1      -0.369  13.965  20.685  0.00  0.00    +0.000 HD
ENDBRANCH  15  19
ENDBRANCH   9  15
ENDBRANCH   1  11
BRANCH   5  21
ATOM     21  N   UNL     1       2.926   6.471  18.251  0.00  0.00    +0.000 N 
ATOM     22  C   UNL     1       2.343   5.194  17.856  0.00  0.00    +0.000 C 
ATOM     23  C   UNL     1       3.230   4.062  18.369  0.00  0.00    +0.000 C 
ATOM     24  C   UNL     1       4.700   4.218  17.933  0.00  0.00    +0.000 C 
ATOM     25  C   UNL     1       5.213   5.612  18.338  0.00  0.00    +0.000 C 
ATOM     26  C   UNL     1       4.305   6.732  17.831  0.00  0.00    +0.000 C 
BRANCH  24  27
ATOM     27  C   UNL     1       4.907   3.980  16.429  0.00  0.00    +0.000 C 
BRANCH  27  28
ATOM     28  C   UNL     1       6.306   4.392  16.002  0.00  0.00    +0.000 C 
ATOM     29  N   UNL     1       7.468   4.735  15.648  0.00  0.00    +0.000 NA
ENDBRANCH  27  28
ENDBRANCH  24  27
ENDBRANCH   5  21
TORSDOF 6
ENDMDL
MODEL 9
REMARK VINA RESULT:      -7.2      2.016      2.345
REMARK  Name = 
REMARK  7 active torsions:
REMARK  status: ('A' for Active; 'I' for Inactive)
REMARK    1  A    between atoms: C_1  and  C_2
REMARK    2  A    between atoms: N_4  and  C_5
REMARK    3  A    between atoms: C_5  and  C_6
REMARK    4  A    between atoms: N_8  and  C_9
REMARK    5  A    between atoms: C_13  and  N_14
REMARK    6  A    between atoms: C_17  and  C_18
REMARK    7  A    between atoms: C_18  and  C_19
REMARK                            x       y       z     vdW  Elec       q    Type
REMARK                         _______ _______ _______ _____ _____    ______ ____
ROOT
ATOM      1  C   UNL     1       2.169   7.194  19.710  0.00  0.00    +0.000 A 
ATOM      2  C   UNL     1       2.181   7.997  18.574  0.00  0.00    +0.000 A 
ATOM      3  C   UNL     1       1.608   9.267  18.577  0.00  0.00    +0.000 A 
ATOM      4  F   UNL     1       1.587   9.908  17.401  0.00  0.00    +0.000 F 
ATOM      5  C   UNL     1       1.029   9.831  19.726  0.00  0.00    +0.000 A 
ATOM      6  C   UNL     1       1.027   8.998  20.863  0.00  0.00    +0.000 A 
ATOM      7  F   UNL     1       0.560   9.445  22.046  0.00  0.00    +0.000 F 
ATOM      8  C   UNL     1       1.558   7.696  20.861  0.00  0.00    +0.000 A 
ENDROOT
BRANCH   1  11
ATOM      9  C   UNL     1       4.293   4.198  19.651  0.00  0.00    +0.000 C 
ATOM     10  C   UNL     1       4.043   5.607  19.140  0.00  0.00    +0.000 C 
ATOM     11  N   UNL     1       2.751   5.910  19.675  0.00  0.00    +0.000 N 
ATOM     12  C   UNL     1       2.120   4.730  20.059  0.00  0.00    +0.000 C 
ATOM     13  O   UNL     1       0.971   4.570  20.427  0.00  0.00    +0.000 OA
ATOM     14  O   UNL     1       2.980   3.680  19.917  0.00  0.00    +0.000 OA
BRANCH   9  15
ATOM     15  C   UNL     1       4.991   3.290  18.635  0.00  0.00    +0.000 C 
BRANCH  15  19
ATOM     16  C   UNL     1       6.951   5.133  15.956  0.00  0.00    +0.000 C 
ATOM     17  C   UNL     1       6.683   4.472  17.281  0.00  0.00    +0.000 C 
ATOM     18  O   UNL     1       7.539   4.371  18.156  0.00  0.00    +0.000 OA
ATOM     19  N   UNL     1       5.405   3.988  17.427  0.00  0.00    +0.000 N 
ATOM     20  H   UNL     1       4.711   4.203  16.721  0.00  0.00    +0.000 HD
ENDBRANCH  15  19
ENDBRANCH   9  15
ENDBRANCH   1  11
BRANCH   5  21
ATOM     21  N   UNL     1       0.499  11.115  19.728  0.00  0.00    +0.000 N 
ATOM     22  C   UNL     1      -0.936  11.343  19.606  0.00  0.00    +0.000 C 
ATOM     23  C   UNL     1      -1.199  12.213  18.379  0.00  0.00    +0.000 C 
ATOM     24  C   UNL     1      -0.377  13.516  18.389  0.00  0.00    +0.000 C 
ATOM     25  C   UNL     1       1.114  13.184  18.580  0.00  0.00    +0.000 C 
ATOM     26  C   UNL     1       1.357  12.300  19.803  0.00  0.00    +0.000 C 
BRANCH  24  27
ATOM     27  C   UNL     1      -0.851  14.515  19.458  0.00  0.00    +0.000 C 
BRANCH  27  28
ATOM     28  C   UNL     1      -0.221  15.881  19.240  0.00  0.00    +0.000 C 
ATOM     29  N   UNL     1       0.303  17.014  19.059  0.00  0.00    +0.000 NA
ENDBRANCH  27  28
ENDBRANCH  24  27
ENDBRANCH   5  21
TORSDOF 6
ENDMDL
