MODEL 1
REMARK VINA RESULT:      -7.5      0.000      0.000
REMARK  Name = 
REMARK  11 active torsions:
REMARK  status: ('A' for Active; 'I' for Inactive)
REMARK    1  A    between atoms: C_1  and  O_2
REMARK    2  A    between atoms: O_2  and  C_3
REMARK    3  A    between atoms: C_6  and  C_7
REMARK    4  A    between atoms: N_9  and  C_10
REMARK    5  A    between atoms: C_10  and  C_11
REMARK    6  A    between atoms: C_10  and  C_29
REMARK    7  A    between atoms: N_13  and  C_14
REMARK    8  A    between atoms: C_18  and  S_19
REMARK    9  A    between atoms: S_19  and  N_22
REMARK   10  A    between atoms: C_29  and  C_30
REMARK   11  A    between atoms: C_29  and  C_31
REMARK                            x       y       z     vdW  Elec       q    Type
REMARK                         _______ _______ _______ _____ _____    ______ ____
ROOT
ATOM      1  C   UNL     1       1.323   9.260  19.643  0.00  0.00    +0.000 C 
ATOM      2  O   UNL     1       1.202   9.157  18.423  0.00  0.00    +0.000 OA
ATOM      3  N   UNL     1       1.605   8.203  20.487  0.00  0.00    +0.000 N 
ATOM      4  H   UNL     1       1.479   8.381  21.468  0.00  0.00    +0.000 HD
ENDROOT
BRANCH   3   5
ATOM      5  C   UNL     1       1.804   6.840  20.175  0.00  0.00    +0.000 A 
ATOM      6  C   UNL     1       0.950   5.801  20.534  0.00  0.00    +0.000 A 
ATOM      7  C   UNL     1       1.361   4.465  20.386  0.00  0.00    +0.000 A 
ATOM      8  C   UNL     1       2.623   4.159  19.870  0.00  0.00    +0.000 A 
ATOM      9  C   UNL     1       3.439   5.199  19.429  0.00  0.00    +0.000 A 
ATOM     10  C   UNL     1       3.016   6.528  19.541  0.00  0.00    +0.000 A 
BRANCH   9  11
ATOM     11  S   UNL     1       5.134   4.913  18.938  0.00  0.00    +0.000 S 
ATOM     12  O   UNL     1       5.946   5.720  19.824  0.00  0.00    +0.000 OA
ATOM     13  O   UNL     1       5.341   3.485  18.819  0.00  0.00    +0.000 OA
BRANCH  11  14
ATOM     14  N   UNL     1       5.182   5.588  17.393  0.00  0.00    +0.000 NA
ATOM     15  C   UNL     1       5.316   4.664  16.235  0.00  0.00    +0.000 C 
ATOM     16  C   UNL     1       6.788   4.492  15.844  0.00  0.00    +0.000 C 
ATOM     17  O   UNL     1       7.380   5.761  15.528  0.00  0.00    +0.000 OA
ATOM     18  C   UNL     1       7.351   6.633  16.665  0.00  0.00    +0.000 C 
ATOM     19  C   UNL     1       5.928   6.862  17.185  0.00  0.00    +0.000 C 
ENDBRANCH  11  14
ENDBRANCH   9  11
ENDBRANCH   3   5
BRANCH   1  20
ATOM     20  C   UNL     1       0.974  10.611  20.362  0.00  0.00    +0.000 C 
BRANCH  20  23
ATOM     21  C   UNL     1       2.043  12.865  20.183  0.00  0.00    +0.000 C 
ATOM     22  O   UNL     1       2.236  12.905  21.397  0.00  0.00    +0.000 OA
ATOM     23  N   UNL     1       1.463  11.763  19.574  0.00  0.00    +0.000 N 
ATOM     24  H   UNL     1       1.487  11.671  18.569  0.00  0.00    +0.000 HD
BRANCH  21  28
ATOM     25  C   UNL     1       2.670  16.255  17.557  0.00  0.00    +0.000 A 
ATOM     26  C   UNL     1       1.561  16.174  18.399  0.00  0.00    +0.000 A 
ATOM     27  C   UNL     1       1.412  15.105  19.291  0.00  0.00    +0.000 A 
ATOM     28  C   UNL     1       2.365  14.074  19.345  0.00  0.00    +0.000 A 
ATOM     29  C   UNL     1       3.510  14.195  18.546  0.00  0.00    +0.000 A 
ATOM     30  C   UNL     1       3.659  15.277  17.654  0.00  0.00    +0.000 A 
BRANCH  25  32
ATOM     31  C   UNL     1       1.522  18.184  16.740  0.00  0.00    +0.000 C 
ATOM     32  O   UNL     1       2.633  17.300  16.679  0.00  0.00    +0.000 OA
ENDBRANCH  25  32
ENDBRANCH  21  28
ENDBRANCH  20  23
BRANCH  20  33
ATOM     33  C   UNL     1      -0.495  10.816  20.849  0.00  0.00    +0.000 C 
ATOM     34  C   UNL     1      -0.686  11.242  22.310  0.00  0.00    +0.000 C 
ATOM     35  C   UNL     1      -1.286  11.747  19.927  0.00  0.00    +0.000 C 
ENDBRANCH  20  33
ENDBRANCH   1  20
TORSDOF 8
ENDMDL
MODEL 2
REMARK VINA RESULT:      -7.5      1.255      1.542
REMARK  Name = 
REMARK  11 active torsions:
REMARK  status: ('A' for Active; 'I' for Inactive)
REMARK    1  A    between atoms: C_1  and  O_2
REMARK    2  A    between atoms: O_2  and  C_3
REMARK    3  A    between atoms: C_6  and  C_7
REMARK    4  A    between atoms: N_9  and  C_10
REMARK    5  A    between atoms: C_10  and  C_11
REMARK    6  A    between atoms: C_10  and  C_29
REMARK    7  A    between atoms: N_13  and  C_14
REMARK    8  A    between atoms: C_18  and  S_19
REMARK    9  A    between atoms: S_19  and  N_22
REMARK   10  A    between atoms: C_29  and  C_30
REMARK   11  A    between atoms: C_29  and  C_31
REMARK                            x       y       z     vdW  Elec       q    Type
REMARK                         _______ _______ _______ _____ _____    ______ ____
ROOT
ATOM      1  C   UNL     1       1.525   9.082  18.857  0.00  0.00    +0.000 C 
ATOM      2  O   UNL     1       1.884   8.964  17.686  0.00  0.00    +0.000 OA
ATOM      3  N   UNL     1       1.682   8.103  19.820  0.00  0.00    +0.000 N 
ATOM      4  H   UNL     1       1.173   8.244  20.675  0.00  0.00    +0.000 HD
ENDROOT
BRANCH   3   5
ATOM      5  C   UNL     1       2.249   6.815  19.698  0.00  0.00    +0.000 A 
ATOM      6  C   UNL     1       1.724   5.651  20.254  0.00  0.00    +0.000 A 
ATOM      7  C   UNL     1       2.489   4.473  20.278  0.00  0.00    +0.000 A 
ATOM      8  C   UNL     1       3.778   4.446  19.741  0.00  0.00    +0.000 A 
ATOM      9  C   UNL     1       4.266   5.588  19.107  0.00  0.00    +0.000 A 
ATOM     10  C   UNL     1       3.490   6.752  19.048  0.00  0.00    +0.000 A 
BRANCH   9  11
ATOM     11  S   UNL     1       5.965   5.703  18.566  0.00  0.00    +0.000 S 
ATOM     12  O   UNL     1       6.063   6.941  17.822  0.00  0.00    +0.000 OA
ATOM     13  O   UNL     1       6.825   5.435  19.699  0.00  0.00    +0.000 OA
BRANCH  11  14
ATOM     14  N   UNL     1       6.089   4.411  17.487  0.00  0.00    +0.000 NA
ATOM     15  C   UNL     1       7.366   4.248  16.742  0.00  0.00    +0.000 C 
ATOM     16  C   UNL     1       7.293   4.947  15.379  0.00  0.00    +0.000 C 
ATOM     17  O   UNL     1       6.203   4.429  14.602  0.00  0.00    +0.000 OA
ATOM     18  C   UNL     1       4.951   4.667  15.258  0.00  0.00    +0.000 C 
ATOM     19  C   UNL     1       4.904   4.048  16.659  0.00  0.00    +0.000 C 
ENDBRANCH  11  14
ENDBRANCH   9  11
ENDBRANCH   3   5
BRANCH   1  20
ATOM     20  C   UNL     1       0.675  10.325  19.304  0.00  0.00    +0.000 C 
BRANCH  20  23
ATOM     21  C   UNL     1       1.713  12.571  19.668  0.00  0.00    +0.000 C 
ATOM     22  O   UNL     1       1.674  12.426  20.888  0.00  0.00    +0.000 OA
ATOM     23  N   UNL     1       1.281  11.578  18.802  0.00  0.00    +0.000 N 
ATOM     24  H   UNL     1       1.495  11.637  17.818  0.00  0.00    +0.000 HD
BRANCH  21  28
ATOM     25  C   UNL     1       2.709  16.346  17.786  0.00  0.00    +0.000 A 
ATOM     26  C   UNL     1       1.565  16.195  18.570  0.00  0.00    +0.000 A 
ATOM     27  C   UNL     1       1.298  14.988  19.227  0.00  0.00    +0.000 A 
ATOM     28  C   UNL     1       2.162  13.889  19.095  0.00  0.00    +0.000 A 
ATOM     29  C   UNL     1       3.343  14.066  18.362  0.00  0.00    +0.000 A 
ATOM     30  C   UNL     1       3.612  15.287  17.707  0.00  0.00    +0.000 A 
BRANCH  25  32
ATOM     31  C   UNL     1       1.576  18.186  16.767  0.00  0.00    +0.000 C 
ATOM     32  O   UNL     1       2.789  17.543  17.133  0.00  0.00    +0.000 OA
ENDBRANCH  25  32
ENDBRANCH  21  28
ENDBRANCH  20  23
BRANCH  20  33
ATOM     33  C   UNL     1      -0.865  10.278  19.055  0.00  0.00    +0.000 C 
ATOM     34  C   UNL     1      -1.681  11.483  19.541  0.00  0.00    +0.000 C 
ATOM     35  C   UNL     1      -1.207   9.972  17.596  0.00  0.00    +0.000 C 
ENDBRANCH  20  33
ENDBRANCH   1  20
TORSDOF 8
ENDMDL
MODEL 3
REMARK VINA RESULT:      -7.4      1.170      1.441
REMARK  Name = 
REMARK  11 active torsions:
REMARK  status: ('A' for Active; 'I' for Inactive)
REMARK    1  A    between atoms: C_1  and  O_2
REMARK    2  A    between atoms: O_2  and  C_3
REMARK    3  A    between atoms: C_6  and  C_7
REMARK    4  A    between atoms: N_9  and  C_10
REMARK    5  A    between atoms: C_10  and  C_11
REMARK    6  A    between atoms: C_10  and  C_29
REMARK    7  A    between atoms: N_13  and  C_14
REMARK    8  A    between atoms: C_18  and  S_19
REMARK    9  A    between atoms: S_19  and  N_22
REMARK   10  A    between atoms: C_29  and  C_30
REMARK   11  A    between atoms: C_29  and  C_31
REMARK                            x       y       z     vdW  Elec       q    Type
REMARK                         _______ _______ _______ _____ _____    ______ ____
ROOT
ATOM      1  C   UNL     1       1.805   9.184  18.448  0.00  0.00    +0.000 C 
ATOM      2  O   UNL     1       1.964   9.347  17.239  0.00  0.00    +0.000 OA
ATOM      3  N   UNL     1       1.917   7.965  19.089  0.00  0.00    +0.000 N 
ATOM      4  H   UNL     1       1.571   7.933  20.032  0.00  0.00    +0.000 HD
ENDROOT
BRANCH   3   5
ATOM      5  C   UNL     1       2.216   6.696  18.546  0.00  0.00    +0.000 A 
ATOM      6  C   UNL     1       1.294   5.841  17.948  0.00  0.00    +0.000 A 
ATOM      7  C   UNL     1       1.646   4.511  17.662  0.00  0.00    +0.000 A 
ATOM      8  C   UNL     1       2.922   4.029  17.964  0.00  0.00    +0.000 A 
ATOM      9  C   UNL     1       3.869   4.911  18.481  0.00  0.00    +0.000 A 
ATOM     10  C   UNL     1       3.532   6.246  18.731  0.00  0.00    +0.000 A 
BRANCH   9  11
ATOM     11  S   UNL     1       5.456   4.337  19.072  0.00  0.00    +0.000 S 
ATOM     12  O   UNL     1       6.016   5.433  19.835  0.00  0.00    +0.000 OA
ATOM     13  O   UNL     1       5.279   3.025  19.657  0.00  0.00    +0.000 OA
BRANCH  11  14
ATOM     14  N   UNL     1       6.334   4.168  17.642  0.00  0.00    +0.000 NA
ATOM     15  C   UNL     1       7.594   4.947  17.505  0.00  0.00    +0.000 C 
ATOM     16  C   UNL     1       7.334   6.282  16.796  0.00  0.00    +0.000 C 
ATOM     17  O   UNL     1       6.750   6.064  15.504  0.00  0.00    +0.000 OA
ATOM     18  C   UNL     1       5.484   5.402  15.621  0.00  0.00    +0.000 C 
ATOM     19  C   UNL     1       5.597   4.059  16.351  0.00  0.00    +0.000 C 
ENDBRANCH  11  14
ENDBRANCH   9  11
ENDBRANCH   3   5
BRANCH   1  20
ATOM     20  C   UNL     1       1.270  10.359  19.342  0.00  0.00    +0.000 C 
BRANCH  20  23
ATOM     21  C   UNL     1       2.091  12.703  19.639  0.00  0.00    +0.000 C 
ATOM     22  O   UNL     1       2.147  12.561  20.860  0.00  0.00    +0.000 OA
ATOM     23  N   UNL     1       1.708  11.665  18.803  0.00  0.00    +0.000 N 
ATOM     24  H   UNL     1       1.849  11.741  17.807  0.00  0.00    +0.000 HD
BRANCH  21  28
ATOM     25  C   UNL     1       2.575  16.543  17.690  0.00  0.00    +0.000 A 
ATOM     26  C   UNL     1       1.478  16.267  18.507  0.00  0.00    +0.000 A 
ATOM     27  C   UNL     1       1.376  15.045  19.184  0.00  0.00    +0.000 A 
ATOM     28  C   UNL     1       2.363  14.057  19.040  0.00  0.00    +0.000 A 
ATOM     29  C   UNL     1       3.494  14.365  18.273  0.00  0.00    +0.000 A 
ATOM     30  C   UNL     1       3.597  15.599  17.598  0.00  0.00    +0.000 A 
BRANCH  25  32
ATOM     31  C   UNL     1       1.205  18.300  16.829  0.00  0.00    +0.000 C 
ATOM     32  O   UNL     1       2.492  17.731  17.022  0.00  0.00    +0.000 OA
ENDBRANCH  25  32
ENDBRANCH  21  28
ENDBRANCH  20  23
BRANCH  20  33
ATOM     33  C   UNL     1      -0.247  10.357  19.711  0.00  0.00    +0.000 C 
ATOM     34  C   UNL     1      -0.603  10.647  21.174  0.00  0.00    +0.000 C 
ATOM     35  C   UNL     1      -1.069  11.257  18.787  0.00  0.00    +0.000 C 
ENDBRANCH  20  33
ENDBRANCH   1  20
TORSDOF 8
ENDMDL
MODEL 4
REMARK VINA RESULT:      -7.3      0.920      1.401
REMARK  Name = 
REMARK  11 active torsions:
REMARK  status: ('A' for Active; 'I' for Inactive)
REMARK    1  A    between atoms: C_1  and  O_2
REMARK    2  A    between atoms: O_2  and  C_3
REMARK    3  A    between atoms: C_6  and  C_7
REMARK    4  A    between atoms: N_9  and  C_10
REMARK    5  A    between atoms: C_10  and  C_11
REMARK    6  A    between atoms: C_10  and  C_29
REMARK    7  A    between atoms: N_13  and  C_14
REMARK    8  A    between atoms: C_18  and  S_19
REMARK    9  A    between atoms: S_19  and  N_22
REMARK   10  A    between atoms: C_29  and  C_30
REMARK   11  A    between atoms: C_29  and  C_31
REMARK                            x       y       z     vdW  Elec       q    Type
REMARK                         _______ _______ _______ _____ _____    ______ ____
ROOT
ATOM      1  C   UNL     1       1.169   9.167  20.204  0.00  0.00    +0.000 C 
ATOM      2  O   UNL     1       0.659   9.130  19.085  0.00  0.00    +0.000 OA
ATOM      3  N   UNL     1       1.742   8.078  20.832  0.00  0.00    +0.000 N 
ATOM      4  H   UNL     1       1.940   8.192  21.812  0.00  0.00    +0.000 HD
ENDROOT
BRANCH   3   5
ATOM      5  C   UNL     1       1.868   6.748  20.375  0.00  0.00    +0.000 A 
ATOM      6  C   UNL     1       0.951   5.727  20.612  0.00  0.00    +0.000 A 
ATOM      7  C   UNL     1       1.287   4.394  20.322  0.00  0.00    +0.000 A 
ATOM      8  C   UNL     1       2.536   4.072  19.786  0.00  0.00    +0.000 A 
ATOM      9  C   UNL     1       3.418   5.105  19.469  0.00  0.00    +0.000 A 
ATOM     10  C   UNL     1       3.069   6.437  19.722  0.00  0.00    +0.000 A 
BRANCH   9  11
ATOM     11  S   UNL     1       5.100   4.775  18.964  0.00  0.00    +0.000 S 
ATOM     12  O   UNL     1       5.939   5.583  19.824  0.00  0.00    +0.000 OA
ATOM     13  O   UNL     1       5.277   3.341  18.870  0.00  0.00    +0.000 OA
BRANCH  11  14
ATOM     14  N   UNL     1       5.143   5.419  17.405  0.00  0.00    +0.000 NA
ATOM     15  C   UNL     1       5.399   4.487  16.275  0.00  0.00    +0.000 C 
ATOM     16  C   UNL     1       6.894   4.439  15.937  0.00  0.00    +0.000 C 
ATOM     17  O   UNL     1       7.382   5.749  15.612  0.00  0.00    +0.000 OA
ATOM     18  C   UNL     1       7.236   6.639  16.726  0.00  0.00    +0.000 C 
ATOM     19  C   UNL     1       5.781   6.750  17.193  0.00  0.00    +0.000 C 
ENDBRANCH  11  14
ENDBRANCH   9  11
ENDBRANCH   3   5
BRANCH   1  20
ATOM     20  C   UNL     1       1.036  10.455  21.093  0.00  0.00    +0.000 C 
BRANCH  20  23
ATOM     21  C   UNL     1       1.591  12.815  20.479  0.00  0.00    +0.000 C 
ATOM     22  O   UNL     1       2.454  12.872  21.354  0.00  0.00    +0.000 OA
ATOM     23  N   UNL     1       0.865  11.657  20.248  0.00  0.00    +0.000 N 
ATOM     24  H   UNL     1       0.303  11.571  19.414  0.00  0.00    +0.000 HD
BRANCH  21  28
ATOM     25  C   UNL     1       0.761  16.584  18.509  0.00  0.00    +0.000 A 
ATOM     26  C   UNL     1       2.065  16.132  18.710  0.00  0.00    +0.000 A 
ATOM     27  C   UNL     1       2.311  14.880  19.285  0.00  0.00    +0.000 A 
ATOM     28  C   UNL     1       1.251  14.055  19.696  0.00  0.00    +0.000 A 
ATOM     29  C   UNL     1      -0.056  14.483  19.430  0.00  0.00    +0.000 A 
ATOM     30  C   UNL     1      -0.300  15.743  18.844  0.00  0.00    +0.000 A 
BRANCH  25  32
ATOM     31  C   UNL     1       1.263  18.136  16.763  0.00  0.00    +0.000 C 
ATOM     32  O   UNL     1       0.676  17.859  18.027  0.00  0.00    +0.000 OA
ENDBRANCH  25  32
ENDBRANCH  21  28
ENDBRANCH  20  23
BRANCH  20  33
ATOM     33  C   UNL     1       0.014  10.419  22.273  0.00  0.00    +0.000 C 
ATOM     34  C   UNL     1      -1.122  11.448  22.236  0.00  0.00    +0.000 C 
ATOM     35  C   UNL     1      -0.558   9.019  22.501  0.00  0.00    +0.000 C 
ENDBRANCH  20  33
ENDBRANCH   1  20
TORSDOF 8
ENDMDL
MODEL 5
REMARK VINA RESULT:      -7.3      2.579      4.538
REMARK  Name = 
REMARK  11 active torsions:
REMARK  status: ('A' for Active; 'I' for Inactive)
REMARK    1  A    between atoms: C_1  and  O_2
REMARK    2  A    between atoms: O_2  and  C_3
REMARK    3  A    between atoms: C_6  and  C_7
REMARK    4  A    between atoms: N_9  and  C_10
REMARK    5  A    between atoms: C_10  and  C_11
REMARK    6  A    between atoms: C_10  and  C_29
REMARK    7  A    between atoms: N_13  and  C_14
REMARK    8  A    between atoms: C_18  and  S_19
REMARK    9  A    between atoms: S_19  and  N_22
REMARK   10  A    between atoms: C_29  and  C_30
REMARK   11  A    between atoms: C_29  and  C_31
REMARK                            x       y       z     vdW  Elec       q    Type
REMARK                         _______ _______ _______ _____ _____    ______ ____
ROOT
ATOM      1  C   UNL     1       1.411   8.942  18.959  0.00  0.00    +0.000 C 
ATOM      2  O   UNL     1       1.509   8.594  17.783  0.00  0.00    +0.000 OA
ATOM      3  N   UNL     1       1.611   8.102  20.037  0.00  0.00    +0.000 N 
ATOM      4  H   UNL     1       1.308   8.453  20.929  0.00  0.00    +0.000 HD
ENDROOT
BRANCH   3   5
ATOM      5  C   UNL     1       1.949   6.731  20.049  0.00  0.00    +0.000 A 
ATOM      6  C   UNL     1       1.267   5.741  20.752  0.00  0.00    +0.000 A 
ATOM      7  C   UNL     1       1.825   4.459  20.890  0.00  0.00    +0.000 A 
ATOM      8  C   UNL     1       3.064   4.154  20.320  0.00  0.00    +0.000 A 
ATOM      9  C   UNL     1       3.702   5.120  19.542  0.00  0.00    +0.000 A 
ATOM     10  C   UNL     1       3.128   6.385  19.373  0.00  0.00    +0.000 A 
BRANCH   9  11
ATOM     11  S   UNL     1       5.368   4.883  18.940  0.00  0.00    +0.000 S 
ATOM     12  O   UNL     1       6.191   5.830  19.663  0.00  0.00    +0.000 OA
ATOM     13  O   UNL     1       5.662   3.466  18.954  0.00  0.00    +0.000 OA
BRANCH  11  14
ATOM     14  N   UNL     1       5.247   5.386  17.334  0.00  0.00    +0.000 NA
ATOM     15  C   UNL     1       4.676   4.429  16.348  0.00  0.00    +0.000 C 
ATOM     16  C   UNL     1       5.789   3.625  15.665  0.00  0.00    +0.000 C 
ATOM     17  O   UNL     1       6.720   4.501  15.014  0.00  0.00    +0.000 OA
ATOM     18  C   UNL     1       7.357   5.365  15.964  0.00  0.00    +0.000 C 
ATOM     19  C   UNL     1       6.346   6.207  16.751  0.00  0.00    +0.000 C 
ENDBRANCH  11  14
ENDBRANCH   9  11
ENDBRANCH   3   5
BRANCH   1  20
ATOM     20  C   UNL     1       0.856  10.367  19.320  0.00  0.00    +0.000 C 
BRANCH  20  23
ATOM     21  C   UNL     1      -1.118  11.625  18.440  0.00  0.00    +0.000 C 
ATOM     22  O   UNL     1      -0.414  12.593  18.156  0.00  0.00    +0.000 OA
ATOM     23  N   UNL     1      -0.580  10.468  18.982  0.00  0.00    +0.000 N 
ATOM     24  H   UNL     1      -1.137   9.627  19.030  0.00  0.00    +0.000 HD
BRANCH  21  28
ATOM     25  C   UNL     1      -5.448  11.675  18.261  0.00  0.00    +0.000 A 
ATOM     26  C   UNL     1      -4.751  12.225  19.337  0.00  0.00    +0.000 A 
ATOM     27  C   UNL     1      -3.351  12.262  19.343  0.00  0.00    +0.000 A 
ATOM     28  C   UNL     1      -2.612  11.726  18.277  0.00  0.00    +0.000 A 
ATOM     29  C   UNL     1      -3.316  11.235  17.170  0.00  0.00    +0.000 A 
ATOM     30  C   UNL     1      -4.727  11.205  17.164  0.00  0.00    +0.000 A 
BRANCH  25  32
ATOM     31  C   UNL     1      -7.298  11.035  19.631  0.00  0.00    +0.000 C 
ATOM     32  O   UNL     1      -6.802  11.622  18.437  0.00  0.00    +0.000 OA
ENDBRANCH  25  32
ENDBRANCH  21  28
ENDBRANCH  20  23
BRANCH  20  33
ATOM     33  C   UNL     1       1.163  10.926  20.745  0.00  0.00    +0.000 C 
ATOM     34  C   UNL     1       1.600  12.394  20.832  0.00  0.00    +0.000 C 
ATOM     35  C   UNL     1       0.022  10.663  21.728  0.00  0.00    +0.000 C 
ENDBRANCH  20  33
ENDBRANCH   1  20
TORSDOF 8
ENDMDL
MODEL 6
REMARK VINA RESULT:      -7.3      2.880      5.146
REMARK  Name = 
REMARK  11 active torsions:
REMARK  status: ('A' for Active; 'I' for Inactive)
REMARK    1  A    between atoms: C_1  and  O_2
REMARK    2  A    between atoms: O_2  and  C_3
REMARK    3  A    between atoms: C_6  and  C_7
REMARK    4  A    between atoms: N_9  and  C_10
REMARK    5  A    between atoms: C_10  and  C_11
REMARK    6  A    between atoms: C_10  and  C_29
REMARK    7  A    between atoms: N_13  and  C_14
REMARK    8  A    between atoms: C_18  and  S_19
REMARK    9  A    between atoms: S_19  and  N_22
REMARK   10  A    between atoms: C_29  and  C_30
REMARK   11  A    between atoms: C_29  and  C_31
REMARK                            x       y       z     vdW  Elec       q    Type
REMARK                         _______ _______ _______ _____ _____    ______ ____
ROOT
ATOM      1  C   UNL     1       1.081   9.415  19.352  0.00  0.00    +0.000 C 
ATOM      2  O   UNL     1       0.833   9.123  20.521  0.00  0.00    +0.000 OA
ATOM      3  N   UNL     1       1.839   8.634  18.501  0.00  0.00    +0.000 N 
ATOM      4  H   UNL     1       2.132   9.074  17.646  0.00  0.00    +0.000 HD
ENDROOT
BRANCH   3   5
ATOM      5  C   UNL     1       2.475   7.398  18.754  0.00  0.00    +0.000 A 
ATOM      6  C   UNL     1       2.078   6.472  19.715  0.00  0.00    +0.000 A 
ATOM      7  C   UNL     1       2.917   5.394  20.046  0.00  0.00    +0.000 A 
ATOM      8  C   UNL     1       4.153   5.230  19.415  0.00  0.00    +0.000 A 
ATOM      9  C   UNL     1       4.507   6.108  18.392  0.00  0.00    +0.000 A 
ATOM     10  C   UNL     1       3.655   7.159  18.034  0.00  0.00    +0.000 A 
BRANCH   9  11
ATOM     11  S   UNL     1       6.141   6.088  17.668  0.00  0.00    +0.000 S 
ATOM     12  O   UNL     1       6.168   7.178  16.716  0.00  0.00    +0.000 OA
ATOM     13  O   UNL     1       7.114   5.998  18.737  0.00  0.00    +0.000 OA
BRANCH  11  14
ATOM     14  N   UNL     1       6.144   4.628  16.822  0.00  0.00    +0.000 NA
ATOM     15  C   UNL     1       7.374   4.265  16.068  0.00  0.00    +0.000 C 
ATOM     16  C   UNL     1       7.274   4.727  14.610  0.00  0.00    +0.000 C 
ATOM     17  O   UNL     1       6.122   4.154  13.974  0.00  0.00    +0.000 OA
ATOM     18  C   UNL     1       4.917   4.574  14.626  0.00  0.00    +0.000 C 
ATOM     19  C   UNL     1       4.903   4.204  16.113  0.00  0.00    +0.000 C 
ENDBRANCH  11  14
ENDBRANCH   9  11
ENDBRANCH   3   5
BRANCH   1  20
ATOM     20  C   UNL     1       0.689  10.826  18.787  0.00  0.00    +0.000 C 
BRANCH  20  23
ATOM     21  C   UNL     1      -1.722  10.723  18.129  0.00  0.00    +0.000 C 
ATOM     22  O   UNL     1      -1.450  10.075  17.119  0.00  0.00    +0.000 OA
ATOM     23  N   UNL     1      -0.742  11.107  19.032  0.00  0.00    +0.000 N 
ATOM     24  H   UNL     1      -1.004  11.467  19.938  0.00  0.00    +0.000 HD
BRANCH  21  28
ATOM     25  C   UNL     1      -5.774  11.901  19.114  0.00  0.00    +0.000 A 
ATOM     26  C   UNL     1      -4.669  12.467  19.751  0.00  0.00    +0.000 A 
ATOM     27  C   UNL     1      -3.366  12.124  19.369  0.00  0.00    +0.000 A 
ATOM     28  C   UNL     1      -3.137  11.185  18.351  0.00  0.00    +0.000 A 
ATOM     29  C   UNL     1      -4.248  10.670  17.670  0.00  0.00    +0.000 A 
ATOM     30  C   UNL     1      -5.559  11.023  18.053  0.00  0.00    +0.000 A 
BRANCH  25  32
ATOM     31  C   UNL     1      -7.626  11.327  20.510  0.00  0.00    +0.000 C 
ATOM     32  O   UNL     1      -6.977  12.257  19.654  0.00  0.00    +0.000 OA
ENDBRANCH  25  32
ENDBRANCH  21  28
ENDBRANCH  20  23
BRANCH  20  33
ATOM     33  C   UNL     1       1.597  12.038  19.168  0.00  0.00    +0.000 C 
ATOM     34  C   UNL     1       2.554  12.551  18.085  0.00  0.00    +0.000 C 
ATOM     35  C   UNL     1       0.794  13.204  19.748  0.00  0.00    +0.000 C 
ENDBRANCH  20  33
ENDBRANCH   1  20
TORSDOF 8
ENDMDL
MODEL 7
REMARK VINA RESULT:      -7.3      3.325      4.422
REMARK  Name = 
REMARK  11 active torsions:
REMARK  status: ('A' for Active; 'I' for Inactive)
REMARK    1  A    between atoms: C_1  and  O_2
REMARK    2  A    between atoms: O_2  and  C_3
REMARK    3  A    between atoms: C_6  and  C_7
REMARK    4  A    between atoms: N_9  and  C_10
REMARK    5  A    between atoms: C_10  and  C_11
REMARK    6  A    between atoms: C_10  and  C_29
REMARK    7  A    between atoms: N_13  and  C_14
REMARK    8  A    between atoms: C_18  and  S_19
REMARK    9  A    between atoms: S_19  and  N_22
REMARK   10  A    between atoms: C_29  and  C_30
REMARK   11  A    between atoms: C_29  and  C_31
REMARK                            x       y       z     vdW  Elec       q    Type
REMARK                         _______ _______ _______ _____ _____    ______ ____
ROOT
ATOM      1  C   UNL     1       1.485   8.440  19.939  0.00  0.00    +0.000 C 
ATOM      2  O   UNL     1       1.762   8.627  18.756  0.00  0.00    +0.000 OA
ATOM      3  N   UNL     1       1.729   7.262  20.618  0.00  0.00    +0.000 N 
ATOM      4  H   UNL     1       1.278   7.169  21.512  0.00  0.00    +0.000 HD
ENDROOT
BRANCH   3   5
ATOM      5  C   UNL     1       2.312   6.065  20.146  0.00  0.00    +0.000 A 
ATOM      6  C   UNL     1       1.884   4.780  20.470  0.00  0.00    +0.000 A 
ATOM      7  C   UNL     1       2.678   3.668  20.144  0.00  0.00    +0.000 A 
ATOM      8  C   UNL     1       3.899   3.829  19.485  0.00  0.00    +0.000 A 
ATOM      9  C   UNL     1       4.282   5.109  19.084  0.00  0.00    +0.000 A 
ATOM     10  C   UNL     1       3.474   6.214  19.375  0.00  0.00    +0.000 A 
BRANCH   9  11
ATOM     11  S   UNL     1       5.907   5.429  18.412  0.00  0.00    +0.000 S 
ATOM     12  O   UNL     1       5.839   6.748  17.819  0.00  0.00    +0.000 OA
ATOM     13  O   UNL     1       6.892   5.109  19.424  0.00  0.00    +0.000 OA
BRANCH  11  14
ATOM     14  N   UNL     1       6.020   4.285  17.178  0.00  0.00    +0.000 NA
ATOM     15  C   UNL     1       7.319   4.158  16.465  0.00  0.00    +0.000 C 
ATOM     16  C   UNL     1       7.334   5.031  15.204  0.00  0.00    +0.000 C 
ATOM     17  O   UNL     1       6.257   4.672  14.327  0.00  0.00    +0.000 OA
ATOM     18  C   UNL     1       4.990   4.882  14.963  0.00  0.00    +0.000 C 
ATOM     19  C   UNL     1       4.857   4.089  16.267  0.00  0.00    +0.000 C 
ENDBRANCH  11  14
ENDBRANCH   9  11
ENDBRANCH   3   5
BRANCH   1  20
ATOM     20  C   UNL     1       0.642   9.502  20.733  0.00  0.00    +0.000 C 
BRANCH  20  23
ATOM     21  C   UNL     1      -0.714  10.975  19.234  0.00  0.00    +0.000 C 
ATOM     22  O   UNL     1       0.238  11.736  19.068  0.00  0.00    +0.000 OA
ATOM     23  N   UNL     1      -0.604   9.828  20.005  0.00  0.00    +0.000 N 
ATOM     24  H   UNL     1      -1.329   9.127  19.975  0.00  0.00    +0.000 HD
BRANCH  21  28
ATOM     25  C   UNL     1      -4.735  11.801  17.845  0.00  0.00    +0.000 A 
ATOM     26  C   UNL     1      -4.274  12.264  19.077  0.00  0.00    +0.000 A 
ATOM     27  C   UNL     1      -2.950  12.047  19.477  0.00  0.00    +0.000 A 
ATOM     28  C   UNL     1      -2.057  11.338  18.658  0.00  0.00    +0.000 A 
ATOM     29  C   UNL     1      -2.505  10.933  17.393  0.00  0.00    +0.000 A 
ATOM     30  C   UNL     1      -3.838  11.160  16.991  0.00  0.00    +0.000 A 
BRANCH  25  32
ATOM     31  C   UNL     1      -6.988  11.140  18.287  0.00  0.00    +0.000 C 
ATOM     32  O   UNL     1      -6.069  12.003  17.632  0.00  0.00    +0.000 OA
ENDBRANCH  25  32
ENDBRANCH  21  28
ENDBRANCH  20  23
BRANCH  20  33
ATOM     33  C   UNL     1       0.383   9.238  22.249  0.00  0.00    +0.000 C 
ATOM     34  C   UNL     1       1.598   9.318  23.182  0.00  0.00    +0.000 C 
ATOM     35  C   UNL     1      -0.755  10.098  22.801  0.00  0.00    +0.000 C 
ENDBRANCH  20  33
ENDBRANCH   1  20
TORSDOF 8
ENDMDL
MODEL 8
REMARK VINA RESULT:      -7.2      2.577      4.386
REMARK  Name = 
REMARK  11 active torsions:
REMARK  status: ('A' for Active; 'I' for Inactive)
REMARK    1  A    between atoms: C_1  and  O_2
REMARK    2  A    between atoms: O_2  and  C_3
REMARK    3  A    between atoms: C_6  and  C_7
REMARK    4  A    between atoms: N_9  and  C_10
REMARK    5  A    between atoms: C_10  and  C_11
REMARK    6  A    between atoms: C_10  and  C_29
REMARK    7  A    between atoms: N_13  and  C_14
REMARK    8  A    between atoms: C_18  and  S_19
REMARK    9  A    between atoms: S_19  and  N_22
REMARK   10  A    between atoms: C_29  and  C_30
REMARK   11  A    between atoms: C_29  and  C_31
REMARK                            x       y       z     vdW  Elec       q    Type
REMARK                         _______ _______ _______ _____ _____    ______ ____
ROOT
ATOM      1  C   UNL     1       1.327   9.046  18.906  0.00  0.00    +0.000 C 
ATOM      2  O   UNL     1       1.283   8.674  17.734  0.00  0.00    +0.000 OA
ATOM      3  N   UNL     1       1.611   8.216  19.974  0.00  0.00    +0.000 N 
ATOM      4  H   UNL     1       1.419   8.594  20.885  0.00  0.00    +0.000 HD
ENDROOT
BRANCH   3   5
ATOM      5  C   UNL     1       1.896   6.833  19.977  0.00  0.00    +0.000 A 
ATOM      6  C   UNL     1       1.152   5.861  20.642  0.00  0.00    +0.000 A 
ATOM      7  C   UNL     1       1.656   4.557  20.780  0.00  0.00    +0.000 A 
ATOM      8  C   UNL     1       2.901   4.212  20.249  0.00  0.00    +0.000 A 
ATOM      9  C   UNL     1       3.603   5.163  19.509  0.00  0.00    +0.000 A 
ATOM     10  C   UNL     1       3.084   6.451  19.338  0.00  0.00    +0.000 A 
BRANCH   9  11
ATOM     11  S   UNL     1       5.280   4.869  18.962  0.00  0.00    +0.000 S 
ATOM     12  O   UNL     1       6.126   5.649  19.841  0.00  0.00    +0.000 OA
ATOM     13  O   UNL     1       5.467   3.443  18.806  0.00  0.00    +0.000 OA
BRANCH  11  14
ATOM     14  N   UNL     1       5.289   5.578  17.431  0.00  0.00    +0.000 NA
ATOM     15  C   UNL     1       5.481   4.688  16.255  0.00  0.00    +0.000 C 
ATOM     16  C   UNL     1       6.962   4.614  15.865  0.00  0.00    +0.000 C 
ATOM     17  O   UNL     1       7.476   5.923  15.578  0.00  0.00    +0.000 OA
ATOM     18  C   UNL     1       7.393   6.768  16.732  0.00  0.00    +0.000 C 
ATOM     19  C   UNL     1       5.957   6.899  17.253  0.00  0.00    +0.000 C 
ENDBRANCH  11  14
ENDBRANCH   9  11
ENDBRANCH   3   5
BRANCH   1  20
ATOM     20  C   UNL     1       0.869  10.497  19.294  0.00  0.00    +0.000 C 
BRANCH  20  23
ATOM     21  C   UNL     1      -1.219  11.701  18.628  0.00  0.00    +0.000 C 
ATOM     22  O   UNL     1      -0.570  12.581  18.066  0.00  0.00    +0.000 OA
ATOM     23  N   UNL     1      -0.604  10.614  19.229  0.00  0.00    +0.000 N 
ATOM     24  H   UNL     1      -1.154   9.816  19.515  0.00  0.00    +0.000 HD
BRANCH  21  28
ATOM     25  C   UNL     1      -5.500  12.377  18.683  0.00  0.00    +0.000 A 
ATOM     26  C   UNL     1      -4.865  11.775  17.596  0.00  0.00    +0.000 A 
ATOM     27  C   UNL     1      -3.492  11.502  17.627  0.00  0.00    +0.000 A 
ATOM     28  C   UNL     1      -2.714  11.846  18.744  0.00  0.00    +0.000 A 
ATOM     29  C   UNL     1      -3.367  12.388  19.858  0.00  0.00    +0.000 A 
ATOM     30  C   UNL     1      -4.752  12.656  19.826  0.00  0.00    +0.000 A 
BRANCH  25  32
ATOM     31  C   UNL     1      -7.248  12.890  17.138  0.00  0.00    +0.000 C 
ATOM     32  O   UNL     1      -6.818  12.667  18.474  0.00  0.00    +0.000 OA
ENDBRANCH  25  32
ENDBRANCH  21  28
ENDBRANCH  20  23
BRANCH  20  33
ATOM     33  C   UNL     1       1.448  11.114  20.607  0.00  0.00    +0.000 C 
ATOM     34  C   UNL     1       1.876  12.585  20.548  0.00  0.00    +0.000 C 
ATOM     35  C   UNL     1       0.529  10.886  21.808  0.00  0.00    +0.000 C 
ENDBRANCH  20  33
ENDBRANCH   1  20
TORSDOF 8
ENDMDL
MODEL 9
REMARK VINA RESULT:      -7.1      3.679      5.598
REMARK  Name = 
REMARK  11 active torsions:
REMARK  status: ('A' for Active; 'I' for Inactive)
REMARK    1  A    between atoms: C_1  and  O_2
REMARK    2  A    between atoms: O_2  and  C_3
REMARK    3  A    between atoms: C_6  and  C_7
REMARK    4  A    between atoms: N_9  and  C_10
REMARK    5  A    between atoms: C_10  and  C_11
REMARK    6  A    between atoms: C_10  and  C_29
REMARK    7  A    between atoms: N_13  and  C_14
REMARK    8  A    between atoms: C_18  and  S_19
REMARK    9  A    between atoms: S_19  and  N_22
REMARK   10  A    between atoms: C_29  and  C_30
REMARK   11  A    between atoms: C_29  and  C_31
REMARK                            x       y       z     vdW  Elec       q    Type
REMARK                         _______ _______ _______ _____ _____    ______ ____
ROOT
ATOM      1  C   UNL     1       1.702   9.102  18.521  0.00  0.00    +0.000 C 
ATOM      2  O   UNL     1       1.693   9.313  17.309  0.00  0.00    +0.000 OA
ATOM      3  N   UNL     1       2.334   8.028  19.118  0.00  0.00    +0.000 N 
ATOM      4  H   UNL     1       2.100   7.862  20.082  0.00  0.00    +0.000 HD
ENDROOT
BRANCH   3   5
ATOM      5  C   UNL     1       3.069   6.980  18.521  0.00  0.00    +0.000 A 
ATOM      6  C   UNL     1       4.247   7.137  17.795  0.00  0.00    +0.000 A 
ATOM      7  C   UNL     1       4.761   6.067  17.043  0.00  0.00    +0.000 A 
ATOM      8  C   UNL     1       4.108   4.832  17.018  0.00  0.00    +0.000 A 
ATOM      9  C   UNL     1       2.978   4.653  17.815  0.00  0.00    +0.000 A 
ATOM     10  C   UNL     1       2.487   5.707  18.594  0.00  0.00    +0.000 A 
BRANCH   9  11
ATOM     11  S   UNL     1       1.976   3.177  17.696  0.00  0.00    +0.000 S 
ATOM     12  O   UNL     1       0.602   3.621  17.800  0.00  0.00    +0.000 OA
ATOM     13  O   UNL     1       2.434   2.403  16.562  0.00  0.00    +0.000 OA
BRANCH  11  14
ATOM     14  N   UNL     1       2.386   2.348  19.107  0.00  0.00    +0.000 NA
ATOM     15  C   UNL     1       1.305   2.074  20.091  0.00  0.00    +0.000 C 
ATOM     16  C   UNL     1       1.245   3.178  21.154  0.00  0.00    +0.000 C 
ATOM     17  O   UNL     1       2.504   3.298  21.831  0.00  0.00    +0.000 OA
ATOM     18  C   UNL     1       3.544   3.661  20.914  0.00  0.00    +0.000 C 
ATOM     19  C   UNL     1       3.687   2.651  19.769  0.00  0.00    +0.000 C 
ENDBRANCH  11  14
ENDBRANCH   9  11
ENDBRANCH   3   5
BRANCH   1  20
ATOM     20  C   UNL     1       0.815   9.970  19.483  0.00  0.00    +0.000 C 
BRANCH  20  23
ATOM     21  C   UNL     1      -1.030  11.447  18.664  0.00  0.00    +0.000 C 
ATOM     22  O   UNL     1      -0.351  12.455  18.856  0.00  0.00    +0.000 OA
ATOM     23  N   UNL     1      -0.532  10.176  18.906  0.00  0.00    +0.000 N 
ATOM     24  H   UNL     1      -1.028   9.366  18.567  0.00  0.00    +0.000 HD
BRANCH  21  28
ATOM     25  C   UNL     1      -5.252  11.629  17.706  0.00  0.00    +0.000 A 
ATOM     26  C   UNL     1      -4.749  12.132  18.905  0.00  0.00    +0.000 A 
ATOM     27  C   UNL     1      -3.374  12.128  19.166  0.00  0.00    +0.000 A 
ATOM     28  C   UNL     1      -2.466  11.596  18.236  0.00  0.00    +0.000 A 
ATOM     29  C   UNL     1      -2.970  11.153  17.006  0.00  0.00    +0.000 A 
ATOM     30  C   UNL     1      -4.356  11.165  16.744  0.00  0.00    +0.000 A 
BRANCH  25  32
ATOM     31  C   UNL     1      -7.352  11.720  18.842  0.00  0.00    +0.000 C 
ATOM     32  O   UNL     1      -6.616  11.612  17.632  0.00  0.00    +0.000 OA
ENDBRANCH  25  32
ENDBRANCH  21  28
ENDBRANCH  20  23
BRANCH  20  33
ATOM     33  C   UNL     1       0.750   9.552  20.986  0.00  0.00    +0.000 C 
ATOM     34  C   UNL     1       0.450  10.663  22.000  0.00  0.00    +0.000 C 
ATOM     35  C   UNL     1      -0.190   8.368  21.217  0.00  0.00    +0.000 C 
ENDBRANCH  20  33
ENDBRANCH   1  20
TORSDOF 8
ENDMDL
