MODEL 1
REMARK VINA RESULT:      -7.6      0.000      0.000
REMARK  Name = 
REMARK  4 active torsions:
REMARK  status: ('A' for Active; 'I' for Inactive)
REMARK    1  A    between atoms: C_1  and  N_2
REMARK    2  A    between atoms: C_3  and  C_5
REMARK    3  A    between atoms: C_8  and  C_9
REMARK    4  A    between atoms: C_9  and  C_10
REMARK                            x       y       z     vdW  Elec       q    Type
REMARK                         _______ _______ _______ _____ _____    ______ ____
ROOT
ATOM      1  C   UNL     1       7.104   4.755  16.142  0.00  0.00    +0.000 A 
ATOM      2  N   UNL     1       8.061   4.313  16.937  0.00  0.00    +0.000 NA
ATOM      3  N   UNL     1       7.608   4.499  18.229  0.00  0.00    +0.000 NA
ATOM      4  C   UNL     1       6.410   5.040  18.135  0.00  0.00    +0.000 A 
ATOM      5  O   UNL     1       6.022   5.246  16.835  0.00  0.00    +0.000 OA
ENDROOT
BRANCH   1   8
ATOM      6  C   UNL     1       6.197   3.522  12.717  0.00  0.00    +0.000 C 
ATOM      7  N   UNL     1       6.319   3.693  14.145  0.00  0.00    +0.000 N 
ATOM      8  C   UNL     1       7.099   4.705  14.691  0.00  0.00    +0.000 C 
ATOM      9  O   UNL     1       7.711   5.494  13.972  0.00  0.00    +0.000 OA
ATOM     10  H   UNL     1       5.808   3.085  14.778  0.00  0.00    +0.000 HD
ENDBRANCH   1   8
BRANCH   4  11
ATOM     11  C   UNL     1       5.414   5.313  19.206  0.00  0.00    +0.000 C 
BRANCH  11  12
ATOM     12  C   UNL     1       4.135   4.512  19.093  0.00  0.00    +0.000 A 
ATOM     13  C   UNL     1       2.986   5.080  18.522  0.00  0.00    +0.000 A 
ATOM     14  C   UNL     1       1.795   4.351  18.443  0.00  0.00    +0.000 A 
ATOM     15  C   UNL     1       1.746   3.045  18.928  0.00  0.00    +0.000 A 
ATOM     16 CL   UNL     1       0.273   2.161  18.856  0.00  0.00    +0.000 Cl
ATOM     17  C   UNL     1       2.884   2.459  19.476  0.00  0.00    +0.000 A 
ATOM     18  C   UNL     1       4.074   3.189  19.560  0.00  0.00    +0.000 A 
ENDBRANCH  11  12
ENDBRANCH   4  11
TORSDOF 3
ENDMDL
MODEL 2
REMARK VINA RESULT:      -7.1      1.421      1.575
REMARK  Name = 
REMARK  4 active torsions:
REMARK  status: ('A' for Active; 'I' for Inactive)
REMARK    1  A    between atoms: C_1  and  N_2
REMARK    2  A    between atoms: C_3  and  C_5
REMARK    3  A    between atoms: C_8  and  C_9
REMARK    4  A    between atoms: C_9  and  C_10
REMARK                            x       y       z     vdW  Elec       q    Type
REMARK                         _______ _______ _______ _____ _____    ______ ____
ROOT
ATOM      1  C   UNL     1       6.650   5.161  15.188  0.00  0.00    +0.000 A 
ATOM      2  N   UNL     1       7.243   4.756  16.296  0.00  0.00    +0.000 NA
ATOM      3  N   UNL     1       6.515   5.290  17.343  0.00  0.00    +0.000 NA
ATOM      4  C   UNL     1       5.531   5.982  16.803  0.00  0.00    +0.000 A 
ATOM      5  O   UNL     1       5.556   5.959  15.431  0.00  0.00    +0.000 OA
ENDROOT
BRANCH   1   8
ATOM      6  C   UNL     1       6.604   3.205  11.987  0.00  0.00    +0.000 C 
ATOM      7  N   UNL     1       6.359   3.683  13.327  0.00  0.00    +0.000 N 
ATOM      8  C   UNL     1       7.020   4.796  13.832  0.00  0.00    +0.000 C 
ATOM      9  O   UNL     1       7.836   5.415  13.150  0.00  0.00    +0.000 OA
ATOM     10  H   UNL     1       5.671   3.224  13.917  0.00  0.00    +0.000 HD
ENDBRANCH   1   8
BRANCH   4  11
ATOM     11  C   UNL     1       4.371   6.639  17.463  0.00  0.00    +0.000 C 
BRANCH  11  12
ATOM     12  C   UNL     1       3.500   5.704  18.276  0.00  0.00    +0.000 A 
ATOM     13  C   UNL     1       2.531   4.906  17.650  0.00  0.00    +0.000 A 
ATOM     14  C   UNL     1       1.707   4.063  18.403  0.00  0.00    +0.000 A 
ATOM     15  C   UNL     1       1.850   4.008  19.789  0.00  0.00    +0.000 A 
ATOM     16 CL   UNL     1       0.816   2.994  20.714  0.00  0.00    +0.000 Cl
ATOM     17  C   UNL     1       2.822   4.776  20.423  0.00  0.00    +0.000 A 
ATOM     18  C   UNL     1       3.644   5.623  19.671  0.00  0.00    +0.000 A 
ENDBRANCH  11  12
ENDBRANCH   4  11
TORSDOF 3
ENDMDL
MODEL 3
REMARK VINA RESULT:      -7.0      2.247      3.283
REMARK  Name = 
REMARK  4 active torsions:
REMARK  status: ('A' for Active; 'I' for Inactive)
REMARK    1  A    between atoms: C_1  and  N_2
REMARK    2  A    between atoms: C_3  and  C_5
REMARK    3  A    between atoms: C_8  and  C_9
REMARK    4  A    between atoms: C_9  and  C_10
REMARK                            x       y       z     vdW  Elec       q    Type
REMARK                         _______ _______ _______ _____ _____    ______ ____
ROOT
ATOM      1  C   UNL     1       7.118   5.825  17.390  0.00  0.00    +0.000 A 
ATOM      2  N   UNL     1       7.665   4.943  16.573  0.00  0.00    +0.000 NA
ATOM      3  N   UNL     1       6.643   4.104  16.169  0.00  0.00    +0.000 NA
ATOM      4  C   UNL     1       5.548   4.530  16.766  0.00  0.00    +0.000 A 
ATOM      5  O   UNL     1       5.771   5.618  17.572  0.00  0.00    +0.000 OA
ENDROOT
BRANCH   1   8
ATOM      6  C   UNL     1       8.205   9.383  17.876  0.00  0.00    +0.000 C 
ATOM      7  N   UNL     1       7.615   8.167  17.368  0.00  0.00    +0.000 N 
ATOM      8  C   UNL     1       7.790   6.951  18.016  0.00  0.00    +0.000 C 
ATOM      9  O   UNL     1       8.454   6.869  19.049  0.00  0.00    +0.000 OA
ATOM     10  H   UNL     1       7.034   8.189  16.536  0.00  0.00    +0.000 HD
ENDBRANCH   1   8
BRANCH   4  11
ATOM     11  C   UNL     1       4.140   4.087  16.575  0.00  0.00    +0.000 C 
BRANCH  11  12
ATOM     12  C   UNL     1       3.425   3.700  17.852  0.00  0.00    +0.000 A 
ATOM     13  C   UNL     1       2.050   3.936  17.999  0.00  0.00    +0.000 A 
ATOM     14  C   UNL     1       1.394   3.605  19.189  0.00  0.00    +0.000 A 
ATOM     15  C   UNL     1       2.108   3.029  20.240  0.00  0.00    +0.000 A 
ATOM     16 CL   UNL     1       1.306   2.651  21.712  0.00  0.00    +0.000 Cl
ATOM     17  C   UNL     1       3.468   2.768  20.101  0.00  0.00    +0.000 A 
ATOM     18  C   UNL     1       4.126   3.103  18.912  0.00  0.00    +0.000 A 
ENDBRANCH  11  12
ENDBRANCH   4  11
TORSDOF 3
ENDMDL
MODEL 4
REMARK VINA RESULT:      -7.0      1.586      1.831
REMARK  Name = 
REMARK  4 active torsions:
REMARK  status: ('A' for Active; 'I' for Inactive)
REMARK    1  A    between atoms: C_1  and  N_2
REMARK    2  A    between atoms: C_3  and  C_5
REMARK    3  A    between atoms: C_8  and  C_9
REMARK    4  A    between atoms: C_9  and  C_10
REMARK                            x       y       z     vdW  Elec       q    Type
REMARK                         _______ _______ _______ _____ _____    ______ ____
ROOT
ATOM      1  C   UNL     1       6.474   4.756  14.250  0.00  0.00    +0.000 A 
ATOM      2  N   UNL     1       7.642   5.154  14.722  0.00  0.00    +0.000 NA
ATOM      3  N   UNL     1       7.386   5.742  15.946  0.00  0.00    +0.000 NA
ATOM      4  C   UNL     1       6.084   5.664  16.136  0.00  0.00    +0.000 A 
ATOM      5  O   UNL     1       5.430   5.059  15.093  0.00  0.00    +0.000 OA
ENDROOT
BRANCH   1   8
ATOM      6  C   UNL     1       4.528   3.032  11.546  0.00  0.00    +0.000 C 
ATOM      7  N   UNL     1       4.917   3.739  12.743  0.00  0.00    +0.000 N 
ATOM      8  C   UNL     1       6.249   4.023  13.017  0.00  0.00    +0.000 C 
ATOM      9  O   UNL     1       7.144   3.684  12.244  0.00  0.00    +0.000 OA
ATOM     10  H   UNL     1       4.211   4.067  13.396  0.00  0.00    +0.000 HD
ENDBRANCH   1   8
BRANCH   4  11
ATOM     11  C   UNL     1       5.288   6.007  17.346  0.00  0.00    +0.000 C 
BRANCH  11  12
ATOM     12  C   UNL     1       4.162   5.042  17.651  0.00  0.00    +0.000 A 
ATOM     13  C   UNL     1       2.839   5.497  17.747  0.00  0.00    +0.000 A 
ATOM     14  C   UNL     1       1.802   4.611  18.056  0.00  0.00    +0.000 A 
ATOM     15  C   UNL     1       2.080   3.261  18.268  0.00  0.00    +0.000 A 
ATOM     16 CL   UNL     1       0.808   2.180  18.678  0.00  0.00    +0.000 Cl
ATOM     17  C   UNL     1       3.385   2.790  18.155  0.00  0.00    +0.000 A 
ATOM     18  C   UNL     1       4.424   3.676  17.849  0.00  0.00    +0.000 A 
ENDBRANCH  11  12
ENDBRANCH   4  11
TORSDOF 3
ENDMDL
MODEL 5
REMARK VINA RESULT:      -6.8      2.054      2.754
REMARK  Name = 
REMARK  4 active torsions:
REMARK  status: ('A' for Active; 'I' for Inactive)
REMARK    1  A    between atoms: C_1  and  N_2
REMARK    2  A    between atoms: C_3  and  C_5
REMARK    3  A    between atoms: C_8  and  C_9
REMARK    4  A    between atoms: C_9  and  C_10
REMARK                            x       y       z     vdW  Elec       q    Type
REMARK                         _______ _______ _______ _____ _____    ______ ____
ROOT
ATOM      1  C   UNL     1       6.568   4.226  13.752  0.00  0.00    +0.000 A 
ATOM      2  N   UNL     1       7.368   5.277  13.759  0.00  0.00    +0.000 NA
ATOM      3  N   UNL     1       7.604   5.576  15.088  0.00  0.00    +0.000 NA
ATOM      4  C   UNL     1       6.936   4.689  15.798  0.00  0.00    +0.000 A 
ATOM      5  O   UNL     1       6.239   3.801  15.018  0.00  0.00    +0.000 OA
ENDROOT
BRANCH   1   8
ATOM      6  C   UNL     1       4.123   3.002  11.184  0.00  0.00    +0.000 C 
ATOM      7  N   UNL     1       4.739   3.639  12.324  0.00  0.00    +0.000 N 
ATOM      8  C   UNL     1       6.098   3.510  12.580  0.00  0.00    +0.000 C 
ATOM      9  O   UNL     1       6.825   2.848  11.839  0.00  0.00    +0.000 OA
ATOM     10  H   UNL     1       4.186   4.221  12.946  0.00  0.00    +0.000 HD
ENDBRANCH   1   8
BRANCH   4  11
ATOM     11  C   UNL     1       6.953   4.455  17.268  0.00  0.00    +0.000 C 
BRANCH  11  12
ATOM     12  C   UNL     1       5.658   4.801  17.973  0.00  0.00    +0.000 A 
ATOM     13  C   UNL     1       4.966   5.979  17.656  0.00  0.00    +0.000 A 
ATOM     14  C   UNL     1       3.785   6.313  18.327  0.00  0.00    +0.000 A 
ATOM     15  C   UNL     1       3.285   5.468  19.317  0.00  0.00    +0.000 A 
ATOM     16 CL   UNL     1       1.850   5.896  20.161  0.00  0.00    +0.000 Cl
ATOM     17  C   UNL     1       3.948   4.284  19.627  0.00  0.00    +0.000 A 
ATOM     18  C   UNL     1       5.132   3.951  18.960  0.00  0.00    +0.000 A 
ENDBRANCH  11  12
ENDBRANCH   4  11
TORSDOF 3
ENDMDL
MODEL 6
REMARK VINA RESULT:      -6.8      2.515      3.549
REMARK  Name = 
REMARK  4 active torsions:
REMARK  status: ('A' for Active; 'I' for Inactive)
REMARK    1  A    between atoms: C_1  and  N_2
REMARK    2  A    between atoms: C_3  and  C_5
REMARK    3  A    between atoms: C_8  and  C_9
REMARK    4  A    between atoms: C_9  and  C_10
REMARK                            x       y       z     vdW  Elec       q    Type
REMARK                         _______ _______ _______ _____ _____    ______ ____
ROOT
ATOM      1  C   UNL     1       6.626   6.464  17.043  0.00  0.00    +0.000 A 
ATOM      2  N   UNL     1       5.914   6.919  16.028  0.00  0.00    +0.000 NA
ATOM      3  N   UNL     1       5.122   5.867  15.608  0.00  0.00    +0.000 NA
ATOM      4  C   UNL     1       5.405   4.846  16.392  0.00  0.00    +0.000 A 
ATOM      5  O   UNL     1       6.364   5.144  17.326  0.00  0.00    +0.000 OA
ENDROOT
BRANCH   1   8
ATOM      6  C   UNL     1       8.538   9.468  18.224  0.00  0.00    +0.000 C 
ATOM      7  N   UNL     1       7.668   8.570  17.502  0.00  0.00    +0.000 N 
ATOM      8  C   UNL     1       7.555   7.231  17.853  0.00  0.00    +0.000 C 
ATOM      9  O   UNL     1       8.193   6.764  18.797  0.00  0.00    +0.000 OA
ATOM     10  H   UNL     1       7.098   8.916  16.736  0.00  0.00    +0.000 HD
ENDBRANCH   1   8
BRANCH   4  11
ATOM     11  C   UNL     1       4.744   3.515  16.478  0.00  0.00    +0.000 C 
BRANCH  11  12
ATOM     12  C   UNL     1       3.825   3.347  17.670  0.00  0.00    +0.000 A 
ATOM     13  C   UNL     1       2.440   3.525  17.534  0.00  0.00    +0.000 A 
ATOM     14  C   UNL     1       1.594   3.398  18.640  0.00  0.00    +0.000 A 
ATOM     15  C   UNL     1       2.126   3.086  19.891  0.00  0.00    +0.000 A 
ATOM     16 CL   UNL     1       1.087   2.960  21.254  0.00  0.00    +0.000 Cl
ATOM     17  C   UNL     1       3.495   2.884  20.038  0.00  0.00    +0.000 A 
ATOM     18  C   UNL     1       4.344   3.016  18.933  0.00  0.00    +0.000 A 
ENDBRANCH  11  12
ENDBRANCH   4  11
TORSDOF 3
ENDMDL
MODEL 7
REMARK VINA RESULT:      -6.7      1.829      2.101
REMARK  Name = 
REMARK  4 active torsions:
REMARK  status: ('A' for Active; 'I' for Inactive)
REMARK    1  A    between atoms: C_1  and  N_2
REMARK    2  A    between atoms: C_3  and  C_5
REMARK    3  A    between atoms: C_8  and  C_9
REMARK    4  A    between atoms: C_9  and  C_10
REMARK                            x       y       z     vdW  Elec       q    Type
REMARK                         _______ _______ _______ _____ _____    ______ ____
ROOT
ATOM      1  C   UNL     1       6.115   5.940  15.766  0.00  0.00    +0.000 A 
ATOM      2  N   UNL     1       6.816   6.405  16.784  0.00  0.00    +0.000 NA
ATOM      3  N   UNL     1       5.909   7.009  17.635  0.00  0.00    +0.000 NA
ATOM      4  C   UNL     1       4.722   6.871  17.080  0.00  0.00    +0.000 A 
ATOM      5  O   UNL     1       4.771   6.210  15.879  0.00  0.00    +0.000 OA
ENDROOT
BRANCH   1   8
ATOM      6  C   UNL     1       6.073   3.460  12.952  0.00  0.00    +0.000 C 
ATOM      7  N   UNL     1       5.719   4.285  14.082  0.00  0.00    +0.000 N 
ATOM      8  C   UNL     1       6.629   5.168  14.649  0.00  0.00    +0.000 C 
ATOM      9  O   UNL     1       7.771   5.278  14.203  0.00  0.00    +0.000 OA
ATOM     10  H   UNL     1       4.779   4.252  14.465  0.00  0.00    +0.000 HD
ENDBRANCH   1   8
BRANCH   4  11
ATOM     11  C   UNL     1       3.381   7.203  17.634  0.00  0.00    +0.000 C 
BRANCH  11  12
ATOM     12  C   UNL     1       2.757   6.104  18.468  0.00  0.00    +0.000 A 
ATOM     13  C   UNL     1       2.679   6.224  19.863  0.00  0.00    +0.000 A 
ATOM     14  C   UNL     1       2.128   5.198  20.637  0.00  0.00    +0.000 A 
ATOM     15  C   UNL     1       1.647   4.043  20.020  0.00  0.00    +0.000 A 
ATOM     16 CL   UNL     1       0.998   2.771  20.976  0.00  0.00    +0.000 Cl
ATOM     17  C   UNL     1       1.696   3.918  18.635  0.00  0.00    +0.000 A 
ATOM     18  C   UNL     1       2.250   4.943  17.860  0.00  0.00    +0.000 A 
ENDBRANCH  11  12
ENDBRANCH   4  11
TORSDOF 3
ENDMDL
MODEL 8
REMARK VINA RESULT:      -6.7      1.246      1.246
REMARK  Name = 
REMARK  4 active torsions:
REMARK  status: ('A' for Active; 'I' for Inactive)
REMARK    1  A    between atoms: C_1  and  N_2
REMARK    2  A    between atoms: C_3  and  C_5
REMARK    3  A    between atoms: C_8  and  C_9
REMARK    4  A    between atoms: C_9  and  C_10
REMARK                            x       y       z     vdW  Elec       q    Type
REMARK                         _______ _______ _______ _____ _____    ______ ____
ROOT
ATOM      1  C   UNL     1       6.837   5.350  15.998  0.00  0.00    +0.000 A 
ATOM      2  N   UNL     1       7.563   6.345  16.475  0.00  0.00    +0.000 NA
ATOM      3  N   UNL     1       7.215   6.475  17.806  0.00  0.00    +0.000 NA
ATOM      4  C   UNL     1       6.304   5.554  18.049  0.00  0.00    +0.000 A 
ATOM      5  O   UNL     1       6.000   4.803  16.942  0.00  0.00    +0.000 OA
ENDROOT
BRANCH   1   8
ATOM      6  C   UNL     1       7.889   5.090  12.406  0.00  0.00    +0.000 C 
ATOM      7  N   UNL     1       7.705   5.517  13.773  0.00  0.00    +0.000 N 
ATOM      8  C   UNL     1       6.906   4.801  14.655  0.00  0.00    +0.000 C 
ATOM      9  O   UNL     1       6.331   3.772  14.301  0.00  0.00    +0.000 OA
ATOM     10  H   UNL     1       8.184   6.342  14.120  0.00  0.00    +0.000 HD
ENDBRANCH   1   8
BRANCH   4  11
ATOM     11  C   UNL     1       5.694   5.154  19.346  0.00  0.00    +0.000 C 
BRANCH  11  12
ATOM     12  C   UNL     1       4.376   4.419  19.220  0.00  0.00    +0.000 A 
ATOM     13  C   UNL     1       3.203   5.113  18.890  0.00  0.00    +0.000 A 
ATOM     14  C   UNL     1       1.979   4.441  18.801  0.00  0.00    +0.000 A 
ATOM     15  C   UNL     1       1.921   3.067  19.037  0.00  0.00    +0.000 A 
ATOM     16 CL   UNL     1       0.412   2.249  18.957  0.00  0.00    +0.000 Cl
ATOM     17  C   UNL     1       3.081   2.361  19.344  0.00  0.00    +0.000 A 
ATOM     18  C   UNL     1       4.305   3.034  19.438  0.00  0.00    +0.000 A 
ENDBRANCH  11  12
ENDBRANCH   4  11
TORSDOF 3
ENDMDL
MODEL 9
REMARK VINA RESULT:      -6.7      1.481      1.870
REMARK  Name = 
REMARK  4 active torsions:
REMARK  status: ('A' for Active; 'I' for Inactive)
REMARK    1  A    between atoms: C_1  and  N_2
REMARK    2  A    between atoms: C_3  and  C_5
REMARK    3  A    between atoms: C_8  and  C_9
REMARK    4  A    between atoms: C_9  and  C_10
REMARK                            x       y       z     vdW  Elec       q    Type
REMARK                         _______ _______ _______ _____ _____    ______ ____
ROOT
ATOM      1  C   UNL     1       6.850   4.517  14.191  0.00  0.00    +0.000 A 
ATOM      2  N   UNL     1       7.474   5.647  14.471  0.00  0.00    +0.000 NA
ATOM      3  N   UNL     1       7.423   5.787  15.846  0.00  0.00    +0.000 NA
ATOM      4  C   UNL     1       6.774   4.737  16.308  0.00  0.00    +0.000 A 
ATOM      5  O   UNL     1       6.365   3.886  15.313  0.00  0.00    +0.000 OA
ENDROOT
BRANCH   1   8
ATOM      6  C   UNL     1       5.554   2.159  11.578  0.00  0.00    +0.000 C 
ATOM      7  N   UNL     1       5.819   2.850  12.817  0.00  0.00    +0.000 N 
ATOM      8  C   UNL     1       6.707   3.916  12.877  0.00  0.00    +0.000 C 
ATOM      9  O   UNL     1       7.298   4.310  11.872  0.00  0.00    +0.000 OA
ATOM     10  H   UNL     1       5.332   2.582  13.667  0.00  0.00    +0.000 HD
ENDBRANCH   1   8
BRANCH   4  11
ATOM     11  C   UNL     1       6.561   4.309  17.717  0.00  0.00    +0.000 C 
BRANCH  11  12
ATOM     12  C   UNL     1       5.109   4.124  18.104  0.00  0.00    +0.000 A 
ATOM     13  C   UNL     1       4.095   4.807  17.416  0.00  0.00    +0.000 A 
ATOM     14  C   UNL     1       2.756   4.658  17.791  0.00  0.00    +0.000 A 
ATOM     15  C   UNL     1       2.420   3.821  18.855  0.00  0.00    +0.000 A 
ATOM     16 CL   UNL     1       0.777   3.665  19.333  0.00  0.00    +0.000 Cl
ATOM     17  C   UNL     1       3.413   3.120  19.533  0.00  0.00    +0.000 A 
ATOM     18  C   UNL     1       4.753   3.270  19.162  0.00  0.00    +0.000 A 
ENDBRANCH  11  12
ENDBRANCH   4  11
TORSDOF 3
ENDMDL
