MODEL 1
REMARK VINA RESULT:      -8.0      0.000      0.000
REMARK  Name = 
REMARK  4 active torsions:
REMARK  status: ('A' for Active; 'I' for Inactive)
REMARK    1  A    between atoms: C_1  and  N_2
REMARK    2  A    between atoms: N_9  and  C_10
REMARK    3  A    between atoms: N_16  and  C_17
REMARK    4  A    between atoms: C_19  and  C_20
REMARK                            x       y       z     vdW  Elec       q    Type
REMARK                         _______ _______ _______ _____ _____    ______ ____
ROOT
ATOM      1  C   UNL     1       0.710   2.126  22.670  0.00  0.00    +0.000 C 
ATOM      2  N   UNL     1       1.489   2.660  21.577  0.00  0.00    +0.000 N 
ATOM      3  C   UNL     1       1.043   3.546  20.625  0.00  0.00    +0.000 A 
ATOM      4  C   UNL     1       2.161   3.869  19.912  0.00  0.00    +0.000 A 
ATOM      5  C   UNL     1       3.200   3.118  20.449  0.00  0.00    +0.000 A 
ATOM      6  N   UNL     1       2.809   2.345  21.462  0.00  0.00    +0.000 NA
ATOM      7  C   UNL     1       4.440   3.374  19.738  0.00  0.00    +0.000 C 
ATOM      8  O   UNL     1       5.516   2.824  19.921  0.00  0.00    +0.000 OA
ATOM      9  N   UNL     1       4.097   4.358  18.752  0.00  0.00    +0.000 N 
ATOM     10  C   UNL     1       2.637   4.674  18.779  0.00  0.00    +0.000 C 
ENDROOT
BRANCH   9  11
ATOM     11  C   UNL     1       4.949   4.810  17.751  0.00  0.00    +0.000 A 
ATOM     12  C   UNL     1       4.915   4.152  16.449  0.00  0.00    +0.000 A 
ATOM     13  C   UNL     1       5.812   4.414  15.493  0.00  0.00    +0.000 A 
ATOM     14 CL   UNL     1       5.794   3.547  14.004  0.00  0.00    +0.000 Cl
ATOM     15  C   UNL     1       6.849   5.472  15.697  0.00  0.00    +0.000 A 
ATOM     16  O   UNL     1       7.700   5.697  14.844  0.00  0.00    +0.000 OA
ATOM     17  N   UNL     1       6.742   6.169  16.904  0.00  0.00    +0.000 N 
ATOM     18  C   UNL     1       7.658   7.276  17.147  0.00  0.00    +0.000 C 
ATOM     19  C   UNL     1       5.840   5.811  17.903  0.00  0.00    +0.000 A 
ENDBRANCH   9  11
BRANCH  10  20
ATOM     20  C   UNL     1       2.271   6.115  19.087  0.00  0.00    +0.000 A 
ATOM     21  C   UNL     1       1.895   6.443  20.404  0.00  0.00    +0.000 A 
ATOM     22  C   UNL     1       1.527   7.747  20.745  0.00  0.00    +0.000 A 
ATOM     23  C   UNL     1       1.541   8.745  19.778  0.00  0.00    +0.000 A 
ATOM     24 CL   UNL     1       1.078  10.347  20.199  0.00  0.00    +0.000 Cl
ATOM     25  C   UNL     1       1.925   8.450  18.473  0.00  0.00    +0.000 A 
ATOM     26  C   UNL     1       2.287   7.143  18.126  0.00  0.00    +0.000 A 
ENDBRANCH  10  20
TORSDOF 2
ENDMDL
MODEL 2
REMARK VINA RESULT:      -7.7      1.312      2.010
REMARK  Name = 
REMARK  4 active torsions:
REMARK  status: ('A' for Active; 'I' for Inactive)
REMARK    1  A    between atoms: C_1  and  N_2
REMARK    2  A    between atoms: N_9  and  C_10
REMARK    3  A    between atoms: N_16  and  C_17
REMARK    4  A    between atoms: C_19  and  C_20
REMARK                            x       y       z     vdW  Elec       q    Type
REMARK                         _______ _______ _______ _____ _____    ______ ____
ROOT
ATOM      1  C   UNL     1       0.606   2.167  22.786  0.00  0.00    +0.000 C 
ATOM      2  N   UNL     1       1.442   2.606  21.694  0.00  0.00    +0.000 N 
ATOM      3  C   UNL     1       1.054   3.423  20.658  0.00  0.00    +0.000 A 
ATOM      4  C   UNL     1       2.210   3.677  19.975  0.00  0.00    +0.000 A 
ATOM      5  C   UNL     1       3.211   2.956  20.615  0.00  0.00    +0.000 A 
ATOM      6  N   UNL     1       2.761   2.267  21.664  0.00  0.00    +0.000 NA
ATOM      7  C   UNL     1       4.485   3.140  19.945  0.00  0.00    +0.000 C 
ATOM      8  O   UNL     1       5.543   2.593  20.219  0.00  0.00    +0.000 OA
ATOM      9  N   UNL     1       4.204   4.051  18.873  0.00  0.00    +0.000 N 
ATOM     10  C   UNL     1       2.750   4.388  18.809  0.00  0.00    +0.000 C 
ENDROOT
BRANCH   9  11
ATOM     11  C   UNL     1       5.108   4.415  17.883  0.00  0.00    +0.000 A 
ATOM     12  C   UNL     1       6.043   5.503  18.151  0.00  0.00    +0.000 A 
ATOM     13  C   UNL     1       6.827   6.022  17.200  0.00  0.00    +0.000 A 
ATOM     14 CL   UNL     1       7.847   7.369  17.534  0.00  0.00    +0.000 Cl
ATOM     15  C   UNL     1       6.834   5.438  15.822  0.00  0.00    +0.000 A 
ATOM     16  O   UNL     1       7.519   5.927  14.932  0.00  0.00    +0.000 OA
ATOM     17  N   UNL     1       6.028   4.307  15.664  0.00  0.00    +0.000 N 
ATOM     18  C   UNL     1       6.042   3.622  14.378  0.00  0.00    +0.000 C 
ATOM     19  C   UNL     1       5.171   3.847  16.661  0.00  0.00    +0.000 A 
ENDBRANCH   9  11
BRANCH  10  20
ATOM     20  C   UNL     1       2.393   5.853  18.991  0.00  0.00    +0.000 A 
ATOM     21  C   UNL     1       2.376   6.684  17.855  0.00  0.00    +0.000 A 
ATOM     22  C   UNL     1       2.077   8.044  17.960  0.00  0.00    +0.000 A 
ATOM     23  C   UNL     1       1.777   8.592  19.202  0.00  0.00    +0.000 A 
ATOM     24 CL   UNL     1       1.417  10.269  19.331  0.00  0.00    +0.000 Cl
ATOM     25  C   UNL     1       1.769   7.787  20.338  0.00  0.00    +0.000 A 
ATOM     26  C   UNL     1       2.076   6.425  20.237  0.00  0.00    +0.000 A 
ENDBRANCH  10  20
TORSDOF 2
ENDMDL
MODEL 3
REMARK VINA RESULT:      -7.5      6.701      9.969
REMARK  Name = 
REMARK  4 active torsions:
REMARK  status: ('A' for Active; 'I' for Inactive)
REMARK    1  A    between atoms: C_1  and  N_2
REMARK    2  A    between atoms: N_9  and  C_10
REMARK    3  A    between atoms: N_16  and  C_17
REMARK    4  A    between atoms: C_19  and  C_20
REMARK                            x       y       z     vdW  Elec       q    Type
REMARK                         _______ _______ _______ _____ _____    ______ ____
ROOT
ATOM      1  C   UNL     1       2.411   6.980  19.376  0.00  0.00    +0.000 C 
ATOM      2  N   UNL     1       1.758   8.114  19.986  0.00  0.00    +0.000 N 
ATOM      3  C   UNL     1       1.335   9.248  19.335  0.00  0.00    +0.000 A 
ATOM      4  C   UNL     1       0.650   9.950  20.286  0.00  0.00    +0.000 A 
ATOM      5  C   UNL     1       0.748   9.216  21.462  0.00  0.00    +0.000 A 
ATOM      6  N   UNL     1       1.446   8.090  21.311  0.00  0.00    +0.000 NA
ATOM      7  C   UNL     1       0.067   9.895  22.550  0.00  0.00    +0.000 C 
ATOM      8  O   UNL     1       0.026   9.545  23.720  0.00  0.00    +0.000 OA
ATOM      9  N   UNL     1      -0.484  11.077  21.952  0.00  0.00    +0.000 N 
ATOM     10  C   UNL     1      -0.097  11.194  20.514  0.00  0.00    +0.000 C 
ENDROOT
BRANCH   9  11
ATOM     11  C   UNL     1      -1.115  12.100  22.651  0.00  0.00    +0.000 A 
ATOM     12  C   UNL     1      -2.384  11.819  23.313  0.00  0.00    +0.000 A 
ATOM     13  C   UNL     1      -3.133  12.782  23.860  0.00  0.00    +0.000 A 
ATOM     14 CL   UNL     1      -4.671  12.423  24.547  0.00  0.00    +0.000 Cl
ATOM     15  C   UNL     1      -2.644  14.196  23.889  0.00  0.00    +0.000 A 
ATOM     16  O   UNL     1      -3.336  15.094  24.354  0.00  0.00    +0.000 OA
ATOM     17  N   UNL     1      -1.359  14.380  23.372  0.00  0.00    +0.000 N 
ATOM     18  C   UNL     1      -0.769  15.711  23.441  0.00  0.00    +0.000 C 
ATOM     19  C   UNL     1      -0.647  13.361  22.743  0.00  0.00    +0.000 A 
ENDBRANCH   9  11
BRANCH  10  20
ATOM     20  C   UNL     1      -1.238  11.205  19.512  0.00  0.00    +0.000 A 
ATOM     21  C   UNL     1      -1.165  10.337  18.405  0.00  0.00    +0.000 A 
ATOM     22  C   UNL     1      -2.173  10.316  17.438  0.00  0.00    +0.000 A 
ATOM     23  C   UNL     1      -3.276  11.152  17.571  0.00  0.00    +0.000 A 
ATOM     24 CL   UNL     1      -4.511  11.129  16.374  0.00  0.00    +0.000 Cl
ATOM     25  C   UNL     1      -3.380  12.005  18.666  0.00  0.00    +0.000 A 
ATOM     26  C   UNL     1      -2.368  12.035  19.632  0.00  0.00    +0.000 A 
ENDBRANCH  10  20
TORSDOF 2
ENDMDL
MODEL 4
REMARK VINA RESULT:      -7.3      6.571      9.962
REMARK  Name = 
REMARK  4 active torsions:
REMARK  status: ('A' for Active; 'I' for Inactive)
REMARK    1  A    between atoms: C_1  and  N_2
REMARK    2  A    between atoms: N_9  and  C_10
REMARK    3  A    between atoms: N_16  and  C_17
REMARK    4  A    between atoms: C_19  and  C_20
REMARK                            x       y       z     vdW  Elec       q    Type
REMARK                         _______ _______ _______ _____ _____    ______ ____
ROOT
ATOM      1  C   UNL     1       2.486   6.880  19.482  0.00  0.00    +0.000 C 
ATOM      2  N   UNL     1       1.801   8.021  20.042  0.00  0.00    +0.000 N 
ATOM      3  C   UNL     1       1.393   9.137  19.350  0.00  0.00    +0.000 A 
ATOM      4  C   UNL     1       0.668   9.854  20.259  0.00  0.00    +0.000 A 
ATOM      5  C   UNL     1       0.729   9.146  21.455  0.00  0.00    +0.000 A 
ATOM      6  N   UNL     1       1.442   8.024  21.355  0.00  0.00    +0.000 NA
ATOM      7  C   UNL     1       0.004   9.843  22.502  0.00  0.00    +0.000 C 
ATOM      8  O   UNL     1      -0.077   9.520  23.677  0.00  0.00    +0.000 OA
ATOM      9  N   UNL     1      -0.535  11.007  21.858  0.00  0.00    +0.000 N 
ATOM     10  C   UNL     1      -0.097  11.095  20.432  0.00  0.00    +0.000 C 
ENDROOT
BRANCH   9  11
ATOM     11  C   UNL     1      -1.199  12.039  22.509  0.00  0.00    +0.000 A 
ATOM     12  C   UNL     1      -0.568  13.353  22.568  0.00  0.00    +0.000 A 
ATOM     13  C   UNL     1      -1.058  14.349  23.314  0.00  0.00    +0.000 A 
ATOM     14 CL   UNL     1      -0.230  15.855  23.432  0.00  0.00    +0.000 Cl
ATOM     15  C   UNL     1      -2.343  14.174  24.060  0.00  0.00    +0.000 A 
ATOM     16  O   UNL     1      -2.785  15.064  24.776  0.00  0.00    +0.000 OA
ATOM     17  N   UNL     1      -2.978  12.946  23.849  0.00  0.00    +0.000 N 
ATOM     18  C   UNL     1      -4.279  12.724  24.467  0.00  0.00    +0.000 C 
ATOM     19  C   UNL     1      -2.392  11.910  23.124  0.00  0.00    +0.000 A 
ENDBRANCH   9  11
BRANCH  10  20
ATOM     20  C   UNL     1      -1.200  11.073  19.390  0.00  0.00    +0.000 A 
ATOM     21  C   UNL     1      -2.271  11.977  19.529  0.00  0.00    +0.000 A 
ATOM     22  C   UNL     1      -3.327  11.990  18.615  0.00  0.00    +0.000 A 
ATOM     23  C   UNL     1      -3.323  11.109  17.540  0.00  0.00    +0.000 A 
ATOM     24 CL   UNL     1      -4.629  11.122  16.421  0.00  0.00    +0.000 Cl
ATOM     25  C   UNL     1      -2.267  10.218  17.370  0.00  0.00    +0.000 A 
ATOM     26  C   UNL     1      -1.211  10.196  18.289  0.00  0.00    +0.000 A 
ENDBRANCH  10  20
TORSDOF 2
ENDMDL
MODEL 5
REMARK VINA RESULT:      -7.1      6.224      9.403
REMARK  Name = 
REMARK  4 active torsions:
REMARK  status: ('A' for Active; 'I' for Inactive)
REMARK    1  A    between atoms: C_1  and  N_2
REMARK    2  A    between atoms: N_9  and  C_10
REMARK    3  A    between atoms: N_16  and  C_17
REMARK    4  A    between atoms: C_19  and  C_20
REMARK                            x       y       z     vdW  Elec       q    Type
REMARK                         _______ _______ _______ _____ _____    ______ ____
ROOT
ATOM      1  C   UNL     1       2.618   6.566  18.654  0.00  0.00    +0.000 C 
ATOM      2  N   UNL     1       2.049   7.745  19.264  0.00  0.00    +0.000 N 
ATOM      3  C   UNL     1       1.603   8.862  18.599  0.00  0.00    +0.000 A 
ATOM      4  C   UNL     1       1.020   9.625  19.570  0.00  0.00    +0.000 A 
ATOM      5  C   UNL     1       1.198   8.940  20.766  0.00  0.00    +0.000 A 
ATOM      6  N   UNL     1       1.851   7.788  20.610  0.00  0.00    +0.000 NA
ATOM      7  C   UNL     1       0.631   9.686  21.875  0.00  0.00    +0.000 C 
ATOM      8  O   UNL     1       0.681   9.390  23.060  0.00  0.00    +0.000 OA
ATOM      9  N   UNL     1       0.063  10.857  21.272  0.00  0.00    +0.000 N 
ATOM     10  C   UNL     1       0.329  10.900  19.802  0.00  0.00    +0.000 C 
ENDROOT
BRANCH   9  11
ATOM     11  C   UNL     1      -0.479  11.928  21.973  0.00  0.00    +0.000 A 
ATOM     12  C   UNL     1      -1.674  11.707  22.779  0.00  0.00    +0.000 A 
ATOM     13  C   UNL     1      -2.349  12.713  23.346  0.00  0.00    +0.000 A 
ATOM     14 CL   UNL     1      -3.810  12.419  24.210  0.00  0.00    +0.000 Cl
ATOM     15  C   UNL     1      -1.845  14.117  23.243  0.00  0.00    +0.000 A 
ATOM     16  O   UNL     1      -2.473  15.052  23.725  0.00  0.00    +0.000 OA
ATOM     17  N   UNL     1      -0.619  14.249  22.584  0.00  0.00    +0.000 N 
ATOM     18  C   UNL     1      -0.010  15.572  22.514  0.00  0.00    +0.000 C 
ATOM     19  C   UNL     1       0.011  13.185  21.943  0.00  0.00    +0.000 A 
ENDBRANCH   9  11
BRANCH  10  20
ATOM     20  C   UNL     1      -0.892  10.901  18.901  0.00  0.00    +0.000 A 
ATOM     21  C   UNL     1      -1.903  11.851  19.144  0.00  0.00    +0.000 A 
ATOM     22  C   UNL     1      -3.060  11.889  18.362  0.00  0.00    +0.000 A 
ATOM     23  C   UNL     1      -3.219  10.986  17.317  0.00  0.00    +0.000 A 
ATOM     24 CL   UNL     1      -4.649  11.029  16.362  0.00  0.00    +0.000 Cl
ATOM     25  C   UNL     1      -2.226  10.049  17.045  0.00  0.00    +0.000 A 
ATOM     26  C   UNL     1      -1.068  10.003  17.831  0.00  0.00    +0.000 A 
ENDBRANCH  10  20
TORSDOF 2
ENDMDL
MODEL 6
REMARK VINA RESULT:      -6.9      9.039     11.765
REMARK  Name = 
REMARK  4 active torsions:
REMARK  status: ('A' for Active; 'I' for Inactive)
REMARK    1  A    between atoms: C_1  and  N_2
REMARK    2  A    between atoms: N_9  and  C_10
REMARK    3  A    between atoms: N_16  and  C_17
REMARK    4  A    between atoms: C_19  and  C_20
REMARK                            x       y       z     vdW  Elec       q    Type
REMARK                         _______ _______ _______ _____ _____    ______ ____
ROOT
ATOM      1  C   UNL     1      -2.668   9.633  13.570  0.00  0.00    +0.000 C 
ATOM      2  N   UNL     1      -3.072  10.067  14.887  0.00  0.00    +0.000 N 
ATOM      3  C   UNL     1      -2.405   9.810  16.061  0.00  0.00    +0.000 A 
ATOM      4  C   UNL     1      -3.075  10.544  16.999  0.00  0.00    +0.000 A 
ATOM      5  C   UNL     1      -4.133  11.155  16.336  0.00  0.00    +0.000 A 
ATOM      6  N   UNL     1      -4.169  10.859  15.037  0.00  0.00    +0.000 NA
ATOM      7  C   UNL     1      -4.928  11.946  17.258  0.00  0.00    +0.000 C 
ATOM      8  O   UNL     1      -5.959  12.551  17.004  0.00  0.00    +0.000 OA
ATOM      9  N   UNL     1      -4.265  11.805  18.523  0.00  0.00    +0.000 N 
ATOM     10  C   UNL     1      -3.101  10.873  18.430  0.00  0.00    +0.000 C 
ENDROOT
BRANCH   9  11
ATOM     11  C   UNL     1      -4.750  12.290  19.732  0.00  0.00    +0.000 A 
ATOM     12  C   UNL     1      -3.904  13.176  20.523  0.00  0.00    +0.000 A 
ATOM     13  C   UNL     1      -4.226  13.549  21.766  0.00  0.00    +0.000 A 
ATOM     14 CL   UNL     1      -3.153  14.519  22.703  0.00  0.00    +0.000 Cl
ATOM     15  C   UNL     1      -5.530  13.133  22.368  0.00  0.00    +0.000 A 
ATOM     16  O   UNL     1      -5.821  13.436  23.519  0.00  0.00    +0.000 OA
ATOM     17  N   UNL     1      -6.363  12.407  21.511  0.00  0.00    +0.000 N 
ATOM     18  C   UNL     1      -7.690  12.036  21.986  0.00  0.00    +0.000 C 
ATOM     19  C   UNL     1      -5.955  11.976  20.251  0.00  0.00    +0.000 A 
ENDBRANCH   9  11
BRANCH  10  20
ATOM     20  C   UNL     1      -1.743  11.463  18.764  0.00  0.00    +0.000 A 
ATOM     21  C   UNL     1      -0.968  10.837  19.759  0.00  0.00    +0.000 A 
ATOM     22  C   UNL     1       0.281  11.345  20.126  0.00  0.00    +0.000 A 
ATOM     23  C   UNL     1       0.780  12.478  19.494  0.00  0.00    +0.000 A 
ATOM     24 CL   UNL     1       2.314  13.106  19.954  0.00  0.00    +0.000 Cl
ATOM     25  C   UNL     1       0.041  13.104  18.494  0.00  0.00    +0.000 A 
ATOM     26  C   UNL     1      -1.215  12.603  18.130  0.00  0.00    +0.000 A 
ENDBRANCH  10  20
TORSDOF 2
ENDMDL
MODEL 7
REMARK VINA RESULT:      -6.8      6.987     10.025
REMARK  Name = 
REMARK  4 active torsions:
REMARK  status: ('A' for Active; 'I' for Inactive)
REMARK    1  A    between atoms: C_1  and  N_2
REMARK    2  A    between atoms: N_9  and  C_10
REMARK    3  A    between atoms: N_16  and  C_17
REMARK    4  A    between atoms: C_19  and  C_20
REMARK                            x       y       z     vdW  Elec       q    Type
REMARK                         _______ _______ _______ _____ _____    ______ ____
ROOT
ATOM      1  C   UNL     1       3.851  14.712  22.058  0.00  0.00    +0.000 C 
ATOM      2  N   UNL     1       2.709  14.212  21.329  0.00  0.00    +0.000 N 
ATOM      3  C   UNL     1       2.751  13.389  20.228  0.00  0.00    +0.000 A 
ATOM      4  C   UNL     1       1.444  13.069  19.993  0.00  0.00    +0.000 A 
ATOM      5  C   UNL     1       0.695  13.761  20.937  0.00  0.00    +0.000 A 
ATOM      6  N   UNL     1       1.448  14.493  21.759  0.00  0.00    +0.000 NA
ATOM      7  C   UNL     1      -0.723  13.506  20.755  0.00  0.00    +0.000 C 
ATOM      8  O   UNL     1      -1.644  14.014  21.377  0.00  0.00    +0.000 OA
ATOM      9  N   UNL     1      -0.788  12.584  19.658  0.00  0.00    +0.000 N 
ATOM     10  C   UNL     1       0.568  12.309  19.093  0.00  0.00    +0.000 C 
ENDROOT
BRANCH   9  11
ATOM     11  C   UNL     1      -1.962  12.159  19.048  0.00  0.00    +0.000 A 
ATOM     12  C   UNL     1      -1.888  11.582  17.709  0.00  0.00    +0.000 A 
ATOM     13  C   UNL     1      -2.980  11.304  16.990  0.00  0.00    +0.000 A 
ATOM     14 CL   UNL     1      -2.848  10.714  15.377  0.00  0.00    +0.000 Cl
ATOM     15  C   UNL     1      -4.342  11.498  17.576  0.00  0.00    +0.000 A 
ATOM     16  O   UNL     1      -5.352  11.282  16.916  0.00  0.00    +0.000 OA
ATOM     17  N   UNL     1      -4.349  11.913  18.911  0.00  0.00    +0.000 N 
ATOM     18  C   UNL     1      -5.633  12.042  19.589  0.00  0.00    +0.000 C 
ATOM     19  C   UNL     1      -3.189  12.263  19.597  0.00  0.00    +0.000 A 
ENDBRANCH   9  11
BRANCH  10  20
ATOM     20  C   UNL     1       1.036  10.866  19.149  0.00  0.00    +0.000 A 
ATOM     21  C   UNL     1       0.801  10.131  20.327  0.00  0.00    +0.000 A 
ATOM     22  C   UNL     1       1.227   8.806  20.447  0.00  0.00    +0.000 A 
ATOM     23  C   UNL     1       1.882   8.191  19.386  0.00  0.00    +0.000 A 
ATOM     24 CL   UNL     1       2.412   6.562  19.540  0.00  0.00    +0.000 Cl
ATOM     25  C   UNL     1       2.109   8.890  18.204  0.00  0.00    +0.000 A 
ATOM     26  C   UNL     1       1.691  10.221  18.083  0.00  0.00    +0.000 A 
ENDBRANCH  10  20
TORSDOF 2
ENDMDL
MODEL 8
REMARK VINA RESULT:      -6.8      7.048     10.167
REMARK  Name = 
REMARK  4 active torsions:
REMARK  status: ('A' for Active; 'I' for Inactive)
REMARK    1  A    between atoms: C_1  and  N_2
REMARK    2  A    between atoms: N_9  and  C_10
REMARK    3  A    between atoms: N_16  and  C_17
REMARK    4  A    between atoms: C_19  and  C_20
REMARK                            x       y       z     vdW  Elec       q    Type
REMARK                         _______ _______ _______ _____ _____    ______ ____
ROOT
ATOM      1  C   UNL     1       3.895  14.974  21.526  0.00  0.00    +0.000 C 
ATOM      2  N   UNL     1       2.734  14.408  20.879  0.00  0.00    +0.000 N 
ATOM      3  C   UNL     1       2.744  13.412  19.931  0.00  0.00    +0.000 A 
ATOM      4  C   UNL     1       1.425  13.113  19.739  0.00  0.00    +0.000 A 
ATOM      5  C   UNL     1       0.704  13.984  20.547  0.00  0.00    +0.000 A 
ATOM      6  N   UNL     1       1.485  14.810  21.243  0.00  0.00    +0.000 NA
ATOM      7  C   UNL     1      -0.723  13.763  20.396  0.00  0.00    +0.000 C 
ATOM      8  O   UNL     1      -1.623  14.406  20.916  0.00  0.00    +0.000 OA
ATOM      9  N   UNL     1      -0.826  12.674  19.468  0.00  0.00    +0.000 N 
ATOM     10  C   UNL     1       0.518  12.251  18.970  0.00  0.00    +0.000 C 
ENDROOT
BRANCH   9  11
ATOM     11  C   UNL     1      -2.015  12.203  18.925  0.00  0.00    +0.000 A 
ATOM     12  C   UNL     1      -1.995  11.626  17.585  0.00  0.00    +0.000 A 
ATOM     13  C   UNL     1      -3.115  11.305  16.929  0.00  0.00    +0.000 A 
ATOM     14 CL   UNL     1      -3.053  10.715  15.311  0.00  0.00    +0.000 Cl
ATOM     15  C   UNL     1      -4.448  11.448  17.591  0.00  0.00    +0.000 A 
ATOM     16  O   UNL     1      -5.484  11.193  16.989  0.00  0.00    +0.000 OA
ATOM     17  N   UNL     1      -4.396  11.867  18.924  0.00  0.00    +0.000 N 
ATOM     18  C   UNL     1      -5.643  11.949  19.673  0.00  0.00    +0.000 C 
ATOM     19  C   UNL     1      -3.212  12.263  19.543  0.00  0.00    +0.000 A 
ENDBRANCH   9  11
BRANCH  10  20
ATOM     20  C   UNL     1       0.923  10.819  19.270  0.00  0.00    +0.000 A 
ATOM     21  C   UNL     1       1.518  10.063  18.242  0.00  0.00    +0.000 A 
ATOM     22  C   UNL     1       1.893   8.733  18.450  0.00  0.00    +0.000 A 
ATOM     23  C   UNL     1       1.690   8.143  19.693  0.00  0.00    +0.000 A 
ATOM     24 CL   UNL     1       2.144   6.503  19.943  0.00  0.00    +0.000 Cl
ATOM     25  C   UNL     1       1.120   8.876  20.730  0.00  0.00    +0.000 A 
ATOM     26  C   UNL     1       0.736  10.206  20.523  0.00  0.00    +0.000 A 
ENDBRANCH  10  20
TORSDOF 2
ENDMDL
MODEL 9
REMARK VINA RESULT:      -6.7      7.005     10.239
REMARK  Name = 
REMARK  4 active torsions:
REMARK  status: ('A' for Active; 'I' for Inactive)
REMARK    1  A    between atoms: C_1  and  N_2
REMARK    2  A    between atoms: N_9  and  C_10
REMARK    3  A    between atoms: N_16  and  C_17
REMARK    4  A    between atoms: C_19  and  C_20
REMARK                            x       y       z     vdW  Elec       q    Type
REMARK                         _______ _______ _______ _____ _____    ______ ____
ROOT
ATOM      1  C   UNL     1       4.408  15.009  19.403  0.00  0.00    +0.000 C 
ATOM      2  N   UNL     1       3.124  14.411  19.122  0.00  0.00    +0.000 N 
ATOM      3  C   UNL     1       2.913  13.238  18.435  0.00  0.00    +0.000 A 
ATOM      4  C   UNL     1       1.572  13.009  18.559  0.00  0.00    +0.000 A 
ATOM      5  C   UNL     1       1.055  14.086  19.271  0.00  0.00    +0.000 A 
ATOM      6  N   UNL     1       1.986  14.977  19.609  0.00  0.00    +0.000 NA
ATOM      7  C   UNL     1      -0.381  13.950  19.436  0.00  0.00    +0.000 C 
ATOM      8  O   UNL     1      -1.139  14.756  19.955  0.00  0.00    +0.000 OA
ATOM      9  N   UNL     1      -0.703  12.700  18.809  0.00  0.00    +0.000 N 
ATOM     10  C   UNL     1       0.502  12.077  18.181  0.00  0.00    +0.000 C 
ENDROOT
BRANCH   9  11
ATOM     11  C   UNL     1      -1.991  12.218  18.612  0.00  0.00    +0.000 A 
ATOM     12  C   UNL     1      -2.303  11.538  17.359  0.00  0.00    +0.000 A 
ATOM     13  C   UNL     1      -3.551  11.196  17.024  0.00  0.00    +0.000 A 
ATOM     14 CL   UNL     1      -3.889  10.481  15.493  0.00  0.00    +0.000 Cl
ATOM     15  C   UNL     1      -4.681  11.424  17.976  0.00  0.00    +0.000 A 
ATOM     16  O   UNL     1      -5.834  11.150  17.667  0.00  0.00    +0.000 OA
ATOM     17  N   UNL     1      -4.302  11.944  19.217  0.00  0.00    +0.000 N 
ATOM     18  C   UNL     1      -5.328  12.116  20.238  0.00  0.00    +0.000 C 
ATOM     19  C   UNL     1      -3.001  12.357  19.496  0.00  0.00    +0.000 A 
ENDBRANCH   9  11
BRANCH  10  20
ATOM     20  C   UNL     1       0.906  10.715  18.714  0.00  0.00    +0.000 A 
ATOM     21  C   UNL     1       0.566  10.387  20.040  0.00  0.00    +0.000 A 
ATOM     22  C   UNL     1       0.929   9.157  20.595  0.00  0.00    +0.000 A 
ATOM     23  C   UNL     1       1.625   8.230  19.827  0.00  0.00    +0.000 A 
ATOM     24 CL   UNL     1       2.077   6.720  20.515  0.00  0.00    +0.000 Cl
ATOM     25  C   UNL     1       1.956   8.523  18.507  0.00  0.00    +0.000 A 
ATOM     26  C   UNL     1       1.602   9.758  17.951  0.00  0.00    +0.000 A 
ENDBRANCH  10  20
TORSDOF 2
ENDMDL
