MODEL 1
REMARK VINA RESULT:      -6.3      0.000      0.000
REMARK  Name = 
REMARK  12 active torsions:
REMARK  status: ('A' for Active; 'I' for Inactive)
REMARK    1  A    between atoms: C_1  and  N_2
REMARK    2  A    between atoms: N_2  and  C_3
REMARK    3  A    between atoms: N_2  and  C_4
REMARK    4  A    between atoms: C_7  and  O_8
REMARK    5  A    between atoms: O_8  and  C_9
REMARK    6  A    between atoms: C_9  and  C_10
REMARK    7  A    between atoms: C_10  and  C_11
REMARK    8  A    between atoms: C_11  and  C_12
REMARK    9  A    between atoms: C_12  and  C_13
REMARK   10  A    between atoms: C_13  and  C_14
REMARK   11  A    between atoms: C_14  and  O_15
REMARK   12  A    between atoms: O_15  and  C_16
REMARK                            x       y       z     vdW  Elec       q    Type
REMARK                         _______ _______ _______ _____ _____    ______ ____
ROOT
ATOM      1  C   UNL     1       1.084   4.137  20.696  0.00  0.00    +0.000 C 
ENDROOT
BRANCH   1   2
ATOM      2  C   UNL     1       2.384   4.834  21.105  0.00  0.00    +0.000 C 
BRANCH   2   3
ATOM      3  O   UNL     1       2.917   5.603  20.090  0.00  0.00    +0.000 OA
BRANCH   3   7
ATOM      4  C   UNL     1       1.261   9.313  18.999  0.00  0.00    +0.000 A 
ATOM      5  C   UNL     1       1.925   8.514  18.047  0.00  0.00    +0.000 A 
ATOM      6  C   UNL     1       2.475   7.286  18.399  0.00  0.00    +0.000 A 
ATOM      7  C   UNL     1       2.383   6.803  19.720  0.00  0.00    +0.000 A 
ATOM      8  C   UNL     1       1.729   7.586  20.675  0.00  0.00    +0.000 A 
ATOM      9  C   UNL     1       1.176   8.824  20.325  0.00  0.00    +0.000 A 
BRANCH   4  11
ATOM     10  C   UNL     1      -0.683  10.659  18.128  0.00  0.00    +0.000 C 
ATOM     11  N   UNL     1       0.686  10.583  18.621  0.00  0.00    +0.000 N 
ATOM     12  C   UNL     1       1.462  11.810  18.733  0.00  0.00    +0.000 C 
ENDBRANCH   4  11
ENDBRANCH   3   7
ENDBRANCH   2   3
ENDBRANCH   1   2
BRANCH   1  13
ATOM     13  C   UNL     1       1.367   2.847  19.893  0.00  0.00    +0.000 C 
BRANCH  13  14
ATOM     14  C   UNL     1       0.938   2.964  18.422  0.00  0.00    +0.000 C 
BRANCH  14  15
ATOM     15  C   UNL     1       2.082   3.383  17.495  0.00  0.00    +0.000 C 
BRANCH  15  16
ATOM     16  C   UNL     1       3.373   2.740  17.998  0.00  0.00    +0.000 C 
BRANCH  16  17
ATOM     17  O   UNL     1       4.452   3.098  17.215  0.00  0.00    +0.000 OA
BRANCH  17  18
ATOM     18  C   UNL     1       5.105   4.287  17.326  0.00  0.00    +0.000 A 
ATOM     19  C   UNL     1       5.957   4.581  18.415  0.00  0.00    +0.000 A 
ATOM     20  C   UNL     1       6.615   5.810  18.485  0.00  0.00    +0.000 A 
ATOM     21  C   UNL     1       6.434   6.759  17.478  0.00  0.00    +0.000 A 
ATOM     22  C   UNL     1       5.591   6.480  16.399  0.00  0.00    +0.000 A 
ATOM     23  C   UNL     1       4.930   5.249  16.323  0.00  0.00    +0.000 A 
ENDBRANCH  17  18
ENDBRANCH  16  17
ENDBRANCH  15  16
ENDBRANCH  14  15
ENDBRANCH  13  14
ENDBRANCH   1  13
TORSDOF 10
ENDMDL
MODEL 2
REMARK VINA RESULT:      -6.1      3.665      7.490
REMARK  Name = 
REMARK  12 active torsions:
REMARK  status: ('A' for Active; 'I' for Inactive)
REMARK    1  A    between atoms: C_1  and  N_2
REMARK    2  A    between atoms: N_2  and  C_3
REMARK    3  A    between atoms: N_2  and  C_4
REMARK    4  A    between atoms: C_7  and  O_8
REMARK    5  A    between atoms: O_8  and  C_9
REMARK    6  A    between atoms: C_9  and  C_10
REMARK    7  A    between atoms: C_10  and  C_11
REMARK    8  A    between atoms: C_11  and  C_12
REMARK    9  A    between atoms: C_12  and  C_13
REMARK   10  A    between atoms: C_13  and  C_14
REMARK   11  A    between atoms: C_14  and  O_15
REMARK   12  A    between atoms: O_15  and  C_16
REMARK                            x       y       z     vdW  Elec       q    Type
REMARK                         _______ _______ _______ _____ _____    ______ ____
ROOT
ATOM      1  C   UNL     1       7.612   5.950  18.420  0.00  0.00    +0.000 C 
ENDROOT
BRANCH   1   2
ATOM      2  C   UNL     1       7.706   4.943  17.270  0.00  0.00    +0.000 C 
BRANCH   2   3
ATOM      3  O   UNL     1       7.513   5.528  16.035  0.00  0.00    +0.000 OA
BRANCH   3   7
ATOM      4  C   UNL     1       5.812   3.481  12.776  0.00  0.00    +0.000 A 
ATOM      5  C   UNL     1       5.229   3.406  14.058  0.00  0.00    +0.000 A 
ATOM      6  C   UNL     1       5.785   4.080  15.140  0.00  0.00    +0.000 A 
ATOM      7  C   UNL     1       6.949   4.861  14.987  0.00  0.00    +0.000 A 
ATOM      8  C   UNL     1       7.538   4.944  13.723  0.00  0.00    +0.000 A 
ATOM      9  C   UNL     1       6.983   4.264  12.631  0.00  0.00    +0.000 A 
BRANCH   4  11
ATOM     10  C   UNL     1       5.839   1.575  11.129  0.00  0.00    +0.000 C 
ATOM     11  N   UNL     1       5.222   2.785  11.658  0.00  0.00    +0.000 N 
ATOM     12  C   UNL     1       3.996   3.275  11.044  0.00  0.00    +0.000 C 
ENDBRANCH   4  11
ENDBRANCH   3   7
ENDBRANCH   2   3
ENDBRANCH   1   2
BRANCH   1  13
ATOM     13  C   UNL     1       6.385   5.664  19.316  0.00  0.00    +0.000 C 
BRANCH  13  14
ATOM     14  C   UNL     1       5.145   5.260  18.503  0.00  0.00    +0.000 C 
BRANCH  14  15
ATOM     15  C   UNL     1       4.519   6.431  17.742  0.00  0.00    +0.000 C 
BRANCH  15  16
ATOM     16  C   UNL     1       3.175   6.766  18.387  0.00  0.00    +0.000 C 
BRANCH  16  17
ATOM     17  O   UNL     1       2.207   5.845  18.041  0.00  0.00    +0.000 OA
BRANCH  17  18
ATOM     18  C   UNL     1       1.843   4.798  18.830  0.00  0.00    +0.000 A 
ATOM     19  C   UNL     1       1.856   4.876  20.242  0.00  0.00    +0.000 A 
ATOM     20  C   UNL     1       1.467   3.781  21.013  0.00  0.00    +0.000 A 
ATOM     21  C   UNL     1       1.062   2.597  20.395  0.00  0.00    +0.000 A 
ATOM     22  C   UNL     1       1.049   2.508  19.000  0.00  0.00    +0.000 A 
ATOM     23  C   UNL     1       1.437   3.603  18.221  0.00  0.00    +0.000 A 
ENDBRANCH  17  18
ENDBRANCH  16  17
ENDBRANCH  15  16
ENDBRANCH  14  15
ENDBRANCH  13  14
ENDBRANCH   1  13
TORSDOF 10
ENDMDL
MODEL 3
REMARK VINA RESULT:      -6.1      5.127      7.411
REMARK  Name = 
REMARK  12 active torsions:
REMARK  status: ('A' for Active; 'I' for Inactive)
REMARK    1  A    between atoms: C_1  and  N_2
REMARK    2  A    between atoms: N_2  and  C_3
REMARK    3  A    between atoms: N_2  and  C_4
REMARK    4  A    between atoms: C_7  and  O_8
REMARK    5  A    between atoms: O_8  and  C_9
REMARK    6  A    between atoms: C_9  and  C_10
REMARK    7  A    between atoms: C_10  and  C_11
REMARK    8  A    between atoms: C_11  and  C_12
REMARK    9  A    between atoms: C_12  and  C_13
REMARK   10  A    between atoms: C_13  and  C_14
REMARK   11  A    between atoms: C_14  and  O_15
REMARK   12  A    between atoms: O_15  and  C_16
REMARK                            x       y       z     vdW  Elec       q    Type
REMARK                         _______ _______ _______ _____ _____    ______ ____
ROOT
ATOM      1  C   UNL     1       7.629   7.230  17.525  0.00  0.00    +0.000 C 
ENDROOT
BRANCH   1   2
ATOM      2  C   UNL     1       7.832   8.728  17.764  0.00  0.00    +0.000 C 
BRANCH   2   3
ATOM      3  O   UNL     1       8.780   8.987  18.735  0.00  0.00    +0.000 OA
BRANCH   3   7
ATOM      4  C   UNL     1      10.291  12.837  19.501  0.00  0.00    +0.000 A 
ATOM      5  C   UNL     1      10.091  12.393  18.178  0.00  0.00    +0.000 A 
ATOM      6  C   UNL     1       9.591  11.121  17.917  0.00  0.00    +0.000 A 
ATOM      7  C   UNL     1       9.268  10.239  18.967  0.00  0.00    +0.000 A 
ATOM      8  C   UNL     1       9.464  10.666  20.283  0.00  0.00    +0.000 A 
ATOM      9  C   UNL     1       9.969  11.945  20.552  0.00  0.00    +0.000 A 
BRANCH   4  11
ATOM     10  C   UNL     1       9.962  15.169  20.396  0.00  0.00    +0.000 C 
ATOM     11  N   UNL     1      10.802  14.163  19.762  0.00  0.00    +0.000 N 
ATOM     12  C   UNL     1      12.170  14.512  19.402  0.00  0.00    +0.000 C 
ENDBRANCH   4  11
ENDBRANCH   3   7
ENDBRANCH   2   3
ENDBRANCH   1   2
BRANCH   1  13
ATOM     13  C   UNL     1       6.218   6.937  16.966  0.00  0.00    +0.000 C 
BRANCH  13  14
ATOM     14  C   UNL     1       5.362   6.109  17.938  0.00  0.00    +0.000 C 
BRANCH  14  15
ATOM     15  C   UNL     1       5.488   4.601  17.712  0.00  0.00    +0.000 C 
BRANCH  15  16
ATOM     16  C   UNL     1       4.216   4.105  17.025  0.00  0.00    +0.000 C 
BRANCH  16  17
ATOM     17  O   UNL     1       3.685   3.010  17.677  0.00  0.00    +0.000 OA
BRANCH  17  18
ATOM     18  C   UNL     1       2.946   3.094  18.816  0.00  0.00    +0.000 A 
ATOM     19  C   UNL     1       3.410   2.595  20.055  0.00  0.00    +0.000 A 
ATOM     20  C   UNL     1       2.623   2.709  21.201  0.00  0.00    +0.000 A 
ATOM     21  C   UNL     1       1.368   3.316  21.132  0.00  0.00    +0.000 A 
ATOM     22  C   UNL     1       0.898   3.809  19.912  0.00  0.00    +0.000 A 
ATOM     23  C   UNL     1       1.683   3.699  18.758  0.00  0.00    +0.000 A 
ENDBRANCH  17  18
ENDBRANCH  16  17
ENDBRANCH  15  16
ENDBRANCH  14  15
ENDBRANCH  13  14
ENDBRANCH   1  13
TORSDOF 10
ENDMDL
MODEL 4
REMARK VINA RESULT:      -6.0      5.152      7.673
REMARK  Name = 
REMARK  12 active torsions:
REMARK  status: ('A' for Active; 'I' for Inactive)
REMARK    1  A    between atoms: C_1  and  N_2
REMARK    2  A    between atoms: N_2  and  C_3
REMARK    3  A    between atoms: N_2  and  C_4
REMARK    4  A    between atoms: C_7  and  O_8
REMARK    5  A    between atoms: O_8  and  C_9
REMARK    6  A    between atoms: C_9  and  C_10
REMARK    7  A    between atoms: C_10  and  C_11
REMARK    8  A    between atoms: C_11  and  C_12
REMARK    9  A    between atoms: C_12  and  C_13
REMARK   10  A    between atoms: C_13  and  C_14
REMARK   11  A    between atoms: C_14  and  O_15
REMARK   12  A    between atoms: O_15  and  C_16
REMARK                            x       y       z     vdW  Elec       q    Type
REMARK                         _______ _______ _______ _____ _____    ______ ____
ROOT
ATOM      1  C   UNL     1       7.712   7.107  18.077  0.00  0.00    +0.000 C 
ENDROOT
BRANCH   1   2
ATOM      2  C   UNL     1       8.082   8.581  17.891  0.00  0.00    +0.000 C 
BRANCH   2   3
ATOM      3  O   UNL     1       8.716   9.113  18.996  0.00  0.00    +0.000 OA
BRANCH   3   7
ATOM      4  C   UNL     1      10.290  13.014  18.989  0.00  0.00    +0.000 A 
ATOM      5  C   UNL     1      10.456  12.173  20.108  0.00  0.00    +0.000 A 
ATOM      6  C   UNL     1       9.939  10.882  20.118  0.00  0.00    +0.000 A 
ATOM      7  C   UNL     1       9.234  10.375  19.007  0.00  0.00    +0.000 A 
ATOM      8  C   UNL     1       9.060  11.198  17.892  0.00  0.00    +0.000 A 
ATOM      9  C   UNL     1       9.577  12.500  17.879  0.00  0.00    +0.000 A 
BRANCH   4  11
ATOM     10  C   UNL     1       9.979  15.503  18.749  0.00  0.00    +0.000 C 
ATOM     11  N   UNL     1      10.838  14.350  18.985  0.00  0.00    +0.000 N 
ATOM     12  C   UNL     1      12.258  14.569  19.227  0.00  0.00    +0.000 C 
ENDBRANCH   4  11
ENDBRANCH   3   7
ENDBRANCH   2   3
ENDBRANCH   1   2
BRANCH   1  13
ATOM     13  C   UNL     1       7.332   6.450  16.731  0.00  0.00    +0.000 C 
BRANCH  13  14
ATOM     14  C   UNL     1       5.966   5.746  16.786  0.00  0.00    +0.000 C 
BRANCH  14  15
ATOM     15  C   UNL     1       5.177   6.068  18.057  0.00  0.00    +0.000 C 
BRANCH  15  16
ATOM     16  C   UNL     1       3.784   6.550  17.654  0.00  0.00    +0.000 C 
BRANCH  16  17
ATOM     17  O   UNL     1       2.892   6.444  18.701  0.00  0.00    +0.000 OA
BRANCH  17  18
ATOM     18  C   UNL     1       2.209   5.305  19.000  0.00  0.00    +0.000 A 
ATOM     19  C   UNL     1       1.809   4.382  18.006  0.00  0.00    +0.000 A 
ATOM     20  C   UNL     1       1.118   3.222  18.357  0.00  0.00    +0.000 A 
ATOM     21  C   UNL     1       0.815   2.966  19.695  0.00  0.00    +0.000 A 
ATOM     22  C   UNL     1       1.203   3.872  20.685  0.00  0.00    +0.000 A 
ATOM     23  C   UNL     1       1.897   5.037  20.339  0.00  0.00    +0.000 A 
ENDBRANCH  17  18
ENDBRANCH  16  17
ENDBRANCH  15  16
ENDBRANCH  14  15
ENDBRANCH  13  14
ENDBRANCH   1  13
TORSDOF 10
ENDMDL
MODEL 5
REMARK VINA RESULT:      -6.0      1.412      4.003
REMARK  Name = 
REMARK  12 active torsions:
REMARK  status: ('A' for Active; 'I' for Inactive)
REMARK    1  A    between atoms: C_1  and  N_2
REMARK    2  A    between atoms: N_2  and  C_3
REMARK    3  A    between atoms: N_2  and  C_4
REMARK    4  A    between atoms: C_7  and  O_8
REMARK    5  A    between atoms: O_8  and  C_9
REMARK    6  A    between atoms: C_9  and  C_10
REMARK    7  A    between atoms: C_10  and  C_11
REMARK    8  A    between atoms: C_11  and  C_12
REMARK    9  A    between atoms: C_12  and  C_13
REMARK   10  A    between atoms: C_13  and  C_14
REMARK   11  A    between atoms: C_14  and  O_15
REMARK   12  A    between atoms: O_15  and  C_16
REMARK                            x       y       z     vdW  Elec       q    Type
REMARK                         _______ _______ _______ _____ _____    ______ ____
ROOT
ATOM      1  C   UNL     1       4.688   6.089  16.408  0.00  0.00    +0.000 C 
ENDROOT
BRANCH   1   2
ATOM      2  C   UNL     1       4.213   7.230  17.310  0.00  0.00    +0.000 C 
BRANCH   2   3
ATOM      3  O   UNL     1       3.097   6.894  18.050  0.00  0.00    +0.000 OA
BRANCH   3   7
ATOM      4  C   UNL     1       0.607   9.762  19.859  0.00  0.00    +0.000 A 
ATOM      5  C   UNL     1       0.925   9.847  18.488  0.00  0.00    +0.000 A 
ATOM      6  C   UNL     1       1.747   8.902  17.882  0.00  0.00    +0.000 A 
ATOM      7  C   UNL     1       2.286   7.830  18.622  0.00  0.00    +0.000 A 
ATOM      8  C   UNL     1       1.980   7.735  19.982  0.00  0.00    +0.000 A 
ATOM      9  C   UNL     1       1.155   8.685  20.596  0.00  0.00    +0.000 A 
BRANCH   4  11
ATOM     10  C   UNL     1      -0.473  10.736  21.916  0.00  0.00    +0.000 C 
ATOM     11  N   UNL     1      -0.255  10.743  20.476  0.00  0.00    +0.000 N 
ATOM     12  C   UNL     1      -0.913  11.762  19.669  0.00  0.00    +0.000 C 
ENDBRANCH   4  11
ENDBRANCH   3   7
ENDBRANCH   2   3
ENDBRANCH   1   2
BRANCH   1  13
ATOM     13  C   UNL     1       6.231   6.010  16.369  0.00  0.00    +0.000 C 
BRANCH  13  14
ATOM     14  C   UNL     1       6.880   6.540  17.658  0.00  0.00    +0.000 C 
BRANCH  14  15
ATOM     15  C   UNL     1       7.269   5.428  18.635  0.00  0.00    +0.000 C 
BRANCH  15  16
ATOM     16  C   UNL     1       6.028   5.021  19.427  0.00  0.00    +0.000 C 
BRANCH  16  17
ATOM     17  O   UNL     1       5.515   3.821  18.979  0.00  0.00    +0.000 OA
BRANCH  17  18
ATOM     18  C   UNL     1       4.184   3.552  18.894  0.00  0.00    +0.000 A 
ATOM     19  C   UNL     1       3.231   4.186  19.724  0.00  0.00    +0.000 A 
ATOM     20  C   UNL     1       1.874   3.887  19.597  0.00  0.00    +0.000 A 
ATOM     21  C   UNL     1       1.448   2.956  18.649  0.00  0.00    +0.000 A 
ATOM     22  C   UNL     1       2.381   2.321  17.826  0.00  0.00    +0.000 A 
ATOM     23  C   UNL     1       3.743   2.617  17.948  0.00  0.00    +0.000 A 
ENDBRANCH  17  18
ENDBRANCH  16  17
ENDBRANCH  15  16
ENDBRANCH  14  15
ENDBRANCH  13  14
ENDBRANCH   1  13
TORSDOF 10
ENDMDL
MODEL 6
REMARK VINA RESULT:      -5.9      5.206      7.566
REMARK  Name = 
REMARK  12 active torsions:
REMARK  status: ('A' for Active; 'I' for Inactive)
REMARK    1  A    between atoms: C_1  and  N_2
REMARK    2  A    between atoms: N_2  and  C_3
REMARK    3  A    between atoms: N_2  and  C_4
REMARK    4  A    between atoms: C_7  and  O_8
REMARK    5  A    between atoms: O_8  and  C_9
REMARK    6  A    between atoms: C_9  and  C_10
REMARK    7  A    between atoms: C_10  and  C_11
REMARK    8  A    between atoms: C_11  and  C_12
REMARK    9  A    between atoms: C_12  and  C_13
REMARK   10  A    between atoms: C_13  and  C_14
REMARK   11  A    between atoms: C_14  and  O_15
REMARK   12  A    between atoms: O_15  and  C_16
REMARK                            x       y       z     vdW  Elec       q    Type
REMARK                         _______ _______ _______ _____ _____    ______ ____
ROOT
ATOM      1  C   UNL     1       7.526   7.252  17.708  0.00  0.00    +0.000 C 
ENDROOT
BRANCH   1   2
ATOM      2  C   UNL     1       8.076   8.680  17.684  0.00  0.00    +0.000 C 
BRANCH   2   3
ATOM      3  O   UNL     1       8.597   9.069  18.902  0.00  0.00    +0.000 OA
BRANCH   3   7
ATOM      4  C   UNL     1      10.566  12.738  19.500  0.00  0.00    +0.000 A 
ATOM      5  C   UNL     1      10.317  12.259  18.198  0.00  0.00    +0.000 A 
ATOM      6  C   UNL     1       9.666  11.047  17.992  0.00  0.00    +0.000 A 
ATOM      7  C   UNL     1       9.234  10.262  19.080  0.00  0.00    +0.000 A 
ATOM      8  C   UNL     1       9.477  10.724  20.376  0.00  0.00    +0.000 A 
ATOM      9  C   UNL     1      10.134  11.943  20.589  0.00  0.00    +0.000 A 
BRANCH   4  11
ATOM     10  C   UNL     1      12.326  14.412  18.829  0.00  0.00    +0.000 C 
ATOM     11  N   UNL     1      11.235  14.002  19.703  0.00  0.00    +0.000 N 
ATOM     12  C   UNL     1      10.824  14.892  20.780  0.00  0.00    +0.000 C 
ENDBRANCH   4  11
ENDBRANCH   3   7
ENDBRANCH   2   3
ENDBRANCH   1   2
BRANCH   1  13
ATOM     13  C   UNL     1       6.171   7.160  16.971  0.00  0.00    +0.000 C 
BRANCH  13  14
ATOM     14  C   UNL     1       5.508   5.782  17.130  0.00  0.00    +0.000 C 
BRANCH  14  15
ATOM     15  C   UNL     1       6.293   4.841  18.048  0.00  0.00    +0.000 C 
BRANCH  15  16
ATOM     16  C   UNL     1       5.557   4.740  19.382  0.00  0.00    +0.000 C 
BRANCH  16  17
ATOM     17  O   UNL     1       5.024   3.481  19.570  0.00  0.00    +0.000 OA
BRANCH  17  18
ATOM     18  C   UNL     1       3.705   3.187  19.412  0.00  0.00    +0.000 A 
ATOM     19  C   UNL     1       2.749   3.440  20.423  0.00  0.00    +0.000 A 
ATOM     20  C   UNL     1       1.404   3.130  20.216  0.00  0.00    +0.000 A 
ATOM     21  C   UNL     1       0.994   2.566  19.007  0.00  0.00    +0.000 A 
ATOM     22  C   UNL     1       1.930   2.309  18.003  0.00  0.00    +0.000 A 
ATOM     23  C   UNL     1       3.280   2.617  18.204  0.00  0.00    +0.000 A 
ENDBRANCH  17  18
ENDBRANCH  16  17
ENDBRANCH  15  16
ENDBRANCH  14  15
ENDBRANCH  13  14
ENDBRANCH   1  13
TORSDOF 10
ENDMDL
MODEL 7
REMARK VINA RESULT:      -5.9      1.383      4.222
REMARK  Name = 
REMARK  12 active torsions:
REMARK  status: ('A' for Active; 'I' for Inactive)
REMARK    1  A    between atoms: C_1  and  N_2
REMARK    2  A    between atoms: N_2  and  C_3
REMARK    3  A    between atoms: N_2  and  C_4
REMARK    4  A    between atoms: C_7  and  O_8
REMARK    5  A    between atoms: O_8  and  C_9
REMARK    6  A    between atoms: C_9  and  C_10
REMARK    7  A    between atoms: C_10  and  C_11
REMARK    8  A    between atoms: C_11  and  C_12
REMARK    9  A    between atoms: C_12  and  C_13
REMARK   10  A    between atoms: C_13  and  C_14
REMARK   11  A    between atoms: C_14  and  O_15
REMARK   12  A    between atoms: O_15  and  C_16
REMARK                            x       y       z     vdW  Elec       q    Type
REMARK                         _______ _______ _______ _____ _____    ______ ____
ROOT
ATOM      1  C   UNL     1       6.087   7.008  17.150  0.00  0.00    +0.000 C 
ENDROOT
BRANCH   1   2
ATOM      2  C   UNL     1       4.681   7.167  16.568  0.00  0.00    +0.000 C 
BRANCH   2   3
ATOM      3  O   UNL     1       3.709   6.588  17.360  0.00  0.00    +0.000 OA
BRANCH   3   7
ATOM      4  C   UNL     1       1.239   8.864  19.893  0.00  0.00    +0.000 A 
ATOM      5  C   UNL     1       1.795   7.647  20.334  0.00  0.00    +0.000 A 
ATOM      6  C   UNL     1       2.613   6.888  19.503  0.00  0.00    +0.000 A 
ATOM      7  C   UNL     1       2.912   7.316  18.193  0.00  0.00    +0.000 A 
ATOM      8  C   UNL     1       2.366   8.521  17.742  0.00  0.00    +0.000 A 
ATOM      9  C   UNL     1       1.539   9.286  18.575  0.00  0.00    +0.000 A 
BRANCH   4  11
ATOM     10  C   UNL     1      -0.623  10.531  20.217  0.00  0.00    +0.000 C 
ATOM     11  N   UNL     1       0.398   9.648  20.767  0.00  0.00    +0.000 N 
ATOM     12  C   UNL     1       0.549   9.562  22.213  0.00  0.00    +0.000 C 
ENDBRANCH   4  11
ENDBRANCH   3   7
ENDBRANCH   2   3
ENDBRANCH   1   2
BRANCH   1  13
ATOM     13  C   UNL     1       6.671   5.612  16.834  0.00  0.00    +0.000 C 
BRANCH  13  14
ATOM     14  C   UNL     1       6.831   4.744  18.093  0.00  0.00    +0.000 C 
BRANCH  14  15
ATOM     15  C   UNL     1       5.501   4.202  18.620  0.00  0.00    +0.000 C 
BRANCH  15  16
ATOM     16  C   UNL     1       4.786   3.478  17.480  0.00  0.00    +0.000 C 
BRANCH  16  17
ATOM     17  O   UNL     1       3.866   2.568  17.959  0.00  0.00    +0.000 OA
BRANCH  17  18
ATOM     18  C   UNL     1       3.029   2.817  19.003  0.00  0.00    +0.000 A 
ATOM     19  C   UNL     1       3.381   2.518  20.340  0.00  0.00    +0.000 A 
ATOM     20  C   UNL     1       2.497   2.798  21.382  0.00  0.00    +0.000 A 
ATOM     21  C   UNL     1       1.256   3.374  21.111  0.00  0.00    +0.000 A 
ATOM     22  C   UNL     1       0.896   3.670  19.794  0.00  0.00    +0.000 A 
ATOM     23  C   UNL     1       1.779   3.393  18.744  0.00  0.00    +0.000 A 
ENDBRANCH  17  18
ENDBRANCH  16  17
ENDBRANCH  15  16
ENDBRANCH  14  15
ENDBRANCH  13  14
ENDBRANCH   1  13
TORSDOF 10
ENDMDL
MODEL 8
REMARK VINA RESULT:      -5.9      1.109      1.782
REMARK  Name = 
REMARK  12 active torsions:
REMARK  status: ('A' for Active; 'I' for Inactive)
REMARK    1  A    between atoms: C_1  and  N_2
REMARK    2  A    between atoms: N_2  and  C_3
REMARK    3  A    between atoms: N_2  and  C_4
REMARK    4  A    between atoms: C_7  and  O_8
REMARK    5  A    between atoms: O_8  and  C_9
REMARK    6  A    between atoms: C_9  and  C_10
REMARK    7  A    between atoms: C_10  and  C_11
REMARK    8  A    between atoms: C_11  and  C_12
REMARK    9  A    between atoms: C_12  and  C_13
REMARK   10  A    between atoms: C_13  and  C_14
REMARK   11  A    between atoms: C_14  and  O_15
REMARK   12  A    between atoms: O_15  and  C_16
REMARK                            x       y       z     vdW  Elec       q    Type
REMARK                         _______ _______ _______ _____ _____    ______ ____
ROOT
ATOM      1  C   UNL     1       0.955   4.497  20.346  0.00  0.00    +0.000 C 
ENDROOT
BRANCH   1   2
ATOM      2  C   UNL     1       2.078   5.511  20.577  0.00  0.00    +0.000 C 
BRANCH   2   3
ATOM      3  O   UNL     1       2.325   6.292  19.466  0.00  0.00    +0.000 OA
BRANCH   3   7
ATOM      4  C   UNL     1       1.143  10.319  19.175  0.00  0.00    +0.000 A 
ATOM      5  C   UNL     1       0.989   9.610  20.383  0.00  0.00    +0.000 A 
ATOM      6  C   UNL     1       1.377   8.278  20.487  0.00  0.00    +0.000 A 
ATOM      7  C   UNL     1       1.939   7.598  19.388  0.00  0.00    +0.000 A 
ATOM      8  C   UNL     1       2.096   8.289  18.183  0.00  0.00    +0.000 A 
ATOM      9  C   UNL     1       1.704   9.630  18.073  0.00  0.00    +0.000 A 
BRANCH   4  11
ATOM     10  C   UNL     1      -0.556  12.065  18.530  0.00  0.00    +0.000 C 
ATOM     11  N   UNL     1       0.745  11.704  19.079  0.00  0.00    +0.000 N 
ATOM     12  C   UNL     1       1.633  12.764  19.538  0.00  0.00    +0.000 C 
ENDBRANCH   4  11
ENDBRANCH   3   7
ENDBRANCH   2   3
ENDBRANCH   1   2
BRANCH   1  13
ATOM     13  C   UNL     1       1.318   3.114  20.934  0.00  0.00    +0.000 C 
BRANCH  13  14
ATOM     14  C   UNL     1       2.400   2.393  20.114  0.00  0.00    +0.000 C 
BRANCH  14  15
ATOM     15  C   UNL     1       2.034   2.248  18.635  0.00  0.00    +0.000 C 
BRANCH  15  16
ATOM     16  C   UNL     1       3.323   2.246  17.814  0.00  0.00    +0.000 C 
BRANCH  16  17
ATOM     17  O   UNL     1       3.534   3.466  17.204  0.00  0.00    +0.000 OA
BRANCH  17  18
ATOM     18  C   UNL     1       4.751   4.069  17.120  0.00  0.00    +0.000 A 
ATOM     19  C   UNL     1       5.571   3.957  15.974  0.00  0.00    +0.000 A 
ATOM     20  C   UNL     1       6.809   4.599  15.927  0.00  0.00    +0.000 A 
ATOM     21  C   UNL     1       7.247   5.356  17.014  0.00  0.00    +0.000 A 
ATOM     22  C   UNL     1       6.446   5.470  18.153  0.00  0.00    +0.000 A 
ATOM     23  C   UNL     1       5.204   4.829  18.207  0.00  0.00    +0.000 A 
ENDBRANCH  17  18
ENDBRANCH  16  17
ENDBRANCH  15  16
ENDBRANCH  14  15
ENDBRANCH  13  14
ENDBRANCH   1  13
TORSDOF 10
ENDMDL
MODEL 9
REMARK VINA RESULT:      -5.9      4.687      7.097
REMARK  Name = 
REMARK  12 active torsions:
REMARK  status: ('A' for Active; 'I' for Inactive)
REMARK    1  A    between atoms: C_1  and  N_2
REMARK    2  A    between atoms: N_2  and  C_3
REMARK    3  A    between atoms: N_2  and  C_4
REMARK    4  A    between atoms: C_7  and  O_8
REMARK    5  A    between atoms: O_8  and  C_9
REMARK    6  A    between atoms: C_9  and  C_10
REMARK    7  A    between atoms: C_10  and  C_11
REMARK    8  A    between atoms: C_11  and  C_12
REMARK    9  A    between atoms: C_12  and  C_13
REMARK   10  A    between atoms: C_13  and  C_14
REMARK   11  A    between atoms: C_14  and  O_15
REMARK   12  A    between atoms: O_15  and  C_16
REMARK                            x       y       z     vdW  Elec       q    Type
REMARK                         _______ _______ _______ _____ _____    ______ ____
ROOT
ATOM      1  C   UNL     1       7.236   6.687  17.908  0.00  0.00    +0.000 C 
ENDROOT
BRANCH   1   2
ATOM      2  C   UNL     1       7.809   8.067  17.572  0.00  0.00    +0.000 C 
BRANCH   2   3
ATOM      3  O   UNL     1       8.600   8.574  18.583  0.00  0.00    +0.000 OA
BRANCH   3   7
ATOM      4  C   UNL     1       9.495  12.666  18.975  0.00  0.00    +0.000 A 
ATOM      5  C   UNL     1       8.797  12.187  17.849  0.00  0.00    +0.000 A 
ATOM      6  C   UNL     1       8.497  10.835  17.712  0.00  0.00    +0.000 A 
ATOM      7  C   UNL     1       8.881   9.904  18.697  0.00  0.00    +0.000 A 
ATOM      8  C   UNL     1       9.576  10.365  19.819  0.00  0.00    +0.000 A 
ATOM      9  C   UNL     1       9.882  11.725  19.960  0.00  0.00    +0.000 A 
BRANCH   4  11
ATOM     10  C   UNL     1       9.210  14.852  20.195  0.00  0.00    +0.000 C 
ATOM     11  N   UNL     1       9.795  14.072  19.112  0.00  0.00    +0.000 N 
ATOM     12  C   UNL     1      10.693  14.732  18.175  0.00  0.00    +0.000 C 
ENDBRANCH   4  11
ENDBRANCH   3   7
ENDBRANCH   2   3
ENDBRANCH   1   2
BRANCH   1  13
ATOM     13  C   UNL     1       6.703   5.978  16.643  0.00  0.00    +0.000 C 
BRANCH  13  14
ATOM     14  C   UNL     1       5.172   5.836  16.649  0.00  0.00    +0.000 C 
BRANCH  14  15
ATOM     15  C   UNL     1       4.457   7.085  17.170  0.00  0.00    +0.000 C 
BRANCH  15  16
ATOM     16  C   UNL     1       3.222   6.646  17.954  0.00  0.00    +0.000 C 
BRANCH  16  17
ATOM     17  O   UNL     1       2.854   5.355  17.634  0.00  0.00    +0.000 OA
BRANCH  17  18
ATOM     18  C   UNL     1       2.267   4.497  18.512  0.00  0.00    +0.000 A 
ATOM     19  C   UNL     1       1.954   3.162  18.167  0.00  0.00    +0.000 A 
ATOM     20  C   UNL     1       1.359   2.312  19.101  0.00  0.00    +0.000 A 
ATOM     21  C   UNL     1       1.067   2.777  20.383  0.00  0.00    +0.000 A 
ATOM     22  C   UNL     1       1.368   4.096  20.733  0.00  0.00    +0.000 A 
ATOM     23  C   UNL     1       1.965   4.953  19.802  0.00  0.00    +0.000 A 
ENDBRANCH  17  18
ENDBRANCH  16  17
ENDBRANCH  15  16
ENDBRANCH  14  15
ENDBRANCH  13  14
ENDBRANCH   1  13
TORSDOF 10
ENDMDL
