MODEL 1
REMARK VINA RESULT:      -8.4      0.000      0.000
REMARK  Name = 
REMARK  9 active torsions:
REMARK  status: ('A' for Active; 'I' for Inactive)
REMARK    1  A    between atoms: C_1  and  C_2
REMARK    2  A    between atoms: C_2  and  C_3
REMARK    3  A    between atoms: C_2  and  O_4
REMARK    4  A    between atoms: C_2  and  C_5
REMARK    5  A    between atoms: C_5  and  N_6
REMARK    6  A    between atoms: C_8  and  C_9
REMARK    7  A    between atoms: C_11  and  C_12
REMARK    8  A    between atoms: C_12  and  C_13
REMARK    9  A    between atoms: C_16  and  C_17
REMARK                            x       y       z     vdW  Elec       q    Type
REMARK                         _______ _______ _______ _____ _____    ______ ____
ROOT
ATOM      1  C   UNL     1       4.953   5.621  17.435  0.00  0.00    +0.000 C 
ATOM      2  C   UNL     1       4.660   4.752  16.157  0.00  0.00    +0.000 C 
ATOM      3  C   UNL     1       4.242   3.609  17.098  0.00  0.00    +0.000 C 
ATOM      4  C   UNL     1       5.137   4.249  18.181  0.00  0.00    +0.000 C 
ENDROOT
BRANCH   1   5
ATOM      5  C   UNL     1       3.766   6.574  17.990  0.00  0.00    +0.000 A 
ATOM      6  C   UNL     1       3.306   7.690  17.265  0.00  0.00    +0.000 A 
ATOM      7  C   UNL     1       2.348   8.576  17.781  0.00  0.00    +0.000 A 
ATOM      8  C   UNL     1       1.790   8.387  19.052  0.00  0.00    +0.000 A 
ATOM      9  C   UNL     1       2.205   7.252  19.763  0.00  0.00    +0.000 A 
ATOM     10  C   UNL     1       3.168   6.376  19.247  0.00  0.00    +0.000 A 
BRANCH   8  11
ATOM     11  C   UNL     1       0.829   9.339  19.628  0.00  0.00    +0.000 A 
ATOM     12  C   UNL     1       0.551   9.433  20.982  0.00  0.00    +0.000 A 
ATOM     13  N   UNL     1      -0.323  10.307  21.534  0.00  0.00    +0.000 NA
ATOM     14  C   UNL     1      -0.933  11.144  20.695  0.00  0.00    +0.000 A 
ATOM     15  N   UNL     1      -1.820  12.052  21.227  0.00  0.00    +0.000 N 
ATOM     16  N   UNL     1      -0.782  11.136  19.370  0.00  0.00    +0.000 NA
ATOM     17  C   UNL     1       0.094  10.238  18.873  0.00  0.00    +0.000 A 
ATOM     18  H   UNL     1      -2.173  11.703  22.111  0.00  0.00    +0.000 HD
ATOM     19  H   UNL     1      -2.498  12.308  20.523  0.00  0.00    +0.000 HD
ENDBRANCH   8  11
ENDBRANCH   1   5
BRANCH   1  22
ATOM     20  C   UNL     1       7.657   8.019  17.637  0.00  0.00    +0.000 A 
ATOM     21  N   UNL     1       6.535   7.547  18.153  0.00  0.00    +0.000 NA
ATOM     22  C   UNL     1       6.260   6.459  17.348  0.00  0.00    +0.000 A 
ATOM     23  N   UNL     1       7.180   6.236  16.398  0.00  0.00    +0.000 NA
ATOM     24  O   UNL     1       8.090   7.269  16.573  0.00  0.00    +0.000 OA
BRANCH  20  27
ATOM     25  N   UNL     1       9.300  11.216  18.267  0.00  0.00    +0.000 N 
ATOM     26  C   UNL     1       8.509  10.438  17.462  0.00  0.00    +0.000 A 
ATOM     27  C   UNL     1       8.390   9.226  18.102  0.00  0.00    +0.000 A 
ATOM     28  C   UNL     1       9.120   9.377  19.295  0.00  0.00    +0.000 A 
ATOM     29  N   UNL     1       9.675  10.588  19.401  0.00  0.00    +0.000 NA
BRANCH  25  30
ATOM     30  C   UNL     1       9.720  12.583  18.030  0.00  0.00    +0.000 C 
BRANCH  30  32
ATOM     31  C   UNL     1      11.947  13.356  18.993  0.00  0.00    +0.000 C 
ATOM     32  C   UNL     1      11.230  12.772  17.774  0.00  0.00    +0.000 C 
ATOM     33  C   UNL     1      11.516  13.627  16.536  0.00  0.00    +0.000 C 
BRANCH  32  34
ATOM     34  O   UNL     1      11.791  11.467  17.541  0.00  0.00    +0.000 OA
ATOM     35  H   UNL     1      12.013  11.073  18.404  0.00  0.00    +0.000 HD
ENDBRANCH  32  34
ENDBRANCH  30  32
ENDBRANCH  25  30
ENDBRANCH  20  27
ENDBRANCH   1  22
TORSDOF 7
ENDMDL
MODEL 2
REMARK VINA RESULT:      -8.1      4.044      6.965
REMARK  Name = 
REMARK  9 active torsions:
REMARK  status: ('A' for Active; 'I' for Inactive)
REMARK    1  A    between atoms: C_1  and  C_2
REMARK    2  A    between atoms: C_2  and  C_3
REMARK    3  A    between atoms: C_2  and  O_4
REMARK    4  A    between atoms: C_2  and  C_5
REMARK    5  A    between atoms: C_5  and  N_6
REMARK    6  A    between atoms: C_8  and  C_9
REMARK    7  A    between atoms: C_11  and  C_12
REMARK    8  A    between atoms: C_12  and  C_13
REMARK    9  A    between atoms: C_16  and  C_17
REMARK                            x       y       z     vdW  Elec       q    Type
REMARK                         _______ _______ _______ _____ _____    ______ ____
ROOT
ATOM      1  C   UNL     1       0.268  10.697  19.405  0.00  0.00    +0.000 C 
ATOM      2  C   UNL     1      -1.135  10.720  20.116  0.00  0.00    +0.000 C 
ATOM      3  C   UNL     1      -1.759  10.293  18.775  0.00  0.00    +0.000 C 
ATOM      4  C   UNL     1      -0.535  10.919  18.072  0.00  0.00    +0.000 C 
ENDROOT
BRANCH   1   5
ATOM      5  C   UNL     1       1.137   9.332  19.489  0.00  0.00    +0.000 A 
ATOM      6  C   UNL     1       1.870   8.847  18.389  0.00  0.00    +0.000 A 
ATOM      7  C   UNL     1       2.546   7.617  18.422  0.00  0.00    +0.000 A 
ATOM      8  C   UNL     1       2.532   6.808  19.565  0.00  0.00    +0.000 A 
ATOM      9  C   UNL     1       1.846   7.304  20.683  0.00  0.00    +0.000 A 
ATOM     10  C   UNL     1       1.165   8.527  20.642  0.00  0.00    +0.000 A 
BRANCH   8  11
ATOM     11  C   UNL     1       3.187   5.492  19.594  0.00  0.00    +0.000 A 
ATOM     12  C   UNL     1       4.517   5.284  19.268  0.00  0.00    +0.000 A 
ATOM     13  N   UNL     1       5.142   4.084  19.295  0.00  0.00    +0.000 NA
ATOM     14  C   UNL     1       4.408   3.043  19.687  0.00  0.00    +0.000 A 
ATOM     15  N   UNL     1       5.018   1.810  19.735  0.00  0.00    +0.000 N 
ATOM     16  N   UNL     1       3.112   3.099  19.994  0.00  0.00    +0.000 NA
ATOM     17  C   UNL     1       2.537   4.319  19.941  0.00  0.00    +0.000 A 
ATOM     18  H   UNL     1       5.810   1.799  19.103  0.00  0.00    +0.000 HD
ATOM     19  H   UNL     1       4.320   1.088  19.621  0.00  0.00    +0.000 HD
ENDBRANCH   8  11
ENDBRANCH   1   5
BRANCH   1  22
ATOM     20  C   UNL     1       2.622  13.439  19.619  0.00  0.00    +0.000 A 
ATOM     21  N   UNL     1       1.875  12.658  18.857  0.00  0.00    +0.000 NA
ATOM     22  C   UNL     1       1.189  11.892  19.780  0.00  0.00    +0.000 A 
ATOM     23  N   UNL     1       1.462  12.200  21.056  0.00  0.00    +0.000 NA
ATOM     24  O   UNL     1       2.416  13.204  20.955  0.00  0.00    +0.000 OA
BRANCH  20  27
ATOM     25  N   UNL     1       5.294  15.829  18.941  0.00  0.00    +0.000 N 
ATOM     26  C   UNL     1       4.755  14.867  19.755  0.00  0.00    +0.000 A 
ATOM     27  C   UNL     1       3.598  14.451  19.137  0.00  0.00    +0.000 A 
ATOM     28  C   UNL     1       3.538  15.199  17.947  0.00  0.00    +0.000 A 
ATOM     29  N   UNL     1       4.570  16.039  17.823  0.00  0.00    +0.000 NA
BRANCH  25  30
ATOM     30  C   UNL     1       6.518  16.577  19.155  0.00  0.00    +0.000 C 
BRANCH  30  32
ATOM     31  C   UNL     1       8.393  14.900  19.553  0.00  0.00    +0.000 C 
ATOM     32  C   UNL     1       7.795  15.924  18.585  0.00  0.00    +0.000 C 
ATOM     33  C   UNL     1       8.857  16.952  18.187  0.00  0.00    +0.000 C 
BRANCH  32  34
ATOM     34  O   UNL     1       7.415  15.206  17.397  0.00  0.00    +0.000 OA
ATOM     35  H   UNL     1       7.128  15.854  16.729  0.00  0.00    +0.000 HD
ENDBRANCH  32  34
ENDBRANCH  30  32
ENDBRANCH  25  30
ENDBRANCH  20  27
ENDBRANCH   1  22
TORSDOF 7
ENDMDL
MODEL 3
REMARK VINA RESULT:      -8.0      5.151      9.565
REMARK  Name = 
REMARK  9 active torsions:
REMARK  status: ('A' for Active; 'I' for Inactive)
REMARK    1  A    between atoms: C_1  and  C_2
REMARK    2  A    between atoms: C_2  and  C_3
REMARK    3  A    between atoms: C_2  and  O_4
REMARK    4  A    between atoms: C_2  and  C_5
REMARK    5  A    between atoms: C_5  and  N_6
REMARK    6  A    between atoms: C_8  and  C_9
REMARK    7  A    between atoms: C_11  and  C_12
REMARK    8  A    between atoms: C_12  and  C_13
REMARK    9  A    between atoms: C_16  and  C_17
REMARK                            x       y       z     vdW  Elec       q    Type
REMARK                         _______ _______ _______ _____ _____    ______ ____
ROOT
ATOM      1  C   UNL     1       2.136   5.091  20.213  0.00  0.00    +0.000 C 
ATOM      2  C   UNL     1       2.551   4.399  21.562  0.00  0.00    +0.000 C 
ATOM      3  C   UNL     1       1.664   3.207  21.159  0.00  0.00    +0.000 C 
ATOM      4  C   UNL     1       0.855   4.181  20.276  0.00  0.00    +0.000 C 
ENDROOT
BRANCH   1   5
ATOM      5  C   UNL     1       3.094   4.874  18.924  0.00  0.00    +0.000 A 
ATOM      6  C   UNL     1       4.378   5.446  18.845  0.00  0.00    +0.000 A 
ATOM      7  C   UNL     1       5.175   5.345  17.695  0.00  0.00    +0.000 A 
ATOM      8  C   UNL     1       4.731   4.653  16.559  0.00  0.00    +0.000 A 
ATOM      9  C   UNL     1       3.475   4.037  16.645  0.00  0.00    +0.000 A 
ATOM     10  C   UNL     1       2.679   4.150  17.792  0.00  0.00    +0.000 A 
BRANCH   8  11
ATOM     11  C   UNL     1       5.531   4.588  15.328  0.00  0.00    +0.000 A 
ATOM     12  C   UNL     1       6.742   5.239  15.158  0.00  0.00    +0.000 A 
ATOM     13  N   UNL     1       7.499   5.187  14.037  0.00  0.00    +0.000 NA
ATOM     14  C   UNL     1       7.034   4.429  13.044  0.00  0.00    +0.000 A 
ATOM     15  N   UNL     1       7.786   4.347  11.894  0.00  0.00    +0.000 N 
ATOM     16  N   UNL     1       5.870   3.778  13.065  0.00  0.00    +0.000 NA
ATOM     17  C   UNL     1       5.152   3.874  14.204  0.00  0.00    +0.000 A 
ATOM     18  H   UNL     1       8.376   5.167  11.815  0.00  0.00    +0.000 HD
ATOM     19  H   UNL     1       7.181   4.131  11.114  0.00  0.00    +0.000 HD
ENDBRANCH   8  11
ENDBRANCH   1   5
BRANCH   1  22
ATOM     20  C   UNL     1       0.984   8.425  21.028  0.00  0.00    +0.000 A 
ATOM     21  N   UNL     1       1.132   7.165  21.404  0.00  0.00    +0.000 NA
ATOM     22  C   UNL     1       1.825   6.609  20.347  0.00  0.00    +0.000 A 
ATOM     23  N   UNL     1       2.130   7.480  19.374  0.00  0.00    +0.000 NA
ATOM     24  O   UNL     1       1.563   8.670  19.810  0.00  0.00    +0.000 OA
BRANCH  20  27
ATOM     25  N   UNL     1      -0.612  11.376  22.464  0.00  0.00    +0.000 N 
ATOM     26  C   UNL     1       0.081  10.798  21.432  0.00  0.00    +0.000 A 
ATOM     27  C   UNL     1       0.266   9.482  21.788  0.00  0.00    +0.000 A 
ATOM     28  C   UNL     1      -0.372   9.354  23.036  0.00  0.00    +0.000 A 
ATOM     29  N   UNL     1      -0.909  10.506  23.450  0.00  0.00    +0.000 NA
BRANCH  25  30
ATOM     30  C   UNL     1      -1.049  12.754  22.565  0.00  0.00    +0.000 C 
BRANCH  30  32
ATOM     31  C   UNL     1      -2.974  12.732  20.898  0.00  0.00    +0.000 C 
ATOM     32  C   UNL     1      -2.560  12.982  22.350  0.00  0.00    +0.000 C 
ATOM     33  C   UNL     1      -3.016  14.375  22.793  0.00  0.00    +0.000 C 
BRANCH  32  34
ATOM     34  O   UNL     1      -3.258  12.017  23.159  0.00  0.00    +0.000 OA
ATOM     35  H   UNL     1      -3.288  12.351  24.073  0.00  0.00    +0.000 HD
ENDBRANCH  32  34
ENDBRANCH  30  32
ENDBRANCH  25  30
ENDBRANCH  20  27
ENDBRANCH   1  22
TORSDOF 7
ENDMDL
MODEL 4
REMARK VINA RESULT:      -8.0      3.688      6.788
REMARK  Name = 
REMARK  9 active torsions:
REMARK  status: ('A' for Active; 'I' for Inactive)
REMARK    1  A    between atoms: C_1  and  C_2
REMARK    2  A    between atoms: C_2  and  C_3
REMARK    3  A    between atoms: C_2  and  O_4
REMARK    4  A    between atoms: C_2  and  C_5
REMARK    5  A    between atoms: C_5  and  N_6
REMARK    6  A    between atoms: C_8  and  C_9
REMARK    7  A    between atoms: C_11  and  C_12
REMARK    8  A    between atoms: C_12  and  C_13
REMARK    9  A    between atoms: C_16  and  C_17
REMARK                            x       y       z     vdW  Elec       q    Type
REMARK                         _______ _______ _______ _____ _____    ______ ____
ROOT
ATOM      1  C   UNL     1      -0.150  11.387  18.872  0.00  0.00    +0.000 C 
ATOM      2  C   UNL     1      -1.303  11.560  19.927  0.00  0.00    +0.000 C 
ATOM      3  C   UNL     1      -2.249  10.879  18.923  0.00  0.00    +0.000 C 
ATOM      4  C   UNL     1      -1.299  11.345  17.799  0.00  0.00    +0.000 C 
ENDROOT
BRANCH   1   5
ATOM      5  C   UNL     1       0.775  10.061  18.970  0.00  0.00    +0.000 A 
ATOM      6  C   UNL     1       1.416   9.514  17.843  0.00  0.00    +0.000 A 
ATOM      7  C   UNL     1       2.139   8.313  17.899  0.00  0.00    +0.000 A 
ATOM      8  C   UNL     1       2.267   7.595  19.096  0.00  0.00    +0.000 A 
ATOM      9  C   UNL     1       1.674   8.156  20.236  0.00  0.00    +0.000 A 
ATOM     10  C   UNL     1       0.946   9.350  20.172  0.00  0.00    +0.000 A 
BRANCH   8  11
ATOM     11  C   UNL     1       2.972   6.307  19.157  0.00  0.00    +0.000 A 
ATOM     12  C   UNL     1       4.047   5.975  18.349  0.00  0.00    +0.000 A 
ATOM     13  N   UNL     1       4.715   4.799  18.393  0.00  0.00    +0.000 NA
ATOM     14  C   UNL     1       4.304   3.919  19.306  0.00  0.00    +0.000 A 
ATOM     15  N   UNL     1       4.970   2.716  19.384  0.00  0.00    +0.000 N 
ATOM     16  N   UNL     1       3.264   4.098  20.121  0.00  0.00    +0.000 NA
ATOM     17  C   UNL     1       2.628   5.284  20.026  0.00  0.00    +0.000 A 
ATOM     18  H   UNL     1       5.414   2.517  18.495  0.00  0.00    +0.000 HD
ATOM     19  H   UNL     1       4.350   2.015  19.763  0.00  0.00    +0.000 HD
ENDBRANCH   8  11
ENDBRANCH   1   5
BRANCH   1  22
ATOM     20  C   UNL     1       2.498  13.856  18.814  0.00  0.00    +0.000 A 
ATOM     21  N   UNL     1       2.154  12.579  18.853  0.00  0.00    +0.000 NA
ATOM     22  C   UNL     1       0.778  12.627  18.736  0.00  0.00    +0.000 A 
ATOM     23  N   UNL     1       0.286  13.866  18.593  0.00  0.00    +0.000 NA
ATOM     24  O   UNL     1       1.410  14.677  18.661  0.00  0.00    +0.000 OA
BRANCH  20  27
ATOM     25  N   UNL     1       5.957  14.989  18.566  0.00  0.00    +0.000 N 
ATOM     26  C   UNL     1       4.853  14.442  17.966  0.00  0.00    +0.000 A 
ATOM     27  C   UNL     1       3.879  14.390  18.937  0.00  0.00    +0.000 A 
ATOM     28  C   UNL     1       4.480  14.951  20.079  0.00  0.00    +0.000 A 
ATOM     29  N   UNL     1       5.746  15.319  19.856  0.00  0.00    +0.000 NA
BRANCH  25  30
ATOM     30  C   UNL     1       7.247  15.253  17.959  0.00  0.00    +0.000 C 
BRANCH  30  32
ATOM     31  C   UNL     1       9.742  14.748  17.998  0.00  0.00    +0.000 C 
ATOM     32  C   UNL     1       8.336  14.198  18.245  0.00  0.00    +0.000 C 
ATOM     33  C   UNL     1       8.130  12.906  17.449  0.00  0.00    +0.000 C 
BRANCH  32  34
ATOM     34  O   UNL     1       8.253  13.866  19.643  0.00  0.00    +0.000 OA
ATOM     35  H   UNL     1       7.598  14.455  20.057  0.00  0.00    +0.000 HD
ENDBRANCH  32  34
ENDBRANCH  30  32
ENDBRANCH  25  30
ENDBRANCH  20  27
ENDBRANCH   1  22
TORSDOF 7
ENDMDL
MODEL 5
REMARK VINA RESULT:      -7.8      4.640      6.269
REMARK  Name = 
REMARK  9 active torsions:
REMARK  status: ('A' for Active; 'I' for Inactive)
REMARK    1  A    between atoms: C_1  and  C_2
REMARK    2  A    between atoms: C_2  and  C_3
REMARK    3  A    between atoms: C_2  and  O_4
REMARK    4  A    between atoms: C_2  and  C_5
REMARK    5  A    between atoms: C_5  and  N_6
REMARK    6  A    between atoms: C_8  and  C_9
REMARK    7  A    between atoms: C_11  and  C_12
REMARK    8  A    between atoms: C_12  and  C_13
REMARK    9  A    between atoms: C_16  and  C_17
REMARK                            x       y       z     vdW  Elec       q    Type
REMARK                         _______ _______ _______ _____ _____    ______ ____
ROOT
ATOM      1  C   UNL     1       2.493   5.268  19.512  0.00  0.00    +0.000 C 
ATOM      2  C   UNL     1       1.402   4.213  19.101  0.00  0.00    +0.000 C 
ATOM      3  C   UNL     1       0.996   4.138  20.584  0.00  0.00    +0.000 C 
ATOM      4  C   UNL     1       2.422   4.613  20.939  0.00  0.00    +0.000 C 
ENDROOT
BRANCH   1   5
ATOM      5  C   UNL     1       2.097   6.837  19.434  0.00  0.00    +0.000 A 
ATOM      6  C   UNL     1       1.582   7.532  20.545  0.00  0.00    +0.000 A 
ATOM      7  C   UNL     1       1.145   8.863  20.461  0.00  0.00    +0.000 A 
ATOM      8  C   UNL     1       1.210   9.577  19.257  0.00  0.00    +0.000 A 
ATOM      9  C   UNL     1       1.767   8.911  18.156  0.00  0.00    +0.000 A 
ATOM     10  C   UNL     1       2.192   7.579  18.243  0.00  0.00    +0.000 A 
BRANCH   8  11
ATOM     11  C   UNL     1       0.703  10.951  19.142  0.00  0.00    +0.000 A 
ATOM     12  C   UNL     1       1.404  12.071  19.560  0.00  0.00    +0.000 A 
ATOM     13  N   UNL     1       0.960  13.346  19.456  0.00  0.00    +0.000 NA
ATOM     14  C   UNL     1      -0.233  13.512  18.886  0.00  0.00    +0.000 A 
ATOM     15  N   UNL     1      -0.708  14.798  18.756  0.00  0.00    +0.000 N 
ATOM     16  N   UNL     1      -1.023  12.521  18.471  0.00  0.00    +0.000 NA
ATOM     17  C   UNL     1      -0.535  11.271  18.609  0.00  0.00    +0.000 A 
ATOM     18  H   UNL     1      -0.272  15.392  19.451  0.00  0.00    +0.000 HD
ATOM     19  H   UNL     1      -1.717  14.780  18.725  0.00  0.00    +0.000 HD
ENDBRANCH   8  11
ENDBRANCH   1   5
BRANCH   1  22
ATOM     20  C   UNL     1       5.327   4.900  17.289  0.00  0.00    +0.000 A 
ATOM     21  N   UNL     1       4.096   5.348  17.474  0.00  0.00    +0.000 NA
ATOM     22  C   UNL     1       3.865   5.071  18.807  0.00  0.00    +0.000 A 
ATOM     23  N   UNL     1       4.908   4.512  19.437  0.00  0.00    +0.000 NA
ATOM     24  O   UNL     1       5.865   4.382  18.440  0.00  0.00    +0.000 OA
BRANCH  20  27
ATOM     25  N   UNL     1       6.693   4.674  13.913  0.00  0.00    +0.000 N 
ATOM     26  C   UNL     1       5.640   4.488  14.771  0.00  0.00    +0.000 A 
ATOM     27  C   UNL     1       6.075   4.914  16.004  0.00  0.00    +0.000 A 
ATOM     28  C   UNL     1       7.391   5.363  15.786  0.00  0.00    +0.000 A 
ATOM     29  N   UNL     1       7.770   5.220  14.512  0.00  0.00    +0.000 NA
BRANCH  25  30
ATOM     30  C   UNL     1       6.733   4.375  12.495  0.00  0.00    +0.000 C 
BRANCH  30  32
ATOM     31  C   UNL     1       6.928   2.225  11.145  0.00  0.00    +0.000 C 
ATOM     32  C   UNL     1       6.047   3.057  12.080  0.00  0.00    +0.000 C 
ATOM     33  C   UNL     1       4.672   3.280  11.445  0.00  0.00    +0.000 C 
BRANCH  32  34
ATOM     34  O   UNL     1       5.854   2.281  13.277  0.00  0.00    +0.000 OA
ATOM     35  H   UNL     1       4.897   2.163  13.412  0.00  0.00    +0.000 HD
ENDBRANCH  32  34
ENDBRANCH  30  32
ENDBRANCH  25  30
ENDBRANCH  20  27
ENDBRANCH   1  22
TORSDOF 7
ENDMDL
MODEL 6
REMARK VINA RESULT:      -7.8      3.933      7.044
REMARK  Name = 
REMARK  9 active torsions:
REMARK  status: ('A' for Active; 'I' for Inactive)
REMARK    1  A    between atoms: C_1  and  C_2
REMARK    2  A    between atoms: C_2  and  C_3
REMARK    3  A    between atoms: C_2  and  O_4
REMARK    4  A    between atoms: C_2  and  C_5
REMARK    5  A    between atoms: C_5  and  N_6
REMARK    6  A    between atoms: C_8  and  C_9
REMARK    7  A    between atoms: C_11  and  C_12
REMARK    8  A    between atoms: C_12  and  C_13
REMARK    9  A    between atoms: C_16  and  C_17
REMARK                            x       y       z     vdW  Elec       q    Type
REMARK                         _______ _______ _______ _____ _____    ______ ____
ROOT
ATOM      1  C   UNL     1       0.146  11.711  19.629  0.00  0.00    +0.000 C 
ATOM      2  C   UNL     1      -1.191  11.823  20.448  0.00  0.00    +0.000 C 
ATOM      3  C   UNL     1      -1.952  11.670  19.119  0.00  0.00    +0.000 C 
ATOM      4  C   UNL     1      -0.699  12.217  18.404  0.00  0.00    +0.000 C 
ENDROOT
BRANCH   1   5
ATOM      5  C   UNL     1       0.816  10.244  19.468  0.00  0.00    +0.000 A 
ATOM      6  C   UNL     1       0.922   9.351  20.551  0.00  0.00    +0.000 A 
ATOM      7  C   UNL     1       1.586   8.119  20.445  0.00  0.00    +0.000 A 
ATOM      8  C   UNL     1       2.174   7.709  19.241  0.00  0.00    +0.000 A 
ATOM      9  C   UNL     1       2.031   8.569  18.143  0.00  0.00    +0.000 A 
ATOM     10  C   UNL     1       1.377   9.802  18.257  0.00  0.00    +0.000 A 
BRANCH   8  11
ATOM     11  C   UNL     1       2.922   6.449  19.132  0.00  0.00    +0.000 A 
ATOM     12  C   UNL     1       3.941   6.232  18.219  0.00  0.00    +0.000 A 
ATOM     13  N   UNL     1       4.648   5.083  18.106  0.00  0.00    +0.000 NA
ATOM     14  C   UNL     1       4.337   4.110  18.963  0.00  0.00    +0.000 A 
ATOM     15  N   UNL     1       5.045   2.932  18.881  0.00  0.00    +0.000 N 
ATOM     16  N   UNL     1       3.357   4.176  19.866  0.00  0.00    +0.000 NA
ATOM     17  C   UNL     1       2.678   5.341  19.927  0.00  0.00    +0.000 A 
ATOM     18  H   UNL     1       5.424   2.829  17.947  0.00  0.00    +0.000 HD
ATOM     19  H   UNL     1       4.478   2.176  19.239  0.00  0.00    +0.000 HD
ENDBRANCH   8  11
ENDBRANCH   1   5
BRANCH   1  22
ATOM     20  C   UNL     1       2.932  13.993  20.012  0.00  0.00    +0.000 A 
ATOM     21  N   UNL     1       2.080  13.387  19.201  0.00  0.00    +0.000 NA
ATOM     22  C   UNL     1       1.251  12.711  20.075  0.00  0.00    +0.000 A 
ATOM     23  N   UNL     1       1.541  12.911  21.368  0.00  0.00    +0.000 NA
ATOM     24  O   UNL     1       2.656  13.738  21.331  0.00  0.00    +0.000 OA
BRANCH  20  27
ATOM     25  N   UNL     1       6.043  15.800  19.408  0.00  0.00    +0.000 N 
ATOM     26  C   UNL     1       5.365  14.819  20.083  0.00  0.00    +0.000 A 
ATOM     27  C   UNL     1       4.079  14.841  19.594  0.00  0.00    +0.000 A 
ATOM     28  C   UNL     1       4.085  15.848  18.613  0.00  0.00    +0.000 A 
ATOM     29  N   UNL     1       5.281  16.434  18.495  0.00  0.00    +0.000 NA
BRANCH  25  30
ATOM     30  C   UNL     1       7.436  16.173  19.566  0.00  0.00    +0.000 C 
BRANCH  30  32
ATOM     31  C   UNL     1       9.257  14.508  18.937  0.00  0.00    +0.000 C 
ATOM     32  C   UNL     1       8.381  15.667  18.456  0.00  0.00    +0.000 C 
ATOM     33  C   UNL     1       9.256  16.779  17.873  0.00  0.00    +0.000 C 
BRANCH  32  34
ATOM     34  O   UNL     1       7.557  15.157  17.391  0.00  0.00    +0.000 OA
ATOM     35  H   UNL     1       6.681  14.945  17.759  0.00  0.00    +0.000 HD
ENDBRANCH  32  34
ENDBRANCH  30  32
ENDBRANCH  25  30
ENDBRANCH  20  27
ENDBRANCH   1  22
TORSDOF 7
ENDMDL
MODEL 7
REMARK VINA RESULT:      -7.7      3.885      7.006
REMARK  Name = 
REMARK  9 active torsions:
REMARK  status: ('A' for Active; 'I' for Inactive)
REMARK    1  A    between atoms: C_1  and  C_2
REMARK    2  A    between atoms: C_2  and  C_3
REMARK    3  A    between atoms: C_2  and  O_4
REMARK    4  A    between atoms: C_2  and  C_5
REMARK    5  A    between atoms: C_5  and  N_6
REMARK    6  A    between atoms: C_8  and  C_9
REMARK    7  A    between atoms: C_11  and  C_12
REMARK    8  A    between atoms: C_12  and  C_13
REMARK    9  A    between atoms: C_16  and  C_17
REMARK                            x       y       z     vdW  Elec       q    Type
REMARK                         _______ _______ _______ _____ _____    ______ ____
ROOT
ATOM      1  C   UNL     1      -0.039  11.642  19.558  0.00  0.00    +0.000 C 
ATOM      2  C   UNL     1      -1.473  11.693  20.200  0.00  0.00    +0.000 C 
ATOM      3  C   UNL     1      -2.053  11.583  18.779  0.00  0.00    +0.000 C 
ATOM      4  C   UNL     1      -0.731  12.184  18.255  0.00  0.00    +0.000 C 
ENDROOT
BRANCH   1   5
ATOM      5  C   UNL     1       0.681  10.196  19.427  0.00  0.00    +0.000 A 
ATOM      6  C   UNL     1       0.816   9.328  20.527  0.00  0.00    +0.000 A 
ATOM      7  C   UNL     1       1.523   8.119  20.446  0.00  0.00    +0.000 A 
ATOM      8  C   UNL     1       2.126   7.705  19.251  0.00  0.00    +0.000 A 
ATOM      9  C   UNL     1       1.956   8.538  18.135  0.00  0.00    +0.000 A 
ATOM     10  C   UNL     1       1.258   9.749  18.225  0.00  0.00    +0.000 A 
BRANCH   8  11
ATOM     11  C   UNL     1       2.917   6.470  19.167  0.00  0.00    +0.000 A 
ATOM     12  C   UNL     1       2.734   5.376  19.998  0.00  0.00    +0.000 A 
ATOM     13  N   UNL     1       3.445   4.227  19.934  0.00  0.00    +0.000 NA
ATOM     14  C   UNL     1       4.370   4.156  18.977  0.00  0.00    +0.000 A 
ATOM     15  N   UNL     1       5.104   2.995  18.879  0.00  0.00    +0.000 N 
ATOM     16  N   UNL     1       4.671   5.146  18.135  0.00  0.00    +0.000 NA
ATOM     17  C   UNL     1       3.938   6.272  18.251  0.00  0.00    +0.000 A 
ATOM     18  H   UNL     1       5.109   2.521  19.775  0.00  0.00    +0.000 HD
ATOM     19  H   UNL     1       5.997   3.200  18.455  0.00  0.00    +0.000 HD
ENDBRANCH   8  11
ENDBRANCH   1   5
BRANCH   1  22
ATOM     20  C   UNL     1       2.710  13.816  20.465  0.00  0.00    +0.000 A 
ATOM     21  N   UNL     1       2.080  13.138  19.520  0.00  0.00    +0.000 NA
ATOM     22  C   UNL     1       0.974  12.642  20.183  0.00  0.00    +0.000 A 
ATOM     23  N   UNL     1       0.893  13.019  21.467  0.00  0.00    +0.000 NA
ATOM     24  O   UNL     1       2.040  13.776  21.661  0.00  0.00    +0.000 OA
BRANCH  20  27
ATOM     25  N   UNL     1       5.790  15.521  19.505  0.00  0.00    +0.000 N 
ATOM     26  C   UNL     1       4.614  14.921  19.137  0.00  0.00    +0.000 A 
ATOM     27  C   UNL     1       4.001  14.536  20.307  0.00  0.00    +0.000 A 
ATOM     28  C   UNL     1       4.869  14.968  21.326  0.00  0.00    +0.000 A 
ATOM     29  N   UNL     1       5.960  15.571  20.842  0.00  0.00    +0.000 NA
BRANCH  25  30
ATOM     30  C   UNL     1       6.794  16.096  18.631  0.00  0.00    +0.000 C 
BRANCH  30  32
ATOM     31  C   UNL     1       9.191  16.065  17.772  0.00  0.00    +0.000 C 
ATOM     32  C   UNL     1       8.099  15.281  18.504  0.00  0.00    +0.000 C 
ATOM     33  C   UNL     1       7.885  13.924  17.830  0.00  0.00    +0.000 C 
BRANCH  32  34
ATOM     34  O   UNL     1       8.581  15.034  19.838  0.00  0.00    +0.000 OA
ATOM     35  H   UNL     1       9.221  14.302  19.799  0.00  0.00    +0.000 HD
ENDBRANCH  32  34
ENDBRANCH  30  32
ENDBRANCH  25  30
ENDBRANCH  20  27
ENDBRANCH   1  22
TORSDOF 7
ENDMDL
MODEL 8
REMARK VINA RESULT:      -7.7      3.624      6.876
REMARK  Name = 
REMARK  9 active torsions:
REMARK  status: ('A' for Active; 'I' for Inactive)
REMARK    1  A    between atoms: C_1  and  C_2
REMARK    2  A    between atoms: C_2  and  C_3
REMARK    3  A    between atoms: C_2  and  O_4
REMARK    4  A    between atoms: C_2  and  C_5
REMARK    5  A    between atoms: C_5  and  N_6
REMARK    6  A    between atoms: C_8  and  C_9
REMARK    7  A    between atoms: C_11  and  C_12
REMARK    8  A    between atoms: C_12  and  C_13
REMARK    9  A    between atoms: C_16  and  C_17
REMARK                            x       y       z     vdW  Elec       q    Type
REMARK                         _______ _______ _______ _____ _____    ______ ____
ROOT
ATOM      1  C   UNL     1      -0.317  11.872  18.991  0.00  0.00    +0.000 C 
ATOM      2  C   UNL     1      -1.361  12.104  20.144  0.00  0.00    +0.000 C 
ATOM      3  C   UNL     1      -2.446  11.569  19.193  0.00  0.00    +0.000 C 
ATOM      4  C   UNL     1      -1.543  11.994  18.015  0.00  0.00    +0.000 C 
ENDROOT
BRANCH   1   5
ATOM      5  C   UNL     1       0.475  10.459  18.959  0.00  0.00    +0.000 A 
ATOM      6  C   UNL     1       0.722   9.716  20.129  0.00  0.00    +0.000 A 
ATOM      7  C   UNL     1       1.489   8.542  20.124  0.00  0.00    +0.000 A 
ATOM      8  C   UNL     1       2.046   8.040  18.940  0.00  0.00    +0.000 A 
ATOM      9  C   UNL     1       1.765   8.744  17.761  0.00  0.00    +0.000 A 
ATOM     10  C   UNL     1       1.007   9.921  17.774  0.00  0.00    +0.000 A 
BRANCH   8  11
ATOM     11  C   UNL     1       2.900   6.843  18.930  0.00  0.00    +0.000 A 
ATOM     12  C   UNL     1       2.788   5.806  19.842  0.00  0.00    +0.000 A 
ATOM     13  N   UNL     1       3.557   4.693  19.846  0.00  0.00    +0.000 NA
ATOM     14  C   UNL     1       4.469   4.600  18.879  0.00  0.00    +0.000 A 
ATOM     15  N   UNL     1       5.261   3.474  18.850  0.00  0.00    +0.000 N 
ATOM     16  N   UNL     1       4.703   5.539  17.962  0.00  0.00    +0.000 NA
ATOM     17  C   UNL     1       3.914   6.632  18.011  0.00  0.00    +0.000 A 
ATOM     18  H   UNL     1       5.306   3.067  19.777  0.00  0.00    +0.000 HD
ATOM     19  H   UNL     1       6.135   3.692  18.393  0.00  0.00    +0.000 HD
ENDBRANCH   8  11
ENDBRANCH   1   5
BRANCH   1  22
ATOM     20  C   UNL     1       2.543  14.090  18.876  0.00  0.00    +0.000 A 
ATOM     21  N   UNL     1       2.085  12.850  18.934  0.00  0.00    +0.000 NA
ATOM     22  C   UNL     1       0.719  13.022  18.831  0.00  0.00    +0.000 A 
ATOM     23  N   UNL     1       0.339  14.298  18.679  0.00  0.00    +0.000 NA
ATOM     24  O   UNL     1       1.532  15.005  18.725  0.00  0.00    +0.000 OA
BRANCH  20  27
ATOM     25  N   UNL     1       6.077  14.941  18.564  0.00  0.00    +0.000 N 
ATOM     26  C   UNL     1       4.912  14.525  17.976  0.00  0.00    +0.000 A 
ATOM     27  C   UNL     1       3.969  14.498  18.978  0.00  0.00    +0.000 A 
ATOM     28  C   UNL     1       4.652  14.939  20.126  0.00  0.00    +0.000 A 
ATOM     29  N   UNL     1       5.937  15.212  19.878  0.00  0.00    +0.000 NA
BRANCH  25  30
ATOM     30  C   UNL     1       7.365  15.130  17.925  0.00  0.00    +0.000 C 
BRANCH  30  32
ATOM     31  C   UNL     1       9.834  14.506  17.930  0.00  0.00    +0.000 C 
ATOM     32  C   UNL     1       8.407  14.027  18.208  0.00  0.00    +0.000 C 
ATOM     33  C   UNL     1       8.126  12.737  17.433  0.00  0.00    +0.000 C 
BRANCH  32  34
ATOM     34  O   UNL     1       8.333  13.717  19.611  0.00  0.00    +0.000 OA
ATOM     35  H   UNL     1       9.111  13.182  19.846  0.00  0.00    +0.000 HD
ENDBRANCH  32  34
ENDBRANCH  30  32
ENDBRANCH  25  30
ENDBRANCH  20  27
ENDBRANCH   1  22
TORSDOF 7
ENDMDL
MODEL 9
REMARK VINA RESULT:      -7.7      4.248      7.154
REMARK  Name = 
REMARK  9 active torsions:
REMARK  status: ('A' for Active; 'I' for Inactive)
REMARK    1  A    between atoms: C_1  and  C_2
REMARK    2  A    between atoms: C_2  and  C_3
REMARK    3  A    between atoms: C_2  and  O_4
REMARK    4  A    between atoms: C_2  and  C_5
REMARK    5  A    between atoms: C_5  and  N_6
REMARK    6  A    between atoms: C_8  and  C_9
REMARK    7  A    between atoms: C_11  and  C_12
REMARK    8  A    between atoms: C_12  and  C_13
REMARK    9  A    between atoms: C_16  and  C_17
REMARK                            x       y       z     vdW  Elec       q    Type
REMARK                         _______ _______ _______ _____ _____    ______ ____
ROOT
ATOM      1  C   UNL     1       0.180  10.961  19.401  0.00  0.00    +0.000 C 
ATOM      2  C   UNL     1      -1.258  10.976  20.037  0.00  0.00    +0.000 C 
ATOM      3  C   UNL     1      -1.813  10.591  18.655  0.00  0.00    +0.000 C 
ATOM      4  C   UNL     1      -0.550  11.224  18.034  0.00  0.00    +0.000 C 
ENDROOT
BRANCH   1   5
ATOM      5  C   UNL     1       1.034   9.587  19.493  0.00  0.00    +0.000 A 
ATOM      6  C   UNL     1       1.806   9.115  18.414  0.00  0.00    +0.000 A 
ATOM      7  C   UNL     1       2.470   7.880  18.450  0.00  0.00    +0.000 A 
ATOM      8  C   UNL     1       2.405   7.050  19.577  0.00  0.00    +0.000 A 
ATOM      9  C   UNL     1       1.680   7.532  20.676  0.00  0.00    +0.000 A 
ATOM     10  C   UNL     1       1.011   8.761  20.631  0.00  0.00    +0.000 A 
BRANCH   8  11
ATOM     11  C   UNL     1       3.047   5.728  19.607  0.00  0.00    +0.000 A 
ATOM     12  C   UNL     1       2.493   4.613  20.213  0.00  0.00    +0.000 A 
ATOM     13  N   UNL     1       3.062   3.385  20.245  0.00  0.00    +0.000 NA
ATOM     14  C   UNL     1       4.234   3.260  19.622  0.00  0.00    +0.000 A 
ATOM     15  N   UNL     1       4.835   2.022  19.628  0.00  0.00    +0.000 N 
ATOM     16  N   UNL     1       4.891   4.259  19.030  0.00  0.00    +0.000 NA
ATOM     17  C   UNL     1       4.282   5.463  19.037  0.00  0.00    +0.000 A 
ATOM     18  H   UNL     1       4.502   1.487  20.422  0.00  0.00    +0.000 HD
ATOM     19  H   UNL     1       5.834   2.134  19.527  0.00  0.00    +0.000 HD
ENDBRANCH   8  11
ENDBRANCH   1   5
BRANCH   1  22
ATOM     20  C   UNL     1       2.431  13.771  19.784  0.00  0.00    +0.000 A 
ATOM     21  N   UNL     1       1.635  13.070  18.994  0.00  0.00    +0.000 NA
ATOM     22  C   UNL     1       1.089  12.138  19.855  0.00  0.00    +0.000 A 
ATOM     23  N   UNL     1       1.491  12.270  21.127  0.00  0.00    +0.000 NA
ATOM     24  O   UNL     1       2.386  13.330  21.082  0.00  0.00    +0.000 OA
BRANCH  20  27
ATOM     25  N   UNL     1       4.937  16.351  19.170  0.00  0.00    +0.000 N 
ATOM     26  C   UNL     1       4.551  15.223  19.847  0.00  0.00    +0.000 A 
ATOM     27  C   UNL     1       3.305  14.897  19.363  0.00  0.00    +0.000 A 
ATOM     28  C   UNL     1       3.036  15.867  18.380  0.00  0.00    +0.000 A 
ATOM     29  N   UNL     1       4.028  16.754  18.258  0.00  0.00    +0.000 NA
BRANCH  25  30
ATOM     30  C   UNL     1       6.177  17.086  19.322  0.00  0.00    +0.000 C 
BRANCH  30  32
ATOM     31  C   UNL     1       8.516  17.301  18.338  0.00  0.00    +0.000 C 
ATOM     32  C   UNL     1       7.445  16.339  18.859  0.00  0.00    +0.000 C 
ATOM     33  C   UNL     1       7.148  15.266  17.809  0.00  0.00    +0.000 C 
BRANCH  32  34
ATOM     34  O   UNL     1       7.998  15.679  20.012  0.00  0.00    +0.000 OA
ATOM     35  H   UNL     1       7.265  15.441  20.607  0.00  0.00    +0.000 HD
ENDBRANCH  32  34
ENDBRANCH  30  32
ENDBRANCH  25  30
ENDBRANCH  20  27
ENDBRANCH   1  22
TORSDOF 7
ENDMDL
