MODEL 1
REMARK VINA RESULT:      -8.1      0.000      0.000
REMARK  Name = 
REMARK  8 active torsions:
REMARK  status: ('A' for Active; 'I' for Inactive)
REMARK    1  A    between atoms: C_1  and  C_2
REMARK    2  A    between atoms: C_2  and  O_3
REMARK    3  A    between atoms: O_3  and  C_4
REMARK    4  A    between atoms: C_4  and  C_6
REMARK    5  A    between atoms: C_8  and  C_9
REMARK    6  A    between atoms: C_13  and  O_14
REMARK    7  A    between atoms: O_14  and  C_15
REMARK    8  A    between atoms: C_15  and  C_16
REMARK                            x       y       z     vdW  Elec       q    Type
REMARK                         _______ _______ _______ _____ _____    ______ ____
ROOT
ATOM      1  C   UNL     1       6.507   4.995  16.008  0.00  0.00    +0.000 A 
ATOM      2  C   UNL     1       7.531   4.666  16.909  0.00  0.00    +0.000 A 
ATOM      3  C   UNL     1       7.483   5.100  18.232  0.00  0.00    +0.000 A 
ATOM      4  C   UNL     1       6.419   5.880  18.670  0.00  0.00    +0.000 A 
ATOM      5  C   UNL     1       5.414   6.261  17.778  0.00  0.00    +0.000 A 
ATOM      6  C   UNL     1       5.446   5.794  16.462  0.00  0.00    +0.000 A 
ENDROOT
BRANCH   1   9
ATOM      7  C   UNL     1       6.484   3.505  12.662  0.00  0.00    +0.000 A 
ATOM      8  C   UNL     1       5.911   3.482  13.960  0.00  0.00    +0.000 A 
ATOM      9  C   UNL     1       6.529   4.507  14.636  0.00  0.00    +0.000 A 
ATOM     10  O   UNL     1       7.368   5.148  13.776  0.00  0.00    +0.000 OA
ATOM     11  N   UNL     1       7.342   4.531  12.542  0.00  0.00    +0.000 NA
BRANCH   7  12
ATOM     12  C   UNL     1       6.283   2.519  11.608  0.00  0.00    +0.000 C 
ATOM     13  O   UNL     1       7.206   2.042  10.958  0.00  0.00    +0.000 OA
BRANCH  12  14
ATOM     14  O   UNL     1       4.961   2.286  11.354  0.00  0.00    +0.000 OA
BRANCH  14  16
ATOM     15  C   UNL     1       3.215   3.347  10.123  0.00  0.00    +0.000 C 
ATOM     16  C   UNL     1       4.125   3.446  11.336  0.00  0.00    +0.000 C 
ENDBRANCH  14  16
ENDBRANCH  12  14
ENDBRANCH   7  12
ENDBRANCH   1   9
BRANCH   5  17
ATOM     17  O   UNL     1       4.366   7.085  18.094  0.00  0.00    +0.000 OA
BRANCH  17  18
ATOM     18  C   UNL     1       3.104   6.648  17.584  0.00  0.00    +0.000 C 
BRANCH  18  19
ATOM     19  C   UNL     1       2.407   5.738  18.561  0.00  0.00    +0.000 A 
ATOM     20  C   UNL     1       2.355   6.101  19.918  0.00  0.00    +0.000 A 
ATOM     21  C   UNL     1       1.758   5.261  20.855  0.00  0.00    +0.000 A 
ATOM     22  C   UNL     1       1.213   4.044  20.448  0.00  0.00    +0.000 A 
ATOM     23  C   UNL     1       1.272   3.672  19.106  0.00  0.00    +0.000 A 
ATOM     24 CL   UNL     1       0.609   2.164  18.609  0.00  0.00    +0.000 Cl
ATOM     25  C   UNL     1       1.870   4.508  18.163  0.00  0.00    +0.000 A 
ENDBRANCH  18  19
ENDBRANCH  17  18
ENDBRANCH   5  17
TORSDOF 7
ENDMDL
MODEL 2
REMARK VINA RESULT:      -8.0      3.600      5.120
REMARK  Name = 
REMARK  8 active torsions:
REMARK  status: ('A' for Active; 'I' for Inactive)
REMARK    1  A    between atoms: C_1  and  C_2
REMARK    2  A    between atoms: C_2  and  O_3
REMARK    3  A    between atoms: O_3  and  C_4
REMARK    4  A    between atoms: C_4  and  C_6
REMARK    5  A    between atoms: C_8  and  C_9
REMARK    6  A    between atoms: C_13  and  O_14
REMARK    7  A    between atoms: O_14  and  C_15
REMARK    8  A    between atoms: C_15  and  C_16
REMARK                            x       y       z     vdW  Elec       q    Type
REMARK                         _______ _______ _______ _____ _____    ______ ____
ROOT
ATOM      1  C   UNL     1       3.169   4.827  18.378  0.00  0.00    +0.000 A 
ATOM      2  C   UNL     1       2.617   3.555  18.591  0.00  0.00    +0.000 A 
ATOM      3  C   UNL     1       1.668   3.348  19.591  0.00  0.00    +0.000 A 
ATOM      4  C   UNL     1       1.268   4.405  20.399  0.00  0.00    +0.000 A 
ATOM      5  C   UNL     1       1.841   5.669  20.238  0.00  0.00    +0.000 A 
ATOM      6  C   UNL     1       2.764   5.881  19.211  0.00  0.00    +0.000 A 
ENDROOT
BRANCH   1   9
ATOM      7  C   UNL     1       5.663   5.134  15.713  0.00  0.00    +0.000 A 
ATOM      8  C   UNL     1       4.764   4.265  16.384  0.00  0.00    +0.000 A 
ATOM      9  C   UNL     1       4.127   5.059  17.306  0.00  0.00    +0.000 A 
ATOM     10  O   UNL     1       4.567   6.340  17.150  0.00  0.00    +0.000 OA
ATOM     11  N   UNL     1       5.522   6.393  16.156  0.00  0.00    +0.000 NA
BRANCH   7  12
ATOM     12  C   UNL     1       6.687   4.747  14.750  0.00  0.00    +0.000 C 
ATOM     13  O   UNL     1       7.715   5.392  14.577  0.00  0.00    +0.000 OA
BRANCH  12  14
ATOM     14  O   UNL     1       6.315   3.671  13.994  0.00  0.00    +0.000 OA
BRANCH  14  16
ATOM     15  C   UNL     1       5.892   2.602  11.904  0.00  0.00    +0.000 C 
ATOM     16  C   UNL     1       6.498   3.819  12.584  0.00  0.00    +0.000 C 
ENDBRANCH  14  16
ENDBRANCH  12  14
ENDBRANCH   7  12
ENDBRANCH   1   9
BRANCH   5  17
ATOM     17  O   UNL     1       1.568   6.753  21.029  0.00  0.00    +0.000 OA
BRANCH  17  18
ATOM     18  C   UNL     1       1.583   8.003  20.335  0.00  0.00    +0.000 C 
BRANCH  18  19
ATOM     19  C   UNL     1       0.784   9.045  21.072  0.00  0.00    +0.000 A 
ATOM     20  C   UNL     1       0.535   8.874  22.444  0.00  0.00    +0.000 A 
ATOM     21  C   UNL     1      -0.238   9.796  23.146  0.00  0.00    +0.000 A 
ATOM     22  C   UNL     1      -0.779  10.896  22.481  0.00  0.00    +0.000 A 
ATOM     23  C   UNL     1      -0.547  11.066  21.118  0.00  0.00    +0.000 A 
ATOM     24 CL   UNL     1      -1.226  12.417  20.299  0.00  0.00    +0.000 Cl
ATOM     25  C   UNL     1       0.225  10.145  20.410  0.00  0.00    +0.000 A 
ENDBRANCH  18  19
ENDBRANCH  17  18
ENDBRANCH   5  17
TORSDOF 7
ENDMDL
MODEL 3
REMARK VINA RESULT:      -8.0      4.666      6.228
REMARK  Name = 
REMARK  8 active torsions:
REMARK  status: ('A' for Active; 'I' for Inactive)
REMARK    1  A    between atoms: C_1  and  C_2
REMARK    2  A    between atoms: C_2  and  O_3
REMARK    3  A    between atoms: O_3  and  C_4
REMARK    4  A    between atoms: C_4  and  C_6
REMARK    5  A    between atoms: C_8  and  C_9
REMARK    6  A    between atoms: C_13  and  O_14
REMARK    7  A    between atoms: O_14  and  C_15
REMARK    8  A    between atoms: C_15  and  C_16
REMARK                            x       y       z     vdW  Elec       q    Type
REMARK                         _______ _______ _______ _____ _____    ______ ____
ROOT
ATOM      1  C   UNL     1       6.802   5.283  16.800  0.00  0.00    +0.000 A 
ATOM      2  C   UNL     1       6.144   4.582  17.822  0.00  0.00    +0.000 A 
ATOM      3  C   UNL     1       6.273   4.974  19.153  0.00  0.00    +0.000 A 
ATOM      4  C   UNL     1       7.071   6.063  19.483  0.00  0.00    +0.000 A 
ATOM      5  C   UNL     1       7.775   6.745  18.487  0.00  0.00    +0.000 A 
ATOM      6  C   UNL     1       7.615   6.372  17.151  0.00  0.00    +0.000 A 
ENDROOT
BRANCH   1   9
ATOM      7  C   UNL     1       6.232   4.101  13.381  0.00  0.00    +0.000 A 
ATOM      8  C   UNL     1       5.717   4.163  14.701  0.00  0.00    +0.000 A 
ATOM      9  C   UNL     1       6.636   4.905  15.404  0.00  0.00    +0.000 A 
ATOM     10  O   UNL     1       7.605   5.321  14.541  0.00  0.00    +0.000 OA
ATOM     11  N   UNL     1       7.358   4.826  13.278  0.00  0.00    +0.000 NA
BRANCH   7  12
ATOM     12  C   UNL     1       5.710   3.295  12.284  0.00  0.00    +0.000 C 
ATOM     13  O   UNL     1       6.424   2.595  11.574  0.00  0.00    +0.000 OA
BRANCH  12  14
ATOM     14  O   UNL     1       4.377   3.503  12.069  0.00  0.00    +0.000 OA
BRANCH  14  16
ATOM     15  C   UNL     1       3.209   4.018  10.053  0.00  0.00    +0.000 C 
ATOM     16  C   UNL     1       3.847   2.913  10.879  0.00  0.00    +0.000 C 
ENDBRANCH  14  16
ENDBRANCH  12  14
ENDBRANCH   7  12
ENDBRANCH   1   9
BRANCH   5  17
ATOM     17  O   UNL     1       8.642   7.780  18.719  0.00  0.00    +0.000 OA
BRANCH  17  18
ATOM     18  C   UNL     1       8.207   9.036  18.190  0.00  0.00    +0.000 C 
BRANCH  18  19
ATOM     19  C   UNL     1       9.080  10.163  18.675  0.00  0.00    +0.000 A 
ATOM     20  C   UNL     1       9.194  10.395  20.056  0.00  0.00    +0.000 A 
ATOM     21  C   UNL     1       9.958  11.457  20.537  0.00  0.00    +0.000 A 
ATOM     22  C   UNL     1      10.608  12.305  19.642  0.00  0.00    +0.000 A 
ATOM     23  C   UNL     1      10.489  12.088  18.270  0.00  0.00    +0.000 A 
ATOM     24 CL   UNL     1      11.283  13.144  17.168  0.00  0.00    +0.000 Cl
ATOM     25  C   UNL     1       9.725  11.028  17.783  0.00  0.00    +0.000 A 
ENDBRANCH  18  19
ENDBRANCH  17  18
ENDBRANCH   5  17
TORSDOF 7
ENDMDL
MODEL 4
REMARK VINA RESULT:      -7.9      3.183      4.809
REMARK  Name = 
REMARK  8 active torsions:
REMARK  status: ('A' for Active; 'I' for Inactive)
REMARK    1  A    between atoms: C_1  and  C_2
REMARK    2  A    between atoms: C_2  and  O_3
REMARK    3  A    between atoms: O_3  and  C_4
REMARK    4  A    between atoms: C_4  and  C_6
REMARK    5  A    between atoms: C_8  and  C_9
REMARK    6  A    between atoms: C_13  and  O_14
REMARK    7  A    between atoms: O_14  and  C_15
REMARK    8  A    between atoms: C_15  and  C_16
REMARK                            x       y       z     vdW  Elec       q    Type
REMARK                         _______ _______ _______ _____ _____    ______ ____
ROOT
ATOM      1  C   UNL     1       3.224   3.948  18.122  0.00  0.00    +0.000 A 
ATOM      2  C   UNL     1       2.490   2.762  17.975  0.00  0.00    +0.000 A 
ATOM      3  C   UNL     1       1.330   2.545  18.716  0.00  0.00    +0.000 A 
ATOM      4  C   UNL     1       0.895   3.504  19.623  0.00  0.00    +0.000 A 
ATOM      5  C   UNL     1       1.638   4.671  19.821  0.00  0.00    +0.000 A 
ATOM      6  C   UNL     1       2.780   4.901  19.051  0.00  0.00    +0.000 A 
ENDROOT
BRANCH   1   9
ATOM      7  C   UNL     1       6.072   4.456  15.874  0.00  0.00    +0.000 A 
ATOM      8  C   UNL     1       4.660   4.368  15.976  0.00  0.00    +0.000 A 
ATOM      9  C   UNL     1       4.412   4.199  17.317  0.00  0.00    +0.000 A 
ATOM     10  O   UNL     1       5.599   4.253  17.985  0.00  0.00    +0.000 OA
ATOM     11  N   UNL     1       6.637   4.417  17.092  0.00  0.00    +0.000 NA
BRANCH   7  12
ATOM     12  C   UNL     1       6.852   4.481  14.644  0.00  0.00    +0.000 C 
ATOM     13  O   UNL     1       7.604   5.404  14.351  0.00  0.00    +0.000 OA
BRANCH  12  14
ATOM     14  O   UNL     1       6.561   3.433  13.817  0.00  0.00    +0.000 OA
BRANCH  14  16
ATOM     15  C   UNL     1       5.065   3.344  11.961  0.00  0.00    +0.000 C 
ATOM     16  C   UNL     1       6.450   3.757  12.429  0.00  0.00    +0.000 C 
ENDBRANCH  14  16
ENDBRANCH  12  14
ENDBRANCH   7  12
ENDBRANCH   1   9
BRANCH   5  17
ATOM     17  O   UNL     1       1.333   5.639  20.741  0.00  0.00    +0.000 OA
BRANCH  17  18
ATOM     18  C   UNL     1       2.194   6.780  20.696  0.00  0.00    +0.000 C 
BRANCH  18  19
ATOM     19  C   UNL     1       1.401   8.060  20.660  0.00  0.00    +0.000 A 
ATOM     20  C   UNL     1       1.403   8.834  19.487  0.00  0.00    +0.000 A 
ATOM     21  C   UNL     1       0.717  10.046  19.435  0.00  0.00    +0.000 A 
ATOM     22  C   UNL     1       0.029  10.502  20.558  0.00  0.00    +0.000 A 
ATOM     23  C   UNL     1       0.033   9.746  21.729  0.00  0.00    +0.000 A 
ATOM     24 CL   UNL     1      -0.808  10.318  23.117  0.00  0.00    +0.000 Cl
ATOM     25  C   UNL     1       0.719   8.533  21.788  0.00  0.00    +0.000 A 
ENDBRANCH  18  19
ENDBRANCH  17  18
ENDBRANCH   5  17
TORSDOF 7
ENDMDL
MODEL 5
REMARK VINA RESULT:      -7.9      3.971      5.392
REMARK  Name = 
REMARK  8 active torsions:
REMARK  status: ('A' for Active; 'I' for Inactive)
REMARK    1  A    between atoms: C_1  and  C_2
REMARK    2  A    between atoms: C_2  and  O_3
REMARK    3  A    between atoms: O_3  and  C_4
REMARK    4  A    between atoms: C_4  and  C_6
REMARK    5  A    between atoms: C_8  and  C_9
REMARK    6  A    between atoms: C_13  and  O_14
REMARK    7  A    between atoms: O_14  and  C_15
REMARK    8  A    between atoms: C_15  and  C_16
REMARK                            x       y       z     vdW  Elec       q    Type
REMARK                         _______ _______ _______ _____ _____    ______ ____
ROOT
ATOM      1  C   UNL     1       3.437   5.756  18.512  0.00  0.00    +0.000 A 
ATOM      2  C   UNL     1       3.142   4.587  19.229  0.00  0.00    +0.000 A 
ATOM      3  C   UNL     1       2.275   4.620  20.320  0.00  0.00    +0.000 A 
ATOM      4  C   UNL     1       1.701   5.822  20.716  0.00  0.00    +0.000 A 
ATOM      5  C   UNL     1       2.020   7.007  20.048  0.00  0.00    +0.000 A 
ATOM      6  C   UNL     1       2.861   6.965  18.933  0.00  0.00    +0.000 A 
ENDROOT
BRANCH   1   9
ATOM      7  C   UNL     1       5.766   5.443  15.702  0.00  0.00    +0.000 A 
ATOM      8  C   UNL     1       5.074   4.758  16.734  0.00  0.00    +0.000 A 
ATOM      9  C   UNL     1       4.308   5.721  17.345  0.00  0.00    +0.000 A 
ATOM     10  O   UNL     1       4.477   6.896  16.677  0.00  0.00    +0.000 OA
ATOM     11  N   UNL     1       5.382   6.729  15.649  0.00  0.00    +0.000 NA
BRANCH   7  12
ATOM     12  C   UNL     1       6.827   4.902  14.862  0.00  0.00    +0.000 C 
ATOM     13  O   UNL     1       7.852   5.523  14.602  0.00  0.00    +0.000 OA
BRANCH  12  14
ATOM     14  O   UNL     1       6.496   3.696  14.312  0.00  0.00    +0.000 OA
BRANCH  14  16
ATOM     15  C   UNL     1       6.406   3.179  11.985  0.00  0.00    +0.000 C 
ATOM     16  C   UNL     1       5.644   3.757  13.165  0.00  0.00    +0.000 C 
ENDBRANCH  14  16
ENDBRANCH  12  14
ENDBRANCH   7  12
ENDBRANCH   1   9
BRANCH   5  17
ATOM     17  O   UNL     1       1.566   8.248  20.407  0.00  0.00    +0.000 OA
BRANCH  17  18
ATOM     18  C   UNL     1       0.589   8.233  21.452  0.00  0.00    +0.000 C 
BRANCH  18  19
ATOM     19  C   UNL     1      -0.104   9.565  21.568  0.00  0.00    +0.000 A 
ATOM     20  C   UNL     1      -0.479  10.033  22.839  0.00  0.00    +0.000 A 
ATOM     21  C   UNL     1      -1.162  11.240  22.977  0.00  0.00    +0.000 A 
ATOM     22  C   UNL     1      -1.487  11.987  21.846  0.00  0.00    +0.000 A 
ATOM     23  C   UNL     1      -1.129  11.523  20.582  0.00  0.00    +0.000 A 
ATOM     24 CL   UNL     1      -1.541  12.443  19.188  0.00  0.00    +0.000 Cl
ATOM     25  C   UNL     1      -0.446  10.316  20.436  0.00  0.00    +0.000 A 
ENDBRANCH  18  19
ENDBRANCH  17  18
ENDBRANCH   5  17
TORSDOF 7
ENDMDL
MODEL 6
REMARK VINA RESULT:      -7.9      3.806      5.793
REMARK  Name = 
REMARK  8 active torsions:
REMARK  status: ('A' for Active; 'I' for Inactive)
REMARK    1  A    between atoms: C_1  and  C_2
REMARK    2  A    between atoms: C_2  and  O_3
REMARK    3  A    between atoms: O_3  and  C_4
REMARK    4  A    between atoms: C_4  and  C_6
REMARK    5  A    between atoms: C_8  and  C_9
REMARK    6  A    between atoms: C_13  and  O_14
REMARK    7  A    between atoms: O_14  and  C_15
REMARK    8  A    between atoms: C_15  and  C_16
REMARK                            x       y       z     vdW  Elec       q    Type
REMARK                         _______ _______ _______ _____ _____    ______ ____
ROOT
ATOM      1  C   UNL     1       3.457   4.574  19.525  0.00  0.00    +0.000 A 
ATOM      2  C   UNL     1       2.989   3.266  19.726  0.00  0.00    +0.000 A 
ATOM      3  C   UNL     1       1.748   3.036  20.317  0.00  0.00    +0.000 A 
ATOM      4  C   UNL     1       0.964   4.108  20.726  0.00  0.00    +0.000 A 
ATOM      5  C   UNL     1       1.431   5.417  20.581  0.00  0.00    +0.000 A 
ATOM      6  C   UNL     1       2.660   5.644  19.956  0.00  0.00    +0.000 A 
ENDROOT
BRANCH   1   9
ATOM      7  C   UNL     1       6.516   5.261  17.632  0.00  0.00    +0.000 A 
ATOM      8  C   UNL     1       5.146   5.585  17.803  0.00  0.00    +0.000 A 
ATOM      9  C   UNL     1       4.733   4.821  18.868  0.00  0.00    +0.000 A 
ATOM     10  O   UNL     1       5.808   4.134  19.349  0.00  0.00    +0.000 OA
ATOM     11  N   UNL     1       6.923   4.407  18.585  0.00  0.00    +0.000 NA
BRANCH   7  12
ATOM     12  C   UNL     1       7.376   5.685  16.534  0.00  0.00    +0.000 C 
ATOM     13  O   UNL     1       7.765   6.840  16.400  0.00  0.00    +0.000 OA
BRANCH  12  14
ATOM     14  O   UNL     1       7.593   4.689  15.624  0.00  0.00    +0.000 OA
BRANCH  14  16
ATOM     15  C   UNL     1       5.686   4.163  14.291  0.00  0.00    +0.000 C 
ATOM     16  C   UNL     1       7.015   4.899  14.334  0.00  0.00    +0.000 C 
ENDBRANCH  14  16
ENDBRANCH  12  14
ENDBRANCH   7  12
ENDBRANCH   1   9
BRANCH   5  17
ATOM     17  O   UNL     1       0.768   6.532  21.019  0.00  0.00    +0.000 OA
BRANCH  17  18
ATOM     18  C   UNL     1       1.544   7.732  20.968  0.00  0.00    +0.000 C 
BRANCH  18  19
ATOM     19  C   UNL     1       0.703   8.939  21.289  0.00  0.00    +0.000 A 
ATOM     20  C   UNL     1       0.347   9.190  22.625  0.00  0.00    +0.000 A 
ATOM     21  C   UNL     1      -0.468  10.273  22.951  0.00  0.00    +0.000 A 
ATOM     22  C   UNL     1      -0.943  11.111  21.944  0.00  0.00    +0.000 A 
ATOM     23  C   UNL     1      -0.604  10.861  20.615  0.00  0.00    +0.000 A 
ATOM     24 CL   UNL     1      -1.201  11.891  19.374  0.00  0.00    +0.000 Cl
ATOM     25  C   UNL     1       0.210   9.778  20.282  0.00  0.00    +0.000 A 
ENDBRANCH  18  19
ENDBRANCH  17  18
ENDBRANCH   5  17
TORSDOF 7
ENDMDL
MODEL 7
REMARK VINA RESULT:      -7.8      3.622      4.826
REMARK  Name = 
REMARK  8 active torsions:
REMARK  status: ('A' for Active; 'I' for Inactive)
REMARK    1  A    between atoms: C_1  and  C_2
REMARK    2  A    between atoms: C_2  and  O_3
REMARK    3  A    between atoms: O_3  and  C_4
REMARK    4  A    between atoms: C_4  and  C_6
REMARK    5  A    between atoms: C_8  and  C_9
REMARK    6  A    between atoms: C_13  and  O_14
REMARK    7  A    between atoms: O_14  and  C_15
REMARK    8  A    between atoms: C_15  and  C_16
REMARK                            x       y       z     vdW  Elec       q    Type
REMARK                         _______ _______ _______ _____ _____    ______ ____
ROOT
ATOM      1  C   UNL     1       4.177   5.400  18.277  0.00  0.00    +0.000 A 
ATOM      2  C   UNL     1       3.888   4.199  18.942  0.00  0.00    +0.000 A 
ATOM      3  C   UNL     1       2.916   4.152  19.940  0.00  0.00    +0.000 A 
ATOM      4  C   UNL     1       2.229   5.306  20.295  0.00  0.00    +0.000 A 
ATOM      5  C   UNL     1       2.534   6.524  19.681  0.00  0.00    +0.000 A 
ATOM      6  C   UNL     1       3.483   6.560  18.657  0.00  0.00    +0.000 A 
ENDROOT
BRANCH   1   9
ATOM      7  C   UNL     1       6.516   5.280  15.461  0.00  0.00    +0.000 A 
ATOM      8  C   UNL     1       5.193   5.016  15.898  0.00  0.00    +0.000 A 
ATOM      9  C   UNL     1       5.159   5.446  17.203  0.00  0.00    +0.000 A 
ATOM     10  O   UNL     1       6.368   5.997  17.507  0.00  0.00    +0.000 OA
ATOM     11  N   UNL     1       7.217   5.900  16.425  0.00  0.00    +0.000 NA
BRANCH   7  12
ATOM     12  C   UNL     1       7.112   4.865  14.197  0.00  0.00    +0.000 C 
ATOM     13  O   UNL     1       8.011   5.491  13.647  0.00  0.00    +0.000 OA
BRANCH  12  14
ATOM     14  O   UNL     1       6.478   3.785  13.650  0.00  0.00    +0.000 OA
BRANCH  14  16
ATOM     15  C   UNL     1       5.667   2.520  11.797  0.00  0.00    +0.000 C 
ATOM     16  C   UNL     1       6.495   3.721  12.222  0.00  0.00    +0.000 C 
ENDBRANCH  14  16
ENDBRANCH  12  14
ENDBRANCH   7  12
ENDBRANCH   1   9
BRANCH   5  17
ATOM     17  O   UNL     1       1.967   7.725  20.012  0.00  0.00    +0.000 OA
BRANCH  17  18
ATOM     18  C   UNL     1       1.196   7.696  21.216  0.00  0.00    +0.000 C 
BRANCH  18  19
ATOM     19  C   UNL     1       0.477   9.000  21.435  0.00  0.00    +0.000 A 
ATOM     20  C   UNL     1       0.061   9.344  22.733  0.00  0.00    +0.000 A 
ATOM     21  C   UNL     1      -0.646  10.522  22.963  0.00  0.00    +0.000 A 
ATOM     22  C   UNL     1      -0.954  11.366  21.897  0.00  0.00    +0.000 A 
ATOM     23  C   UNL     1      -0.555  11.026  20.606  0.00  0.00    +0.000 A 
ATOM     24 CL   UNL     1      -0.946  12.065  19.291  0.00  0.00    +0.000 Cl
ATOM     25  C   UNL     1       0.152   9.848  20.369  0.00  0.00    +0.000 A 
ENDBRANCH  18  19
ENDBRANCH  17  18
ENDBRANCH   5  17
TORSDOF 7
ENDMDL
MODEL 8
REMARK VINA RESULT:      -7.8      4.408      5.644
REMARK  Name = 
REMARK  8 active torsions:
REMARK  status: ('A' for Active; 'I' for Inactive)
REMARK    1  A    between atoms: C_1  and  C_2
REMARK    2  A    between atoms: C_2  and  O_3
REMARK    3  A    between atoms: O_3  and  C_4
REMARK    4  A    between atoms: C_4  and  C_6
REMARK    5  A    between atoms: C_8  and  C_9
REMARK    6  A    between atoms: C_13  and  O_14
REMARK    7  A    between atoms: O_14  and  C_15
REMARK    8  A    between atoms: C_15  and  C_16
REMARK                            x       y       z     vdW  Elec       q    Type
REMARK                         _______ _______ _______ _____ _____    ______ ____
ROOT
ATOM      1  C   UNL     1       3.358   6.648  18.130  0.00  0.00    +0.000 A 
ATOM      2  C   UNL     1       3.032   6.234  19.430  0.00  0.00    +0.000 A 
ATOM      3  C   UNL     1       2.151   6.975  20.214  0.00  0.00    +0.000 A 
ATOM      4  C   UNL     1       1.593   8.146  19.716  0.00  0.00    +0.000 A 
ATOM      5  C   UNL     1       1.942   8.604  18.443  0.00  0.00    +0.000 A 
ATOM      6  C   UNL     1       2.797   7.840  17.646  0.00  0.00    +0.000 A 
ENDROOT
BRANCH   1   9
ATOM      7  C   UNL     1       5.627   4.891  15.854  0.00  0.00    +0.000 A 
ATOM      8  C   UNL     1       5.302   6.132  16.458  0.00  0.00    +0.000 A 
ATOM      9  C   UNL     1       4.244   5.854  17.289  0.00  0.00    +0.000 A 
ATOM     10  O   UNL     1       3.996   4.515  17.239  0.00  0.00    +0.000 OA
ATOM     11  N   UNL     1       4.857   3.908  16.349  0.00  0.00    +0.000 NA
BRANCH   7  12
ATOM     12  C   UNL     1       6.579   4.676  14.771  0.00  0.00    +0.000 C 
ATOM     13  O   UNL     1       7.482   5.464  14.513  0.00  0.00    +0.000 OA
BRANCH  12  14
ATOM     14  O   UNL     1       6.277   3.576  14.019  0.00  0.00    +0.000 OA
BRANCH  14  16
ATOM     15  C   UNL     1       5.202   3.199  11.923  0.00  0.00    +0.000 C 
ATOM     16  C   UNL     1       6.449   3.731  12.608  0.00  0.00    +0.000 C 
ENDBRANCH  14  16
ENDBRANCH  12  14
ENDBRANCH   7  12
ENDBRANCH   1   9
BRANCH   5  17
ATOM     17  O   UNL     1       1.504   9.780  17.893  0.00  0.00    +0.000 OA
BRANCH  17  18
ATOM     18  C   UNL     1       0.812  10.632  18.810  0.00  0.00    +0.000 C 
BRANCH  18  19
ATOM     19  C   UNL     1      -0.662  10.676  18.505  0.00  0.00    +0.000 A 
ATOM     20  C   UNL     1      -1.164   9.913  17.438  0.00  0.00    +0.000 A 
ATOM     21  C   UNL     1      -2.515   9.966  17.101  0.00  0.00    +0.000 A 
ATOM     22  C   UNL     1      -3.378  10.790  17.821  0.00  0.00    +0.000 A 
ATOM     23  C   UNL     1      -2.885  11.560  18.874  0.00  0.00    +0.000 A 
ATOM     24 CL   UNL     1      -3.950  12.585  19.753  0.00  0.00    +0.000 Cl
ATOM     25  C   UNL     1      -1.533  11.512  19.215  0.00  0.00    +0.000 A 
ENDBRANCH  18  19
ENDBRANCH  17  18
ENDBRANCH   5  17
TORSDOF 7
ENDMDL
MODEL 9
REMARK VINA RESULT:      -7.7      1.955      2.553
REMARK  Name = 
REMARK  8 active torsions:
REMARK  status: ('A' for Active; 'I' for Inactive)
REMARK    1  A    between atoms: C_1  and  C_2
REMARK    2  A    between atoms: C_2  and  O_3
REMARK    3  A    between atoms: O_3  and  C_4
REMARK    4  A    between atoms: C_4  and  C_6
REMARK    5  A    between atoms: C_8  and  C_9
REMARK    6  A    between atoms: C_13  and  O_14
REMARK    7  A    between atoms: O_14  and  C_15
REMARK    8  A    between atoms: C_15  and  C_16
REMARK                            x       y       z     vdW  Elec       q    Type
REMARK                         _______ _______ _______ _____ _____    ______ ____
ROOT
ATOM      1  C   UNL     1       6.330   5.018  16.450  0.00  0.00    +0.000 A 
ATOM      2  C   UNL     1       7.424   5.786  16.878  0.00  0.00    +0.000 A 
ATOM      3  C   UNL     1       7.570   6.134  18.219  0.00  0.00    +0.000 A 
ATOM      4  C   UNL     1       6.621   5.731  19.149  0.00  0.00    +0.000 A 
ATOM      5  C   UNL     1       5.497   5.008  18.739  0.00  0.00    +0.000 A 
ATOM      6  C   UNL     1       5.373   4.630  17.400  0.00  0.00    +0.000 A 
ENDROOT
BRANCH   1   9
ATOM      7  C   UNL     1       5.792   3.808  13.035  0.00  0.00    +0.000 A 
ATOM      8  C   UNL     1       5.204   4.029  14.307  0.00  0.00    +0.000 A 
ATOM      9  C   UNL     1       6.196   4.614  15.058  0.00  0.00    +0.000 A 
ATOM     10  O   UNL     1       7.288   4.795  14.264  0.00  0.00    +0.000 OA
ATOM     11  N   UNL     1       7.042   4.298  13.001  0.00  0.00    +0.000 NA
BRANCH   7  12
ATOM     12  C   UNL     1       5.205   3.066  11.926  0.00  0.00    +0.000 C 
ATOM     13  O   UNL     1       5.832   2.239  11.273  0.00  0.00    +0.000 OA
BRANCH  12  14
ATOM     14  O   UNL     1       3.938   3.482  11.631  0.00  0.00    +0.000 OA
BRANCH  14  16
ATOM     15  C   UNL     1       2.979   4.338   9.621  0.00  0.00    +0.000 C 
ATOM     16  C   UNL     1       3.445   3.087  10.348  0.00  0.00    +0.000 C 
ENDBRANCH  14  16
ENDBRANCH  12  14
ENDBRANCH   7  12
ENDBRANCH   1   9
BRANCH   5  17
ATOM     17  O   UNL     1       4.472   4.629  19.564  0.00  0.00    +0.000 OA
BRANCH  17  18
ATOM     18  C   UNL     1       3.176   4.729  18.970  0.00  0.00    +0.000 C 
BRANCH  18  19
ATOM     19  C   UNL     1       2.645   6.136  19.053  0.00  0.00    +0.000 A 
ATOM     20  C   UNL     1       2.667   6.945  17.905  0.00  0.00    +0.000 A 
ATOM     21  C   UNL     1       2.225   8.266  17.958  0.00  0.00    +0.000 A 
ATOM     22  C   UNL     1       1.764   8.795  19.163  0.00  0.00    +0.000 A 
ATOM     23  C   UNL     1       1.751   8.001  20.309  0.00  0.00    +0.000 A 
ATOM     24 CL   UNL     1       1.193   8.661  21.796  0.00  0.00    +0.000 Cl
ATOM     25  C   UNL     1       2.193   6.680  20.262  0.00  0.00    +0.000 A 
ENDBRANCH  18  19
ENDBRANCH  17  18
ENDBRANCH   5  17
TORSDOF 7
ENDMDL
