MODEL 1
REMARK VINA RESULT:      -8.0      0.000      0.000
REMARK  Name = 
REMARK  9 active torsions:
REMARK  status: ('A' for Active; 'I' for Inactive)
REMARK    1  A    between atoms: C_1  and  C_2
REMARK    2  A    between atoms: C_2  and  C_3
REMARK    3  A    between atoms: C_2  and  O_4
REMARK    4  A    between atoms: O_4  and  C_5
REMARK    5  A    between atoms: C_11  and  C_12
REMARK    6  A    between atoms: C_14  and  N_15
REMARK    7  A    between atoms: C_17  and  O_18
REMARK    8  A    between atoms: C_19  and  O_20
REMARK    9  A    between atoms: C_21  and  C_22
REMARK                            x       y       z     vdW  Elec       q    Type
REMARK                         _______ _______ _______ _____ _____    ______ ____
ROOT
ATOM      1  C   UNL     1       1.860   8.297  19.350  0.00  0.00    +0.000 A 
ATOM      2  C   UNL     1       2.135   7.044  19.874  0.00  0.00    +0.000 A 
ATOM      3  C   UNL     1       2.914   6.186  19.131  0.00  0.00    +0.000 A 
ATOM      4  N   UNL     1       3.403   6.581  17.942  0.00  0.00    +0.000 NA
ATOM      5  C   UNL     1       3.068   7.802  17.502  0.00  0.00    +0.000 A 
ATOM      6  N   UNL     1       2.313   8.694  18.146  0.00  0.00    +0.000 NA
ENDROOT
BRANCH   1  13
ATOM      7  C   UNL     1      -1.635  11.393  18.344  0.00  0.00    +0.000 A 
ATOM      8  C   UNL     1      -2.056  12.020  19.514  0.00  0.00    +0.000 A 
ATOM      9  C   UNL     1      -1.463  11.746  20.750  0.00  0.00    +0.000 A 
ATOM     10  C   UNL     1      -0.439  10.800  20.771  0.00  0.00    +0.000 A 
ATOM     11  N   UNL     1       0.318  10.325  21.798  0.00  0.00    +0.000 N 
ATOM     12  N   UNL     1       1.208   9.392  21.444  0.00  0.00    +0.000 NA
ATOM     13  C   UNL     1       1.042   9.253  20.112  0.00  0.00    +0.000 A 
ATOM     14  C   UNL     1       0.010  10.134  19.638  0.00  0.00    +0.000 A 
ATOM     15  C   UNL     1      -0.597  10.444  18.398  0.00  0.00    +0.000 A 
ATOM     16  H   UNL     1       0.270  10.596  22.773  0.00  0.00    +0.000 HD
BRANCH   7  17
ATOM     17  O   UNL     1      -2.143  11.618  17.090  0.00  0.00    +0.000 OA
BRANCH  17  19
ATOM     18  C   UNL     1      -4.506  11.446  16.771  0.00  0.00    +0.000 C 
ATOM     19  C   UNL     1      -3.163  10.746  16.589  0.00  0.00    +0.000 C 
ATOM     20  C   UNL     1      -2.914  10.452  15.111  0.00  0.00    +0.000 C 
ENDBRANCH  17  19
ENDBRANCH   7  17
ENDBRANCH   1  13
BRANCH   3  21
ATOM     21  N   UNL     1       3.184   4.904  19.523  0.00  0.00    +0.000 N 
ATOM     22  C   UNL     1       4.572   4.451  19.595  0.00  0.00    +0.000 C 
ATOM     23  C   UNL     1       4.422   2.931  19.498  0.00  0.00    +0.000 C 
ATOM     24  C   UNL     1       3.126   2.637  20.275  0.00  0.00    +0.000 C 
ATOM     25  C   UNL     1       2.282   3.946  20.177  0.00  0.00    +0.000 C 
ATOM     26  C   UNL     1       1.007   3.699  19.375  0.00  0.00    +0.000 C 
BRANCH  23  27
ATOM     27  O   UNL     1       4.272   2.553  18.123  0.00  0.00    +0.000 OA
ATOM     28  H   UNL     1       4.739   1.700  18.022  0.00  0.00    +0.000 HD
ENDBRANCH  23  27
BRANCH  24  29
ATOM     29  O   UNL     1       3.412   2.314  21.639  0.00  0.00    +0.000 OA
ATOM     30  H   UNL     1       3.751   3.111  22.078  0.00  0.00    +0.000 HD
ENDBRANCH  24  29
ENDBRANCH   3  21
TORSDOF 6
ENDMDL
MODEL 2
REMARK VINA RESULT:      -7.8      0.798      1.636
REMARK  Name = 
REMARK  9 active torsions:
REMARK  status: ('A' for Active; 'I' for Inactive)
REMARK    1  A    between atoms: C_1  and  C_2
REMARK    2  A    between atoms: C_2  and  C_3
REMARK    3  A    between atoms: C_2  and  O_4
REMARK    4  A    between atoms: O_4  and  C_5
REMARK    5  A    between atoms: C_11  and  C_12
REMARK    6  A    between atoms: C_14  and  N_15
REMARK    7  A    between atoms: C_17  and  O_18
REMARK    8  A    between atoms: C_19  and  O_20
REMARK    9  A    between atoms: C_21  and  C_22
REMARK                            x       y       z     vdW  Elec       q    Type
REMARK                         _______ _______ _______ _____ _____    ______ ____
ROOT
ATOM      1  C   UNL     1       1.685   8.134  19.672  0.00  0.00    +0.000 A 
ATOM      2  C   UNL     1       1.731   6.797  20.035  0.00  0.00    +0.000 A 
ATOM      3  C   UNL     1       2.420   5.927  19.221  0.00  0.00    +0.000 A 
ATOM      4  N   UNL     1       3.043   6.386  18.121  0.00  0.00    +0.000 NA
ATOM      5  C   UNL     1       2.928   7.690  17.834  0.00  0.00    +0.000 A 
ATOM      6  N   UNL     1       2.274   8.602  18.556  0.00  0.00    +0.000 NA
ENDROOT
BRANCH   1  13
ATOM      7  C   UNL     1      -1.604  11.526  18.977  0.00  0.00    +0.000 A 
ATOM      8  C   UNL     1      -1.931  12.118  20.194  0.00  0.00    +0.000 A 
ATOM      9  C   UNL     1      -1.313  11.735  21.388  0.00  0.00    +0.000 A 
ATOM     10  C   UNL     1      -0.363  10.717  21.316  0.00  0.00    +0.000 A 
ATOM     11  N   UNL     1       0.396  10.133  22.285  0.00  0.00    +0.000 N 
ATOM     12  N   UNL     1       1.199   9.158  21.846  0.00  0.00    +0.000 NA
ATOM     13  C   UNL     1       0.971   9.104  20.517  0.00  0.00    +0.000 A 
ATOM     14  C   UNL     1      -0.010  10.082  20.133  0.00  0.00    +0.000 A 
ATOM     15  C   UNL     1      -0.639  10.503  18.938  0.00  0.00    +0.000 A 
ATOM     16  H   UNL     1       0.406  10.354  23.274  0.00  0.00    +0.000 HD
BRANCH   7  17
ATOM     17  O   UNL     1      -2.142  11.855  17.759  0.00  0.00    +0.000 OA
BRANCH  17  19
ATOM     18  C   UNL     1      -4.472  11.564  17.310  0.00  0.00    +0.000 C 
ATOM     19  C   UNL     1      -3.081  10.959  17.151  0.00  0.00    +0.000 C 
ATOM     20  C   UNL     1      -2.745  10.783  15.672  0.00  0.00    +0.000 C 
ENDBRANCH  17  19
ENDBRANCH   7  17
ENDBRANCH   1  13
BRANCH   3  21
ATOM     21  N   UNL     1       2.465   4.579  19.448  0.00  0.00    +0.000 N 
ATOM     22  C   UNL     1       1.290   3.901  19.991  0.00  0.00    +0.000 C 
ATOM     23  C   UNL     1       1.898   2.637  20.603  0.00  0.00    +0.000 C 
ATOM     24  C   UNL     1       3.034   2.265  19.632  0.00  0.00    +0.000 C 
ATOM     25  C   UNL     1       3.455   3.609  18.958  0.00  0.00    +0.000 C 
ATOM     26  C   UNL     1       4.883   3.977  19.353  0.00  0.00    +0.000 C 
BRANCH  23  27
ATOM     27  O   UNL     1       2.433   2.944  21.897  0.00  0.00    +0.000 OA
ATOM     28  H   UNL     1       2.226   2.177  22.467  0.00  0.00    +0.000 HD
ENDBRANCH  23  27
BRANCH  24  29
ATOM     29  O   UNL     1       2.580   1.324  18.654  0.00  0.00    +0.000 OA
ATOM     30  H   UNL     1       2.733   1.700  17.772  0.00  0.00    +0.000 HD
ENDBRANCH  24  29
ENDBRANCH   3  21
TORSDOF 6
ENDMDL
MODEL 3
REMARK VINA RESULT:      -7.7      1.011      1.121
REMARK  Name = 
REMARK  9 active torsions:
REMARK  status: ('A' for Active; 'I' for Inactive)
REMARK    1  A    between atoms: C_1  and  C_2
REMARK    2  A    between atoms: C_2  and  C_3
REMARK    3  A    between atoms: C_2  and  O_4
REMARK    4  A    between atoms: O_4  and  C_5
REMARK    5  A    between atoms: C_11  and  C_12
REMARK    6  A    between atoms: C_14  and  N_15
REMARK    7  A    between atoms: C_17  and  O_18
REMARK    8  A    between atoms: C_19  and  O_20
REMARK    9  A    between atoms: C_21  and  C_22
REMARK                            x       y       z     vdW  Elec       q    Type
REMARK                         _______ _______ _______ _____ _____    ______ ____
ROOT
ATOM      1  C   UNL     1       2.233   7.861  19.080  0.00  0.00    +0.000 A 
ATOM      2  C   UNL     1       2.458   6.537  19.421  0.00  0.00    +0.000 A 
ATOM      3  C   UNL     1       3.230   5.772  18.578  0.00  0.00    +0.000 A 
ATOM      4  N   UNL     1       3.760   6.319  17.470  0.00  0.00    +0.000 NA
ATOM      5  C   UNL     1       3.473   7.601  17.205  0.00  0.00    +0.000 A 
ATOM      6  N   UNL     1       2.728   8.414  17.957  0.00  0.00    +0.000 NA
ENDROOT
BRANCH   1  13
ATOM      7  C   UNL     1      -1.287  11.033  18.479  0.00  0.00    +0.000 A 
ATOM      8  C   UNL     1      -1.691  11.525  19.717  0.00  0.00    +0.000 A 
ATOM      9  C   UNL     1      -1.078  11.118  20.906  0.00  0.00    +0.000 A 
ATOM     10  C   UNL     1      -0.052  10.180  20.805  0.00  0.00    +0.000 A 
ATOM     11  N   UNL     1       0.723   9.597  21.762  0.00  0.00    +0.000 N 
ATOM     12  N   UNL     1       1.611   8.714  21.293  0.00  0.00    +0.000 NA
ATOM     13  C   UNL     1       1.424   8.723  19.956  0.00  0.00    +0.000 A 
ATOM     14  C   UNL     1       0.382   9.646  19.599  0.00  0.00    +0.000 A 
ATOM     15  C   UNL     1      -0.245  10.090  18.411  0.00  0.00    +0.000 A 
ATOM     16  H   UNL     1       0.690   9.759  22.762  0.00  0.00    +0.000 HD
BRANCH   7  17
ATOM     17  O   UNL     1      -1.815  11.394  17.265  0.00  0.00    +0.000 OA
BRANCH  17  19
ATOM     18  C   UNL     1      -4.192  11.501  17.031  0.00  0.00    +0.000 C 
ATOM     19  C   UNL     1      -2.942  10.670  16.757  0.00  0.00    +0.000 C 
ATOM     20  C   UNL     1      -2.776  10.439  15.257  0.00  0.00    +0.000 C 
ENDBRANCH  17  19
ENDBRANCH   7  17
ENDBRANCH   1  13
BRANCH   3  21
ATOM     21  N   UNL     1       3.452   4.438  18.784  0.00  0.00    +0.000 N 
ATOM     22  C   UNL     1       3.909   3.605  17.674  0.00  0.00    +0.000 C 
ATOM     23  C   UNL     1       3.494   2.203  18.129  0.00  0.00    +0.000 C 
ATOM     24  C   UNL     1       3.717   2.227  19.652  0.00  0.00    +0.000 C 
ATOM     25  C   UNL     1       3.576   3.726  20.064  0.00  0.00    +0.000 C 
ATOM     26  C   UNL     1       2.357   3.918  20.963  0.00  0.00    +0.000 C 
BRANCH  23  27
ATOM     27  O   UNL     1       2.106   1.998  17.834  0.00  0.00    +0.000 OA
ATOM     28  H   UNL     1       2.068   1.244  17.212  0.00  0.00    +0.000 HD
ENDBRANCH  23  27
BRANCH  24  29
ATOM     29  O   UNL     1       5.015   1.725  19.984  0.00  0.00    +0.000 OA
ATOM     30  H   UNL     1       5.605   1.876  19.228  0.00  0.00    +0.000 HD
ENDBRANCH  24  29
ENDBRANCH   3  21
TORSDOF 6
ENDMDL
MODEL 4
REMARK VINA RESULT:      -7.6      1.106      1.232
REMARK  Name = 
REMARK  9 active torsions:
REMARK  status: ('A' for Active; 'I' for Inactive)
REMARK    1  A    between atoms: C_1  and  C_2
REMARK    2  A    between atoms: C_2  and  C_3
REMARK    3  A    between atoms: C_2  and  O_4
REMARK    4  A    between atoms: O_4  and  C_5
REMARK    5  A    between atoms: C_11  and  C_12
REMARK    6  A    between atoms: C_14  and  N_15
REMARK    7  A    between atoms: C_17  and  O_18
REMARK    8  A    between atoms: C_19  and  O_20
REMARK    9  A    between atoms: C_21  and  C_22
REMARK                            x       y       z     vdW  Elec       q    Type
REMARK                         _______ _______ _______ _____ _____    ______ ____
ROOT
ATOM      1  C   UNL     1       1.999   8.020  19.334  0.00  0.00    +0.000 A 
ATOM      2  C   UNL     1       2.063   6.670  19.639  0.00  0.00    +0.000 A 
ATOM      3  C   UNL     1       2.813   5.854  18.822  0.00  0.00    +0.000 A 
ATOM      4  N   UNL     1       3.475   6.378  17.775  0.00  0.00    +0.000 NA
ATOM      5  C   UNL     1       3.338   7.690  17.541  0.00  0.00    +0.000 A 
ATOM      6  N   UNL     1       2.627   8.552  18.270  0.00  0.00    +0.000 NA
ENDROOT
BRANCH   1  13
ATOM      7  C   UNL     1      -1.426  11.276  18.643  0.00  0.00    +0.000 A 
ATOM      8  C   UNL     1      -1.810  11.819  19.867  0.00  0.00    +0.000 A 
ATOM      9  C   UNL     1      -1.205  11.432  21.066  0.00  0.00    +0.000 A 
ATOM     10  C   UNL     1      -0.207  10.460  20.992  0.00  0.00    +0.000 A 
ATOM     11  N   UNL     1       0.554   9.885  21.964  0.00  0.00    +0.000 N 
ATOM     12  N   UNL     1       1.412   8.961  21.521  0.00  0.00    +0.000 NA
ATOM     13  C   UNL     1       1.220   8.933  20.185  0.00  0.00    +0.000 A 
ATOM     14  C   UNL     1       0.205   9.875  19.802  0.00  0.00    +0.000 A 
ATOM     15  C   UNL     1      -0.414  10.300  18.602  0.00  0.00    +0.000 A 
ATOM     16  H   UNL     1       0.529  10.079  22.959  0.00  0.00    +0.000 HD
BRANCH   7  17
ATOM     17  O   UNL     1      -1.948  11.614  17.420  0.00  0.00    +0.000 OA
BRANCH  17  19
ATOM     18  C   UNL     1      -4.319  11.566  17.125  0.00  0.00    +0.000 C 
ATOM     19  C   UNL     1      -3.011  10.822  16.878  0.00  0.00    +0.000 C 
ATOM     20  C   UNL     1      -2.791  10.615  15.381  0.00  0.00    +0.000 C 
ENDBRANCH  17  19
ENDBRANCH   7  17
ENDBRANCH   1  13
BRANCH   3  21
ATOM     21  N   UNL     1       2.884   4.499  18.992  0.00  0.00    +0.000 N 
ATOM     22  C   UNL     1       3.071   3.951  20.334  0.00  0.00    +0.000 C 
ATOM     23  C   UNL     1       3.648   2.564  20.040  0.00  0.00    +0.000 C 
ATOM     24  C   UNL     1       2.913   2.121  18.762  0.00  0.00    +0.000 C 
ATOM     25  C   UNL     1       2.512   3.445  18.038  0.00  0.00    +0.000 C 
ATOM     26  C   UNL     1       3.252   3.569  16.709  0.00  0.00    +0.000 C 
BRANCH  23  27
ATOM     27  O   UNL     1       5.055   2.676  19.790  0.00  0.00    +0.000 OA
ATOM     28  H   UNL     1       5.412   1.767  19.824  0.00  0.00    +0.000 HD
ENDBRANCH  23  27
BRANCH  24  29
ATOM     29  O   UNL     1       1.755   1.343  19.084  0.00  0.00    +0.000 OA
ATOM     30  H   UNL     1       1.034   1.950  19.313  0.00  0.00    +0.000 HD
ENDBRANCH  24  29
ENDBRANCH   3  21
TORSDOF 6
ENDMDL
MODEL 5
REMARK VINA RESULT:      -7.5      2.943      8.870
REMARK  Name = 
REMARK  9 active torsions:
REMARK  status: ('A' for Active; 'I' for Inactive)
REMARK    1  A    between atoms: C_1  and  C_2
REMARK    2  A    between atoms: C_2  and  C_3
REMARK    3  A    between atoms: C_2  and  O_4
REMARK    4  A    between atoms: O_4  and  C_5
REMARK    5  A    between atoms: C_11  and  C_12
REMARK    6  A    between atoms: C_14  and  N_15
REMARK    7  A    between atoms: C_17  and  O_18
REMARK    8  A    between atoms: C_19  and  O_20
REMARK    9  A    between atoms: C_21  and  C_22
REMARK                            x       y       z     vdW  Elec       q    Type
REMARK                         _______ _______ _______ _____ _____    ______ ____
ROOT
ATOM      1  C   UNL     1       0.225  10.184  21.028  0.00  0.00    +0.000 A 
ATOM      2  C   UNL     1      -0.520  11.352  21.073  0.00  0.00    +0.000 A 
ATOM      3  C   UNL     1      -1.158  11.670  22.250  0.00  0.00    +0.000 A 
ATOM      4  N   UNL     1      -1.031  10.868  23.321  0.00  0.00    +0.000 NA
ATOM      5  C   UNL     1      -0.310   9.747  23.182  0.00  0.00    +0.000 A 
ATOM      6  N   UNL     1       0.333   9.353  22.081  0.00  0.00    +0.000 NA
ENDROOT
BRANCH   1  13
ATOM      7  C   UNL     1       2.638   6.362  19.485  0.00  0.00    +0.000 A 
ATOM      8  C   UNL     1       3.073   6.579  18.180  0.00  0.00    +0.000 A 
ATOM      9  C   UNL     1       2.823   7.780  17.510  0.00  0.00    +0.000 A 
ATOM     10  C   UNL     1       2.100   8.754  18.197  0.00  0.00    +0.000 A 
ATOM     11  N   UNL     1       1.703  10.002  17.823  0.00  0.00    +0.000 N 
ATOM     12  N   UNL     1       0.997  10.659  18.750  0.00  0.00    +0.000 NA
ATOM     13  C   UNL     1       0.935   9.808  19.796  0.00  0.00    +0.000 A 
ATOM     14  C   UNL     1       1.629   8.586  19.493  0.00  0.00    +0.000 A 
ATOM     15  C   UNL     1       1.913   7.367  20.152  0.00  0.00    +0.000 A 
ATOM     16  H   UNL     1       1.880  10.464  16.939  0.00  0.00    +0.000 HD
BRANCH   7  17
ATOM     17  O   UNL     1       2.859   5.227  20.222  0.00  0.00    +0.000 OA
BRANCH  17  19
ATOM     18  C   UNL     1       1.117   3.775  19.467  0.00  0.00    +0.000 C 
ATOM     19  C   UNL     1       1.733   4.467  20.679  0.00  0.00    +0.000 C 
ATOM     20  C   UNL     1       2.187   3.434  21.707  0.00  0.00    +0.000 C 
ENDBRANCH  17  19
ENDBRANCH   7  17
ENDBRANCH   1  13
BRANCH   3  21
ATOM     21  N   UNL     1      -1.975  12.759  22.378  0.00  0.00    +0.000 N 
ATOM     22  C   UNL     1      -3.371  12.664  21.956  0.00  0.00    +0.000 C 
ATOM     23  C   UNL     1      -3.741  14.132  21.726  0.00  0.00    +0.000 C 
ATOM     24  C   UNL     1      -2.972  14.884  22.827  0.00  0.00    +0.000 C 
ATOM     25  C   UNL     1      -1.742  13.982  23.159  0.00  0.00    +0.000 C 
ATOM     26  C   UNL     1      -0.445  14.687  22.772  0.00  0.00    +0.000 C 
BRANCH  23  27
ATOM     27  O   UNL     1      -3.281  14.542  20.432  0.00  0.00    +0.000 OA
ATOM     28  H   UNL     1      -3.581  13.855  19.804  0.00  0.00    +0.000 HD
ENDBRANCH  23  27
BRANCH  24  29
ATOM     29  O   UNL     1      -3.794  15.073  23.983  0.00  0.00    +0.000 OA
ATOM     30  H   UNL     1      -3.633  15.965  24.332  0.00  0.00    +0.000 HD
ENDBRANCH  24  29
ENDBRANCH   3  21
TORSDOF 6
ENDMDL
MODEL 6
REMARK VINA RESULT:      -7.4      3.152      8.852
REMARK  Name = 
REMARK  9 active torsions:
REMARK  status: ('A' for Active; 'I' for Inactive)
REMARK    1  A    between atoms: C_1  and  C_2
REMARK    2  A    between atoms: C_2  and  C_3
REMARK    3  A    between atoms: C_2  and  O_4
REMARK    4  A    between atoms: O_4  and  C_5
REMARK    5  A    between atoms: C_11  and  C_12
REMARK    6  A    between atoms: C_14  and  N_15
REMARK    7  A    between atoms: C_17  and  O_18
REMARK    8  A    between atoms: C_19  and  O_20
REMARK    9  A    between atoms: C_21  and  C_22
REMARK                            x       y       z     vdW  Elec       q    Type
REMARK                         _______ _______ _______ _____ _____    ______ ____
ROOT
ATOM      1  C   UNL     1       0.342  10.141  21.008  0.00  0.00    +0.000 A 
ATOM      2  C   UNL     1      -0.074  11.451  21.184  0.00  0.00    +0.000 A 
ATOM      3  C   UNL     1      -0.703  11.781  22.363  0.00  0.00    +0.000 A 
ATOM      4  N   UNL     1      -0.879  10.847  23.314  0.00  0.00    +0.000 NA
ATOM      5  C   UNL     1      -0.466   9.599  23.051  0.00  0.00    +0.000 A 
ATOM      6  N   UNL     1       0.141   9.187  21.937  0.00  0.00    +0.000 NA
ENDROOT
BRANCH   1  13
ATOM      7  C   UNL     1       2.675   6.270  19.465  0.00  0.00    +0.000 A 
ATOM      8  C   UNL     1       3.096   6.469  18.152  0.00  0.00    +0.000 A 
ATOM      9  C   UNL     1       2.855   7.668  17.476  0.00  0.00    +0.000 A 
ATOM     10  C   UNL     1       2.156   8.659  18.165  0.00  0.00    +0.000 A 
ATOM     11  N   UNL     1       1.773   9.910  17.786  0.00  0.00    +0.000 N 
ATOM     12  N   UNL     1       1.090  10.585  18.716  0.00  0.00    +0.000 NA
ATOM     13  C   UNL     1       1.030   9.744  19.770  0.00  0.00    +0.000 A 
ATOM     14  C   UNL     1       1.701   8.509  19.469  0.00  0.00    +0.000 A 
ATOM     15  C   UNL     1       1.974   7.291  20.133  0.00  0.00    +0.000 A 
ATOM     16  H   UNL     1       1.945  10.361  16.895  0.00  0.00    +0.000 HD
BRANCH   7  17
ATOM     17  O   UNL     1       2.888   5.137  20.209  0.00  0.00    +0.000 OA
BRANCH  17  19
ATOM     18  C   UNL     1       1.098   3.720  19.501  0.00  0.00    +0.000 C 
ATOM     19  C   UNL     1       1.757   4.404  20.695  0.00  0.00    +0.000 C 
ATOM     20  C   UNL     1       2.213   3.366  21.717  0.00  0.00    +0.000 C 
ENDBRANCH  17  19
ENDBRANCH   7  17
ENDBRANCH   1  13
BRANCH   3  21
ATOM     21  N   UNL     1      -1.216  13.025  22.606  0.00  0.00    +0.000 N 
ATOM     22  C   UNL     1      -0.335  14.190  22.549  0.00  0.00    +0.000 C 
ATOM     23  C   UNL     1      -1.097  15.214  23.393  0.00  0.00    +0.000 C 
ATOM     24  C   UNL     1      -2.576  14.934  23.068  0.00  0.00    +0.000 C 
ATOM     25  C   UNL     1      -2.627  13.432  22.647  0.00  0.00    +0.000 C 
ATOM     26  C   UNL     1      -3.441  12.625  23.656  0.00  0.00    +0.000 C 
BRANCH  23  27
ATOM     27  O   UNL     1      -0.841  14.972  24.782  0.00  0.00    +0.000 OA
ATOM     28  H   UNL     1       0.093  15.218  24.935  0.00  0.00    +0.000 HD
ENDBRANCH  23  27
BRANCH  24  29
ATOM     29  O   UNL     1      -3.032  15.779  22.006  0.00  0.00    +0.000 OA
ATOM     30  H   UNL     1      -2.478  15.615  21.226  0.00  0.00    +0.000 HD
ENDBRANCH  24  29
ENDBRANCH   3  21
TORSDOF 6
ENDMDL
MODEL 7
REMARK VINA RESULT:      -7.4      2.681      2.980
REMARK  Name = 
REMARK  9 active torsions:
REMARK  status: ('A' for Active; 'I' for Inactive)
REMARK    1  A    between atoms: C_1  and  C_2
REMARK    2  A    between atoms: C_2  and  C_3
REMARK    3  A    between atoms: C_2  and  O_4
REMARK    4  A    between atoms: O_4  and  C_5
REMARK    5  A    between atoms: C_11  and  C_12
REMARK    6  A    between atoms: C_14  and  N_15
REMARK    7  A    between atoms: C_17  and  O_18
REMARK    8  A    between atoms: C_19  and  O_20
REMARK    9  A    between atoms: C_21  and  C_22
REMARK                            x       y       z     vdW  Elec       q    Type
REMARK                         _______ _______ _______ _____ _____    ______ ____
ROOT
ATOM      1  C   UNL     1       1.368   8.518  19.926  0.00  0.00    +0.000 A 
ATOM      2  C   UNL     1       1.982   7.284  20.062  0.00  0.00    +0.000 A 
ATOM      3  C   UNL     1       2.761   6.827  19.023  0.00  0.00    +0.000 A 
ATOM      4  N   UNL     1       2.925   7.583  17.923  0.00  0.00    +0.000 NA
ATOM      5  C   UNL     1       2.275   8.754  17.866  0.00  0.00    +0.000 A 
ATOM      6  N   UNL     1       1.495   9.271  18.817  0.00  0.00    +0.000 NA
ENDROOT
BRANCH   1  13
ATOM      7  C   UNL     1       0.071  12.858  21.440  0.00  0.00    +0.000 A 
ATOM      8  C   UNL     1      -0.780  12.737  22.536  0.00  0.00    +0.000 A 
ATOM      9  C   UNL     1      -1.122  11.490  23.066  0.00  0.00    +0.000 A 
ATOM     10  C   UNL     1      -0.591  10.363  22.441  0.00  0.00    +0.000 A 
ATOM     11  N   UNL     1      -0.737   9.036  22.715  0.00  0.00    +0.000 N 
ATOM     12  N   UNL     1      -0.084   8.224  21.879  0.00  0.00    +0.000 NA
ATOM     13  C   UNL     1       0.537   9.054  21.014  0.00  0.00    +0.000 A 
ATOM     14  C   UNL     1       0.249  10.425  21.337  0.00  0.00    +0.000 A 
ATOM     15  C   UNL     1       0.593  11.701  20.833  0.00  0.00    +0.000 A 
ATOM     16  H   UNL     1      -1.278   8.620  23.464  0.00  0.00    +0.000 HD
BRANCH   7  17
ATOM     17  O   UNL     1       0.477  14.038  20.871  0.00  0.00    +0.000 OA
BRANCH  17  19
ATOM     18  C   UNL     1      -0.130  14.730  18.664  0.00  0.00    +0.000 C 
ATOM     19  C   UNL     1       0.930  14.032  19.511  0.00  0.00    +0.000 C 
ATOM     20  C   UNL     1       2.263  14.768  19.406  0.00  0.00    +0.000 C 
ENDBRANCH  17  19
ENDBRANCH   7  17
ENDBRANCH   1  13
BRANCH   3  21
ATOM     21  N   UNL     1       3.350   5.593  19.027  0.00  0.00    +0.000 N 
ATOM     22  C   UNL     1       4.775   5.478  19.332  0.00  0.00    +0.000 C 
ATOM     23  C   UNL     1       5.134   4.131  18.699  0.00  0.00    +0.000 C 
ATOM     24  C   UNL     1       3.884   3.265  18.935  0.00  0.00    +0.000 C 
ATOM     25  C   UNL     1       2.699   4.275  19.044  0.00  0.00    +0.000 C 
ATOM     26  C   UNL     1       1.730   4.085  17.879  0.00  0.00    +0.000 C 
BRANCH  23  27
ATOM     27  O   UNL     1       5.355   4.310  17.294  0.00  0.00    +0.000 OA
ATOM     28  H   UNL     1       6.319   4.219  17.155  0.00  0.00    +0.000 HD
ENDBRANCH  23  27
BRANCH  24  29
ATOM     29  O   UNL     1       4.015   2.500  20.137  0.00  0.00    +0.000 OA
ATOM     30  H   UNL     1       3.127   2.245  20.436  0.00  0.00    +0.000 HD
ENDBRANCH  24  29
ENDBRANCH   3  21
TORSDOF 6
ENDMDL
MODEL 8
REMARK VINA RESULT:      -7.2      2.808      8.238
REMARK  Name = 
REMARK  9 active torsions:
REMARK  status: ('A' for Active; 'I' for Inactive)
REMARK    1  A    between atoms: C_1  and  C_2
REMARK    2  A    between atoms: C_2  and  C_3
REMARK    3  A    between atoms: C_2  and  O_4
REMARK    4  A    between atoms: O_4  and  C_5
REMARK    5  A    between atoms: C_11  and  C_12
REMARK    6  A    between atoms: C_14  and  N_15
REMARK    7  A    between atoms: C_17  and  O_18
REMARK    8  A    between atoms: C_19  and  O_20
REMARK    9  A    between atoms: C_21  and  C_22
REMARK                            x       y       z     vdW  Elec       q    Type
REMARK                         _______ _______ _______ _____ _____    ______ ____
ROOT
ATOM      1  C   UNL     1       1.883   8.055  19.384  0.00  0.00    +0.000 A 
ATOM      2  C   UNL     1       1.121   8.817  20.255  0.00  0.00    +0.000 A 
ATOM      3  C   UNL     1       0.789  10.098  19.876  0.00  0.00    +0.000 A 
ATOM      4  N   UNL     1       1.185  10.569  18.681  0.00  0.00    +0.000 NA
ATOM      5  C   UNL     1       1.938   9.771  17.911  0.00  0.00    +0.000 A 
ATOM      6  N   UNL     1       2.316   8.525  18.199  0.00  0.00    +0.000 NA
ENDROOT
BRANCH   1  13
ATOM      7  C   UNL     1       4.239   4.477  17.271  0.00  0.00    +0.000 A 
ATOM      8  C   UNL     1       4.302   3.385  18.133  0.00  0.00    +0.000 A 
ATOM      9  C   UNL     1       3.707   3.410  19.397  0.00  0.00    +0.000 A 
ATOM     10  C   UNL     1       3.058   4.585  19.774  0.00  0.00    +0.000 A 
ATOM     11  N   UNL     1       2.397   4.914  20.919  0.00  0.00    +0.000 N 
ATOM     12  N   UNL     1       1.910   6.158  20.938  0.00  0.00    +0.000 NA
ATOM     13  C   UNL     1       2.253   6.675  19.739  0.00  0.00    +0.000 A 
ATOM     14  C   UNL     1       2.978   5.709  18.961  0.00  0.00    +0.000 A 
ATOM     15  C   UNL     1       3.575   5.648  17.680  0.00  0.00    +0.000 A 
ATOM     16  H   UNL     1       2.250   4.328  21.732  0.00  0.00    +0.000 HD
BRANCH   7  17
ATOM     17  O   UNL     1       4.773   4.531  16.009  0.00  0.00    +0.000 OA
BRANCH  17  19
ATOM     18  C   UNL     1       6.291   3.929  14.263  0.00  0.00    +0.000 C 
ATOM     19  C   UNL     1       6.047   3.921  15.769  0.00  0.00    +0.000 C 
ATOM     20  C   UNL     1       7.141   4.706  16.489  0.00  0.00    +0.000 C 
ENDBRANCH  17  19
ENDBRANCH   7  17
ENDBRANCH   1  13
BRANCH   3  21
ATOM     21  N   UNL     1       0.104  10.956  20.691  0.00  0.00    +0.000 N 
ATOM     22  C   UNL     1      -0.149  12.324  20.244  0.00  0.00    +0.000 C 
ATOM     23  C   UNL     1      -0.388  13.059  21.565  0.00  0.00    +0.000 C 
ATOM     24  C   UNL     1      -1.134  12.027  22.432  0.00  0.00    +0.000 C 
ATOM     25  C   UNL     1      -0.695  10.634  21.882  0.00  0.00    +0.000 C 
ATOM     26  C   UNL     1       0.105   9.874  22.937  0.00  0.00    +0.000 C 
BRANCH  23  27
ATOM     27  O   UNL     1       0.873  13.388  22.162  0.00  0.00    +0.000 OA
ATOM     28  H   UNL     1       0.880  12.960  23.041  0.00  0.00    +0.000 HD
ENDBRANCH  23  27
BRANCH  24  29
ATOM     29  O   UNL     1      -2.551  12.198  22.320  0.00  0.00    +0.000 OA
ATOM     30  H   UNL     1      -2.730  12.782  21.565  0.00  0.00    +0.000 HD
ENDBRANCH  24  29
ENDBRANCH   3  21
TORSDOF 6
ENDMDL
MODEL 9
REMARK VINA RESULT:      -7.2      1.778      8.358
REMARK  Name = 
REMARK  9 active torsions:
REMARK  status: ('A' for Active; 'I' for Inactive)
REMARK    1  A    between atoms: C_1  and  C_2
REMARK    2  A    between atoms: C_2  and  C_3
REMARK    3  A    between atoms: C_2  and  O_4
REMARK    4  A    between atoms: O_4  and  C_5
REMARK    5  A    between atoms: C_11  and  C_12
REMARK    6  A    between atoms: C_14  and  N_15
REMARK    7  A    between atoms: C_17  and  O_18
REMARK    8  A    between atoms: C_19  and  O_20
REMARK    9  A    between atoms: C_21  and  C_22
REMARK                            x       y       z     vdW  Elec       q    Type
REMARK                         _______ _______ _______ _____ _____    ______ ____
ROOT
ATOM      1  C   UNL     1       2.025   8.109  19.254  0.00  0.00    +0.000 A 
ATOM      2  C   UNL     1       1.429   9.272  18.795  0.00  0.00    +0.000 A 
ATOM      3  C   UNL     1       0.625   9.976  19.663  0.00  0.00    +0.000 A 
ATOM      4  N   UNL     1       0.454   9.540  20.923  0.00  0.00    +0.000 NA
ATOM      5  C   UNL     1       1.050   8.392  21.275  0.00  0.00    +0.000 A 
ATOM      6  N   UNL     1       1.835   7.641  20.502  0.00  0.00    +0.000 NA
ENDROOT
BRANCH   1  13
ATOM      7  C   UNL     1       3.512   3.576  19.011  0.00  0.00    +0.000 A 
ATOM      8  C   UNL     1       4.336   3.412  17.901  0.00  0.00    +0.000 A 
ATOM      9  C   UNL     1       4.653   4.480  17.056  0.00  0.00    +0.000 A 
ATOM     10  C   UNL     1       4.094   5.721  17.359  0.00  0.00    +0.000 A 
ATOM     11  N   UNL     1       4.209   6.928  16.739  0.00  0.00    +0.000 N 
ATOM     12  N   UNL     1       3.504   7.911  17.308  0.00  0.00    +0.000 NA
ATOM     13  C   UNL     1       2.903   7.329  18.367  0.00  0.00    +0.000 A 
ATOM     14  C   UNL     1       3.255   5.937  18.444  0.00  0.00    +0.000 A 
ATOM     15  C   UNL     1       2.966   4.842  19.291  0.00  0.00    +0.000 A 
ATOM     16  H   UNL     1       4.754   7.145  15.913  0.00  0.00    +0.000 HD
BRANCH   7  17
ATOM     17  O   UNL     1       3.169   2.592  19.903  0.00  0.00    +0.000 OA
BRANCH  17  19
ATOM     18  C   UNL     1       1.145   2.901  21.137  0.00  0.00    +0.000 C 
ATOM     19  C   UNL     1       1.803   2.166  19.973  0.00  0.00    +0.000 C 
ATOM     20  C   UNL     1       1.089   2.496  18.664  0.00  0.00    +0.000 C 
ENDBRANCH  17  19
ENDBRANCH   7  17
ENDBRANCH   1  13
BRANCH   3  21
ATOM     21  N   UNL     1      -0.066  11.095  19.289  0.00  0.00    +0.000 N 
ATOM     22  C   UNL     1      -1.517  11.025  19.131  0.00  0.00    +0.000 C 
ATOM     23  C   UNL     1      -1.801  12.213  18.209  0.00  0.00    +0.000 C 
ATOM     24  C   UNL     1      -0.793  13.284  18.665  0.00  0.00    +0.000 C 
ATOM     25  C   UNL     1       0.399  12.489  19.286  0.00  0.00    +0.000 C 
ATOM     26  C   UNL     1       1.661  12.685  18.450  0.00  0.00    +0.000 C 
BRANCH  23  27
ATOM     27  O   UNL     1      -1.542  11.835  16.851  0.00  0.00    +0.000 OA
ATOM     28  H   UNL     1      -2.416  11.725  16.427  0.00  0.00    +0.000 HD
ENDBRANCH  23  27
BRANCH  24  29
ATOM     29  O   UNL     1      -1.383  14.159  19.632  0.00  0.00    +0.000 OA
ATOM     30  H   UNL     1      -0.927  14.031  20.479  0.00  0.00    +0.000 HD
ENDBRANCH  24  29
ENDBRANCH   3  21
TORSDOF 6
ENDMDL
