MODEL 1
REMARK VINA RESULT:      -7.0      0.000      0.000
REMARK  Name = 
REMARK  5 active torsions:
REMARK  status: ('A' for Active; 'I' for Inactive)
REMARK    1  A    between atoms: C_1  and  C_2
REMARK    2  A    between atoms: C_2  and  C_3
REMARK    3  A    between atoms: C_8  and  C_10
REMARK    4  A    between atoms: N_15  and  C_16
REMARK    5  A    between atoms: N_15  and  C_17
REMARK                            x       y       z     vdW  Elec       q    Type
REMARK                         _______ _______ _______ _____ _____    ______ ____
ROOT
ATOM      1  C   UNL     1       6.782   4.564  13.834  0.00  0.00    +0.000 A 
ATOM      2  N   UNL     1       7.469   5.501  14.454  0.00  0.00    +0.000 NA
ATOM      3  N   UNL     1       6.838   5.923  15.610  0.00  0.00    +0.000 NA
ATOM      4  C   UNL     1       5.723   5.264  15.837  0.00  0.00    +0.000 A 
ATOM      5  N   UNL     1       4.917   5.527  16.922  0.00  0.00    +0.000 N 
ATOM      6  C   UNL     1       3.862   4.750  17.336  0.00  0.00    +0.000 C 
ATOM      7  O   UNL     1       3.487   3.698  16.830  0.00  0.00    +0.000 OA
ATOM      8  S   UNL     1       5.343   4.105  14.645  0.00  0.00    +0.000 S 
ATOM      9  H   UNL     1       5.257   6.284  17.497  0.00  0.00    +0.000 HD
ENDROOT
BRANCH   6  10
ATOM     10  C   UNL     1       3.150   5.208  18.559  0.00  0.00    +0.000 A 
ATOM     11  C   UNL     1       2.968   4.404  19.673  0.00  0.00    +0.000 A 
ATOM     12  C   UNL     1       2.330   4.982  20.750  0.00  0.00    +0.000 A 
ATOM     13  N   UNL     1       1.881   6.258  20.769  0.00  0.00    +0.000 NA
ATOM     14  C   UNL     1       2.061   7.060  19.694  0.00  0.00    +0.000 A 
ATOM     15  N   UNL     1       1.628   8.367  19.760  0.00  0.00    +0.000 N 
ATOM     16  C   UNL     1       0.967   8.843  20.973  0.00  0.00    +0.000 C 
ATOM     17  C   UNL     1       1.643   9.310  18.653  0.00  0.00    +0.000 C 
ATOM     18  C   UNL     1       2.702   6.537  18.579  0.00  0.00    +0.000 A 
ENDBRANCH   6  10
BRANCH   1  20
ATOM     19  C   UNL     1       6.010   3.125  11.963  0.00  0.00    +0.000 C 
ATOM     20  C   UNL     1       7.157   3.953  12.524  0.00  0.00    +0.000 C 
ENDBRANCH   1  20
TORSDOF 2
ENDMDL
MODEL 2
REMARK VINA RESULT:      -6.9      4.073      8.395
REMARK  Name = 
REMARK  5 active torsions:
REMARK  status: ('A' for Active; 'I' for Inactive)
REMARK    1  A    between atoms: C_1  and  C_2
REMARK    2  A    between atoms: C_2  and  C_3
REMARK    3  A    between atoms: C_8  and  C_10
REMARK    4  A    between atoms: N_15  and  C_16
REMARK    5  A    between atoms: N_15  and  C_17
REMARK                            x       y       z     vdW  Elec       q    Type
REMARK                         _______ _______ _______ _____ _____    ______ ____
ROOT
ATOM      1  C   UNL     1      -0.470  10.908  22.365  0.00  0.00    +0.000 A 
ATOM      2  N   UNL     1       0.095  10.265  23.365  0.00  0.00    +0.000 NA
ATOM      3  N   UNL     1       0.862   9.201  22.927  0.00  0.00    +0.000 NA
ATOM      4  C   UNL     1       0.877   9.106  21.616  0.00  0.00    +0.000 A 
ATOM      5  N   UNL     1       1.561   8.110  20.955  0.00  0.00    +0.000 N 
ATOM      6  C   UNL     1       1.795   8.069  19.601  0.00  0.00    +0.000 C 
ATOM      7  O   UNL     1       1.459   8.912  18.776  0.00  0.00    +0.000 OA
ATOM      8  S   UNL     1      -0.066  10.283  20.820  0.00  0.00    +0.000 S 
ATOM      9  H   UNL     1       2.019   7.461  21.577  0.00  0.00    +0.000 HD
ENDROOT
BRANCH   6  10
ATOM     10  C   UNL     1       2.591   6.913  19.108  0.00  0.00    +0.000 A 
ATOM     11  C   UNL     1       3.408   6.980  17.990  0.00  0.00    +0.000 A 
ATOM     12  C   UNL     1       4.121   5.841  17.682  0.00  0.00    +0.000 A 
ATOM     13  N   UNL     1       4.057   4.692  18.394  0.00  0.00    +0.000 NA
ATOM     14  C   UNL     1       3.273   4.613  19.493  0.00  0.00    +0.000 A 
ATOM     15  N   UNL     1       3.262   3.441  20.220  0.00  0.00    +0.000 N 
ATOM     16  C   UNL     1       4.072   2.312  19.771  0.00  0.00    +0.000 C 
ATOM     17  C   UNL     1       2.386   3.165  21.348  0.00  0.00    +0.000 C 
ATOM     18  C   UNL     1       2.534   5.730  19.859  0.00  0.00    +0.000 A 
ENDBRANCH   6  10
BRANCH   1  20
ATOM     19  C   UNL     1      -1.985  12.463  21.157  0.00  0.00    +0.000 C 
ATOM     20  C   UNL     1      -1.415  12.056  22.508  0.00  0.00    +0.000 C 
ENDBRANCH   1  20
TORSDOF 2
ENDMDL
MODEL 3
REMARK VINA RESULT:      -6.8      3.513      8.405
REMARK  Name = 
REMARK  5 active torsions:
REMARK  status: ('A' for Active; 'I' for Inactive)
REMARK    1  A    between atoms: C_1  and  C_2
REMARK    2  A    between atoms: C_2  and  C_3
REMARK    3  A    between atoms: C_8  and  C_10
REMARK    4  A    between atoms: N_15  and  C_16
REMARK    5  A    between atoms: N_15  and  C_17
REMARK                            x       y       z     vdW  Elec       q    Type
REMARK                         _______ _______ _______ _____ _____    ______ ____
ROOT
ATOM      1  C   UNL     1      -0.480  11.101  22.020  0.00  0.00    +0.000 A 
ATOM      2  N   UNL     1      -0.080  10.524  23.133  0.00  0.00    +0.000 NA
ATOM      3  N   UNL     1       0.643   9.370  22.885  0.00  0.00    +0.000 NA
ATOM      4  C   UNL     1       0.791   9.144  21.598  0.00  0.00    +0.000 A 
ATOM      5  N   UNL     1       1.460   8.042  21.114  0.00  0.00    +0.000 N 
ATOM      6  C   UNL     1       1.833   7.850  19.805  0.00  0.00    +0.000 C 
ATOM      7  O   UNL     1       1.656   8.627  18.874  0.00  0.00    +0.000 OA
ATOM      8  S   UNL     1       0.035  10.298  20.595  0.00  0.00    +0.000 S 
ATOM      9  H   UNL     1       1.794   7.428  21.842  0.00  0.00    +0.000 HD
ENDROOT
BRANCH   6  10
ATOM     10  C   UNL     1       2.582   6.598  19.515  0.00  0.00    +0.000 A 
ATOM     11  C   UNL     1       2.488   5.460  20.301  0.00  0.00    +0.000 A 
ATOM     12  C   UNL     1       3.205   4.361  19.880  0.00  0.00    +0.000 A 
ATOM     13  N   UNL     1       3.979   4.342  18.770  0.00  0.00    +0.000 NA
ATOM     14  C   UNL     1       4.073   5.439  17.985  0.00  0.00    +0.000 A 
ATOM     15  N   UNL     1       4.837   5.373  16.839  0.00  0.00    +0.000 N 
ATOM     16  C   UNL     1       5.543   4.135  16.519  0.00  0.00    +0.000 C 
ATOM     17  C   UNL     1       5.130   6.497  15.963  0.00  0.00    +0.000 C 
ATOM     18  C   UNL     1       3.369   6.578  18.354  0.00  0.00    +0.000 A 
ENDBRANCH   6  10
BRANCH   1  20
ATOM     19  C   UNL     1      -1.178  13.174  23.197  0.00  0.00    +0.000 C 
ATOM     20  C   UNL     1      -1.340  12.320  21.948  0.00  0.00    +0.000 C 
ENDBRANCH   1  20
TORSDOF 2
ENDMDL
MODEL 4
REMARK VINA RESULT:      -6.6      6.818      7.883
REMARK  Name = 
REMARK  5 active torsions:
REMARK  status: ('A' for Active; 'I' for Inactive)
REMARK    1  A    between atoms: C_1  and  C_2
REMARK    2  A    between atoms: C_2  and  C_3
REMARK    3  A    between atoms: C_8  and  C_10
REMARK    4  A    between atoms: N_15  and  C_16
REMARK    5  A    between atoms: N_15  and  C_17
REMARK                            x       y       z     vdW  Elec       q    Type
REMARK                         _______ _______ _______ _____ _____    ______ ____
ROOT
ATOM      1  C   UNL     1       6.573   5.382  17.289  0.00  0.00    +0.000 A 
ATOM      2  N   UNL     1       7.141   4.932  18.388  0.00  0.00    +0.000 NA
ATOM      3  N   UNL     1       7.910   5.901  19.006  0.00  0.00    +0.000 NA
ATOM      4  C   UNL     1       7.862   7.052  18.373  0.00  0.00    +0.000 A 
ATOM      5  N   UNL     1       8.565   8.158  18.797  0.00  0.00    +0.000 N 
ATOM      6  C   UNL     1       8.402   9.436  18.316  0.00  0.00    +0.000 C 
ATOM      7  O   UNL     1       7.601   9.798  17.462  0.00  0.00    +0.000 OA
ATOM      8  S   UNL     1       6.905   7.032  16.961  0.00  0.00    +0.000 S 
ATOM      9  H   UNL     1       9.129   7.983  19.615  0.00  0.00    +0.000 HD
ENDROOT
BRANCH   6  10
ATOM     10  C   UNL     1       9.246  10.486  18.947  0.00  0.00    +0.000 A 
ATOM     11  C   UNL     1       9.423  10.590  20.318  0.00  0.00    +0.000 A 
ATOM     12  C   UNL     1      10.272  11.586  20.753  0.00  0.00    +0.000 A 
ATOM     13  N   UNL     1      10.917  12.445  19.930  0.00  0.00    +0.000 NA
ATOM     14  C   UNL     1      10.764  12.349  18.589  0.00  0.00    +0.000 A 
ATOM     15  N   UNL     1      11.467  13.213  17.777  0.00  0.00    +0.000 N 
ATOM     16  C   UNL     1      12.333  14.222  18.383  0.00  0.00    +0.000 C 
ATOM     17  C   UNL     1      11.318  13.312  16.333  0.00  0.00    +0.000 C 
ATOM     18  C   UNL     1       9.926  11.363  18.088  0.00  0.00    +0.000 A 
ENDBRANCH   6  10
BRANCH   1  20
ATOM     19  C   UNL     1       6.618   3.779  15.392  0.00  0.00    +0.000 C 
ATOM     20  C   UNL     1       5.741   4.564  16.357  0.00  0.00    +0.000 C 
ENDBRANCH   1  20
TORSDOF 2
ENDMDL
MODEL 5
REMARK VINA RESULT:      -6.6      3.634      7.836
REMARK  Name = 
REMARK  5 active torsions:
REMARK  status: ('A' for Active; 'I' for Inactive)
REMARK    1  A    between atoms: C_1  and  C_2
REMARK    2  A    between atoms: C_2  and  C_3
REMARK    3  A    between atoms: C_8  and  C_10
REMARK    4  A    between atoms: N_15  and  C_16
REMARK    5  A    between atoms: N_15  and  C_17
REMARK                            x       y       z     vdW  Elec       q    Type
REMARK                         _______ _______ _______ _____ _____    ______ ____
ROOT
ATOM      1  C   UNL     1      -0.117  11.181  20.509  0.00  0.00    +0.000 A 
ATOM      2  N   UNL     1       0.109  10.454  21.583  0.00  0.00    +0.000 NA
ATOM      3  N   UNL     1       0.806   9.297  21.286  0.00  0.00    +0.000 NA
ATOM      4  C   UNL     1       1.112   9.216  20.010  0.00  0.00    +0.000 A 
ATOM      5  N   UNL     1       1.790   8.141  19.480  0.00  0.00    +0.000 N 
ATOM      6  C   UNL     1       2.323   8.082  18.214  0.00  0.00    +0.000 C 
ATOM      7  O   UNL     1       2.304   8.972  17.372  0.00  0.00    +0.000 OA
ATOM      8  S   UNL     1       0.546  10.523  19.071  0.00  0.00    +0.000 S 
ATOM      9  H   UNL     1       1.999   7.426  20.161  0.00  0.00    +0.000 HD
ENDROOT
BRANCH   6  10
ATOM     10  C   UNL     1       3.049   6.831  17.865  0.00  0.00    +0.000 A 
ATOM     11  C   UNL     1       4.308   6.823  17.288  0.00  0.00    +0.000 A 
ATOM     12  C   UNL     1       4.874   5.586  17.065  0.00  0.00    +0.000 A 
ATOM     13  N   UNL     1       4.273   4.412  17.369  0.00  0.00    +0.000 NA
ATOM     14  C   UNL     1       3.049   4.402  17.943  0.00  0.00    +0.000 A 
ATOM     15  N   UNL     1       2.481   3.191  18.278  0.00  0.00    +0.000 N 
ATOM     16  C   UNL     1       3.202   1.955  17.980  0.00  0.00    +0.000 C 
ATOM     17  C   UNL     1       1.131   3.012  18.788  0.00  0.00    +0.000 C 
ATOM     18  C   UNL     1       2.428   5.618  18.198  0.00  0.00    +0.000 A 
ENDBRANCH   6  10
BRANCH   1  20
ATOM     19  C   UNL     1      -2.298  12.212  19.918  0.00  0.00    +0.000 C 
ATOM     20  C   UNL     1      -0.906  12.449  20.483  0.00  0.00    +0.000 C 
ENDBRANCH   1  20
TORSDOF 2
ENDMDL
MODEL 6
REMARK VINA RESULT:      -6.5      2.896      7.509
REMARK  Name = 
REMARK  5 active torsions:
REMARK  status: ('A' for Active; 'I' for Inactive)
REMARK    1  A    between atoms: C_1  and  C_2
REMARK    2  A    between atoms: C_2  and  C_3
REMARK    3  A    between atoms: C_8  and  C_10
REMARK    4  A    between atoms: N_15  and  C_16
REMARK    5  A    between atoms: N_15  and  C_17
REMARK                            x       y       z     vdW  Elec       q    Type
REMARK                         _______ _______ _______ _____ _____    ______ ____
ROOT
ATOM      1  C   UNL     1       0.485  10.129  20.949  0.00  0.00    +0.000 A 
ATOM      2  N   UNL     1       0.742  10.519  19.718  0.00  0.00    +0.000 NA
ATOM      3  N   UNL     1       1.411   9.546  18.998  0.00  0.00    +0.000 NA
ATOM      4  C   UNL     1       1.599   8.450  19.698  0.00  0.00    +0.000 A 
ATOM      5  N   UNL     1       2.261   7.354  19.192  0.00  0.00    +0.000 N 
ATOM      6  C   UNL     1       2.311   6.112  19.780  0.00  0.00    +0.000 C 
ATOM      7  O   UNL     1       1.762   5.777  20.824  0.00  0.00    +0.000 OA
ATOM      8  S   UNL     1       1.004   8.532  21.295  0.00  0.00    +0.000 S 
ATOM      9  H   UNL     1       2.601   7.492  18.252  0.00  0.00    +0.000 HD
ENDROOT
BRANCH   6  10
ATOM     10  C   UNL     1       3.056   5.063  19.035  0.00  0.00    +0.000 A 
ATOM     11  C   UNL     1       3.026   3.722  19.385  0.00  0.00    +0.000 A 
ATOM     12  C   UNL     1       3.729   2.859  18.571  0.00  0.00    +0.000 A 
ATOM     13  N   UNL     1       4.432   3.249  17.482  0.00  0.00    +0.000 NA
ATOM     14  C   UNL     1       4.462   4.552  17.120  0.00  0.00    +0.000 A 
ATOM     15  N   UNL     1       5.154   4.910  15.983  0.00  0.00    +0.000 N 
ATOM     16  C   UNL     1       5.855   3.882  15.217  0.00  0.00    +0.000 C 
ATOM     17  C   UNL     1       5.376   6.276  15.534  0.00  0.00    +0.000 C 
ATOM     18  C   UNL     1       3.769   5.470  17.897  0.00  0.00    +0.000 A 
ENDBRANCH   6  10
BRANCH   1  20
ATOM     19  C   UNL     1      -0.741  10.110  23.109  0.00  0.00    +0.000 C 
ATOM     20  C   UNL     1      -0.161  10.973  21.998  0.00  0.00    +0.000 C 
ENDBRANCH   1  20
TORSDOF 2
ENDMDL
MODEL 7
REMARK VINA RESULT:      -6.5      3.241      7.955
REMARK  Name = 
REMARK  5 active torsions:
REMARK  status: ('A' for Active; 'I' for Inactive)
REMARK    1  A    between atoms: C_1  and  C_2
REMARK    2  A    between atoms: C_2  and  C_3
REMARK    3  A    between atoms: C_8  and  C_10
REMARK    4  A    between atoms: N_15  and  C_16
REMARK    5  A    between atoms: N_15  and  C_17
REMARK                            x       y       z     vdW  Elec       q    Type
REMARK                         _______ _______ _______ _____ _____    ______ ____
ROOT
ATOM      1  C   UNL     1       0.172  10.617  21.808  0.00  0.00    +0.000 A 
ATOM      2  N   UNL     1       0.742   9.928  22.774  0.00  0.00    +0.000 NA
ATOM      3  N   UNL     1       1.427   8.828  22.290  0.00  0.00    +0.000 NA
ATOM      4  C   UNL     1       1.379   8.751  20.978  0.00  0.00    +0.000 A 
ATOM      5  N   UNL     1       1.975   7.728  20.276  0.00  0.00    +0.000 N 
ATOM      6  C   UNL     1       2.146   7.692  18.912  0.00  0.00    +0.000 C 
ATOM      7  O   UNL     1       1.823   8.564  18.113  0.00  0.00    +0.000 OA
ATOM      8  S   UNL     1       0.471   9.992  20.239  0.00  0.00    +0.000 S 
ATOM      9  H   UNL     1       2.421   7.044  20.869  0.00  0.00    +0.000 HD
ENDROOT
BRANCH   6  10
ATOM     10  C   UNL     1       2.851   6.500  18.371  0.00  0.00    +0.000 A 
ATOM     11  C   UNL     1       2.225   5.281  18.164  0.00  0.00    +0.000 A 
ATOM     12  C   UNL     1       2.996   4.280  17.612  0.00  0.00    +0.000 A 
ATOM     13  N   UNL     1       4.299   4.426  17.277  0.00  0.00    +0.000 NA
ATOM     14  C   UNL     1       4.922   5.612  17.462  0.00  0.00    +0.000 A 
ATOM     15  N   UNL     1       6.239   5.739  17.072  0.00  0.00    +0.000 N 
ATOM     16  C   UNL     1       6.930   4.587  16.499  0.00  0.00    +0.000 C 
ATOM     17  C   UNL     1       7.073   6.906  17.313  0.00  0.00    +0.000 C 
ATOM     18  C   UNL     1       4.197   6.661  18.010  0.00  0.00    +0.000 A 
ENDBRANCH   6  10
BRANCH   1  20
ATOM     19  C   UNL     1      -1.248  12.313  20.679  0.00  0.00    +0.000 C 
ATOM     20  C   UNL     1      -0.697  11.814  22.007  0.00  0.00    +0.000 C 
ENDBRANCH   1  20
TORSDOF 2
ENDMDL
MODEL 8
REMARK VINA RESULT:      -6.5      3.010      7.749
REMARK  Name = 
REMARK  5 active torsions:
REMARK  status: ('A' for Active; 'I' for Inactive)
REMARK    1  A    between atoms: C_1  and  C_2
REMARK    2  A    between atoms: C_2  and  C_3
REMARK    3  A    between atoms: C_8  and  C_10
REMARK    4  A    between atoms: N_15  and  C_16
REMARK    5  A    between atoms: N_15  and  C_17
REMARK                            x       y       z     vdW  Elec       q    Type
REMARK                         _______ _______ _______ _____ _____    ______ ____
ROOT
ATOM      1  C   UNL     1       0.310   9.933  21.523  0.00  0.00    +0.000 A 
ATOM      2  N   UNL     1       0.435  10.544  20.363  0.00  0.00    +0.000 NA
ATOM      3  N   UNL     1       1.114   9.768  19.442  0.00  0.00    +0.000 NA
ATOM      4  C   UNL     1       1.441   8.591  19.928  0.00  0.00    +0.000 A 
ATOM      5  N   UNL     1       2.139   7.657  19.196  0.00  0.00    +0.000 N 
ATOM      6  C   UNL     1       2.331   6.344  19.557  0.00  0.00    +0.000 C 
ATOM      7  O   UNL     1       1.897   5.793  20.563  0.00  0.00    +0.000 OA
ATOM      8  S   UNL     1       0.975   8.353  21.552  0.00  0.00    +0.000 S 
ATOM      9  H   UNL     1       2.389   7.980  18.273  0.00  0.00    +0.000 HD
ENDROOT
BRANCH   6  10
ATOM     10  C   UNL     1       3.089   5.503  18.593  0.00  0.00    +0.000 A 
ATOM     11  C   UNL     1       2.584   4.332  18.051  0.00  0.00    +0.000 A 
ATOM     12  C   UNL     1       3.383   3.684  17.134  0.00  0.00    +0.000 A 
ATOM     13  N   UNL     1       4.606   4.121  16.754  0.00  0.00    +0.000 NA
ATOM     14  C   UNL     1       5.110   5.268  17.264  0.00  0.00    +0.000 A 
ATOM     15  N   UNL     1       6.341   5.707  16.825  0.00  0.00    +0.000 N 
ATOM     16  C   UNL     1       7.077   4.912  15.845  0.00  0.00    +0.000 C 
ATOM     17  C   UNL     1       7.063   6.849  17.364  0.00  0.00    +0.000 C 
ATOM     18  C   UNL     1       4.349   5.970  18.189  0.00  0.00    +0.000 A 
ENDBRANCH   6  10
BRANCH   1  20
ATOM     19  C   UNL     1      -1.293  11.630  22.373  0.00  0.00    +0.000 C 
ATOM     20  C   UNL     1      -0.308  10.531  22.744  0.00  0.00    +0.000 C 
ENDBRANCH   1  20
TORSDOF 2
ENDMDL
MODEL 9
REMARK VINA RESULT:      -6.4      4.197      5.901
REMARK  Name = 
REMARK  5 active torsions:
REMARK  status: ('A' for Active; 'I' for Inactive)
REMARK    1  A    between atoms: C_1  and  C_2
REMARK    2  A    between atoms: C_2  and  C_3
REMARK    3  A    between atoms: C_8  and  C_10
REMARK    4  A    between atoms: N_15  and  C_16
REMARK    5  A    between atoms: N_15  and  C_17
REMARK                            x       y       z     vdW  Elec       q    Type
REMARK                         _______ _______ _______ _____ _____    ______ ____
ROOT
ATOM      1  C   UNL     1       3.197   4.170  19.219  0.00  0.00    +0.000 A 
ATOM      2  N   UNL     1       2.591   3.649  20.265  0.00  0.00    +0.000 NA
ATOM      3  N   UNL     1       1.941   4.611  21.017  0.00  0.00    +0.000 NA
ATOM      4  C   UNL     1       2.048   5.810  20.489  0.00  0.00    +0.000 A 
ATOM      5  N   UNL     1       1.496   6.927  21.075  0.00  0.00    +0.000 N 
ATOM      6  C   UNL     1       1.387   8.164  20.485  0.00  0.00    +0.000 C 
ATOM      7  O   UNL     1       1.736   8.464  19.349  0.00  0.00    +0.000 OA
ATOM      8  S   UNL     1       2.976   5.863  19.059  0.00  0.00    +0.000 S 
ATOM      9  H   UNL     1       1.031   6.730  21.949  0.00  0.00    +0.000 HD
ENDROOT
BRANCH   6  10
ATOM     10  C   UNL     1       0.720   9.220  21.293  0.00  0.00    +0.000 A 
ATOM     11  C   UNL     1       0.047   8.955  22.475  0.00  0.00    +0.000 A 
ATOM     12  C   UNL     1      -0.481  10.042  23.138  0.00  0.00    +0.000 A 
ATOM     13  N   UNL     1      -0.382  11.318  22.699  0.00  0.00    +0.000 NA
ATOM     14  C   UNL     1       0.281  11.595  21.553  0.00  0.00    +0.000 A 
ATOM     15  N   UNL     1       0.399  12.910  21.155  0.00  0.00    +0.000 N 
ATOM     16  C   UNL     1      -0.215  13.961  21.962  0.00  0.00    +0.000 C 
ATOM     17  C   UNL     1       0.974  13.354  19.895  0.00  0.00    +0.000 C 
ATOM     18  C   UNL     1       0.840  10.543  20.842  0.00  0.00    +0.000 A 
ENDBRANCH   6  10
BRANCH   1  20
ATOM     19  C   UNL     1       3.421   2.059  17.929  0.00  0.00    +0.000 C 
ATOM     20  C   UNL     1       4.044   3.410  18.252  0.00  0.00    +0.000 C 
ENDBRANCH   1  20
TORSDOF 2
ENDMDL
