MODEL 1
REMARK VINA RESULT:      -7.9      0.000      0.000
REMARK  Name = 
REMARK  13 active torsions:
REMARK  status: ('A' for Active; 'I' for Inactive)
REMARK    1  A    between atoms: C_1  and  C_2
REMARK    2  A    between atoms: C_2  and  C_3
REMARK    3  A    between atoms: C_3  and  C_4
REMARK    4  A    between atoms: C_4  and  N_5
REMARK    5  A    between atoms: C_6  and  C_8
REMARK    6  A    between atoms: C_11  and  C_12
REMARK    7  A    between atoms: C_12  and  N_13
REMARK    8  A    between atoms: N_13  and  C_14
REMARK    9  A    between atoms: C_15  and  N_16
REMARK   10  A    between atoms: C_19  and  C_20
REMARK   11  A    between atoms: C_20  and  O_22
REMARK   12  A    between atoms: O_22  and  C_23
REMARK   13  A    between atoms: C_23  and  C_24
REMARK                            x       y       z     vdW  Elec       q    Type
REMARK                         _______ _______ _______ _____ _____    ______ ____
ROOT
ATOM      1  N   UNL     1       2.258   5.767  20.553  0.00  0.00    +0.000 N 
ATOM      2  H   UNL     1       1.332   5.968  20.934  0.00  0.00    +0.000 HD
ENDROOT
BRANCH   1   3
ATOM      3  C   UNL     1       2.461   4.548  20.077  0.00  0.00    +0.000 C 
ATOM      4  C   UNL     1       3.289   3.894  19.206  0.00  0.00    +0.000 C 
ATOM      5  C   UNL     1       2.575   2.610  19.429  0.00  0.00    +0.000 C 
ATOM      6  O   UNL     1       2.588   1.465  19.027  0.00  0.00    +0.000 OA
ATOM      7  C   UNL     1       1.771   3.293  20.445  0.00  0.00    +0.000 C 
ATOM      8  O   UNL     1       0.900   2.929  21.222  0.00  0.00    +0.000 OA
BRANCH   4   9
ATOM      9  N   UNL     1       4.300   4.201  18.412  0.00  0.00    +0.000 N 
ATOM     10  C   UNL     1       5.679   4.243  18.899  0.00  0.00    +0.000 C 
ATOM     11  C   UNL     1       6.259   5.640  18.700  0.00  0.00    +0.000 C 
ATOM     12  C   UNL     1       6.116   6.101  17.238  0.00  0.00    +0.000 C 
ATOM     13  C   UNL     1       4.665   5.949  16.766  0.00  0.00    +0.000 C 
ATOM     14  C   UNL     1       4.135   4.532  16.995  0.00  0.00    +0.000 C 
BRANCH  12  15
ATOM     15  C   UNL     1       7.058   5.343  16.309  0.00  0.00    +0.000 C 
ATOM     16  O   UNL     1       7.869   4.504  16.682  0.00  0.00    +0.000 OA
BRANCH  15  17
ATOM     17  O   UNL     1       6.938   5.785  15.024  0.00  0.00    +0.000 OA
BRANCH  17  18
ATOM     18  C   UNL     1       7.152   4.764  14.038  0.00  0.00    +0.000 C 
ATOM     19  C   UNL     1       5.894   3.922  13.934  0.00  0.00    +0.000 C 
ENDBRANCH  17  18
ENDBRANCH  15  17
ENDBRANCH  12  15
ENDBRANCH   4   9
ENDBRANCH   1   3
BRANCH   1  20
ATOM     20  C   UNL     1       2.848   6.939  19.904  0.00  0.00    +0.000 C 
BRANCH  20  24
ATOM     21  C   UNL     1       0.004  10.080  18.974  0.00  0.00    +0.000 A 
ATOM     22  C   UNL     1       0.860   9.584  17.989  0.00  0.00    +0.000 A 
ATOM     23  C   UNL     1       1.758   8.558  18.289  0.00  0.00    +0.000 A 
ATOM     24  C   UNL     1       1.853   8.035  19.588  0.00  0.00    +0.000 A 
ATOM     25  C   UNL     1       0.995   8.556  20.575  0.00  0.00    +0.000 A 
ATOM     26  C   UNL     1       0.082   9.574  20.274  0.00  0.00    +0.000 A 
BRANCH  21  28
ATOM     27  N   UNL     1      -2.129  10.619  17.936  0.00  0.00    +0.000 N 
ATOM     28  C   UNL     1      -1.026  11.091  18.623  0.00  0.00    +0.000 C 
ATOM     29  O   UNL     1      -0.887  12.259  18.959  0.00  0.00    +0.000 OA
ATOM     30  H   UNL     1      -2.226   9.632  17.736  0.00  0.00    +0.000 HD
BRANCH  27  31
ATOM     31  C   UNL     1      -3.190  11.517  17.534  0.00  0.00    +0.000 C 
BRANCH  31  32
ATOM     32  C   UNL     1      -4.578  10.944  17.822  0.00  0.00    +0.000 C 
BRANCH  32  34
ATOM     33  C   UNL     1      -6.234  12.756  17.242  0.00  0.00    +0.000 C 
ATOM     34  C   UNL     1      -5.528  12.014  18.365  0.00  0.00    +0.000 C 
ENDBRANCH  32  34
ENDBRANCH  31  32
ENDBRANCH  27  31
ENDBRANCH  21  28
ENDBRANCH  20  24
ENDBRANCH   1  20
TORSDOF 11
ENDMDL
MODEL 2
REMARK VINA RESULT:      -7.7      2.611      3.685
REMARK  Name = 
REMARK  13 active torsions:
REMARK  status: ('A' for Active; 'I' for Inactive)
REMARK    1  A    between atoms: C_1  and  C_2
REMARK    2  A    between atoms: C_2  and  C_3
REMARK    3  A    between atoms: C_3  and  C_4
REMARK    4  A    between atoms: C_4  and  N_5
REMARK    5  A    between atoms: C_6  and  C_8
REMARK    6  A    between atoms: C_11  and  C_12
REMARK    7  A    between atoms: C_12  and  N_13
REMARK    8  A    between atoms: N_13  and  C_14
REMARK    9  A    between atoms: C_15  and  N_16
REMARK   10  A    between atoms: C_19  and  C_20
REMARK   11  A    between atoms: C_20  and  O_22
REMARK   12  A    between atoms: O_22  and  C_23
REMARK   13  A    between atoms: C_23  and  C_24
REMARK                            x       y       z     vdW  Elec       q    Type
REMARK                         _______ _______ _______ _____ _____    ______ ____
ROOT
ATOM      1  N   UNL     1       2.128   4.769  19.833  0.00  0.00    +0.000 N 
ATOM      2  H   UNL     1       1.980   5.133  18.890  0.00  0.00    +0.000 HD
ENDROOT
BRANCH   1   3
ATOM      3  C   UNL     1       3.074   3.854  19.983  0.00  0.00    +0.000 C 
ATOM      4  C   UNL     1       4.253   3.470  19.406  0.00  0.00    +0.000 C 
ATOM      5  C   UNL     1       4.394   2.335  20.354  0.00  0.00    +0.000 C 
ATOM      6  O   UNL     1       5.134   1.396  20.566  0.00  0.00    +0.000 OA
ATOM      7  C   UNL     1       3.194   2.823  21.037  0.00  0.00    +0.000 C 
ATOM      8  O   UNL     1       2.587   2.472  22.038  0.00  0.00    +0.000 OA
BRANCH   4   9
ATOM      9  N   UNL     1       5.008   3.856  18.392  0.00  0.00    +0.000 N 
ATOM     10  C   UNL     1       6.187   4.699  18.583  0.00  0.00    +0.000 C 
ATOM     11  C   UNL     1       6.029   6.001  17.804  0.00  0.00    +0.000 C 
ATOM     12  C   UNL     1       5.711   5.730  16.323  0.00  0.00    +0.000 C 
ATOM     13  C   UNL     1       4.520   4.771  16.195  0.00  0.00    +0.000 C 
ATOM     14  C   UNL     1       4.732   3.488  17.002  0.00  0.00    +0.000 C 
BRANCH  12  15
ATOM     15  C   UNL     1       6.918   5.177  15.575  0.00  0.00    +0.000 C 
ATOM     16  O   UNL     1       7.849   4.585  16.107  0.00  0.00    +0.000 OA
BRANCH  15  17
ATOM     17  O   UNL     1       6.867   5.504  14.251  0.00  0.00    +0.000 OA
BRANCH  17  18
ATOM     18  C   UNL     1       7.179   4.414  13.372  0.00  0.00    +0.000 C 
ATOM     19  C   UNL     1       5.903   3.644  13.084  0.00  0.00    +0.000 C 
ENDBRANCH  17  18
ENDBRANCH  15  17
ENDBRANCH  12  15
ENDBRANCH   4   9
ENDBRANCH   1   3
BRANCH   1  20
ATOM     20  C   UNL     1       1.895   5.789  20.855  0.00  0.00    +0.000 C 
BRANCH  20  24
ATOM     21  C   UNL     1       1.257   9.783  19.285  0.00  0.00    +0.000 A 
ATOM     22  C   UNL     1       0.763   9.428  20.542  0.00  0.00    +0.000 A 
ATOM     23  C   UNL     1       0.991   8.147  21.051  0.00  0.00    +0.000 A 
ATOM     24  C   UNL     1       1.676   7.180  20.300  0.00  0.00    +0.000 A 
ATOM     25  C   UNL     1       2.154   7.547  19.028  0.00  0.00    +0.000 A 
ATOM     26  C   UNL     1       1.941   8.835  18.521  0.00  0.00    +0.000 A 
BRANCH  21  28
ATOM     27  N   UNL     1       2.250  11.758  18.272  0.00  0.00    +0.000 N 
ATOM     28  C   UNL     1       1.110  11.177  18.796  0.00  0.00    +0.000 C 
ATOM     29  O   UNL     1       0.026  11.741  18.846  0.00  0.00    +0.000 OA
ATOM     30  H   UNL     1       3.108  11.227  18.196  0.00  0.00    +0.000 HD
BRANCH  27  31
ATOM     31  C   UNL     1       2.226  13.117  17.774  0.00  0.00    +0.000 C 
BRANCH  31  32
ATOM     32  C   UNL     1       2.999  14.080  18.675  0.00  0.00    +0.000 C 
BRANCH  32  34
ATOM     33  C   UNL     1       5.148  15.363  18.989  0.00  0.00    +0.000 C 
ATOM     34  C   UNL     1       4.340  14.479  18.053  0.00  0.00    +0.000 C 
ENDBRANCH  32  34
ENDBRANCH  31  32
ENDBRANCH  27  31
ENDBRANCH  21  28
ENDBRANCH  20  24
ENDBRANCH   1  20
TORSDOF 11
ENDMDL
MODEL 3
REMARK VINA RESULT:      -7.6      2.422      2.980
REMARK  Name = 
REMARK  13 active torsions:
REMARK  status: ('A' for Active; 'I' for Inactive)
REMARK    1  A    between atoms: C_1  and  C_2
REMARK    2  A    between atoms: C_2  and  C_3
REMARK    3  A    between atoms: C_3  and  C_4
REMARK    4  A    between atoms: C_4  and  N_5
REMARK    5  A    between atoms: C_6  and  C_8
REMARK    6  A    between atoms: C_11  and  C_12
REMARK    7  A    between atoms: C_12  and  N_13
REMARK    8  A    between atoms: N_13  and  C_14
REMARK    9  A    between atoms: C_15  and  N_16
REMARK   10  A    between atoms: C_19  and  C_20
REMARK   11  A    between atoms: C_20  and  O_22
REMARK   12  A    between atoms: O_22  and  C_23
REMARK   13  A    between atoms: C_23  and  C_24
REMARK                            x       y       z     vdW  Elec       q    Type
REMARK                         _______ _______ _______ _____ _____    ______ ____
ROOT
ATOM      1  N   UNL     1       2.318   5.871  20.658  0.00  0.00    +0.000 N 
ATOM      2  H   UNL     1       1.691   5.962  21.459  0.00  0.00    +0.000 HD
ENDROOT
BRANCH   1   3
ATOM      3  C   UNL     1       2.480   4.657  20.155  0.00  0.00    +0.000 C 
ATOM      4  C   UNL     1       3.269   4.000  19.252  0.00  0.00    +0.000 C 
ATOM      5  C   UNL     1       2.530   2.730  19.469  0.00  0.00    +0.000 C 
ATOM      6  O   UNL     1       2.506   1.592  19.046  0.00  0.00    +0.000 OA
ATOM      7  C   UNL     1       1.769   3.412  20.517  0.00  0.00    +0.000 C 
ATOM      8  O   UNL     1       0.909   3.054  21.309  0.00  0.00    +0.000 OA
BRANCH   4   9
ATOM      9  N   UNL     1       4.268   4.298  18.438  0.00  0.00    +0.000 N 
ATOM     10  C   UNL     1       5.663   4.239  18.873  0.00  0.00    +0.000 C 
ATOM     11  C   UNL     1       6.311   5.613  18.731  0.00  0.00    +0.000 C 
ATOM     12  C   UNL     1       6.143   6.163  17.303  0.00  0.00    +0.000 C 
ATOM     13  C   UNL     1       4.670   6.115  16.878  0.00  0.00    +0.000 C 
ATOM     14  C   UNL     1       4.072   4.717  17.049  0.00  0.00    +0.000 C 
BRANCH  12  15
ATOM     15  C   UNL     1       7.009   5.411  16.298  0.00  0.00    +0.000 C 
ATOM     16  O   UNL     1       7.935   4.670  16.604  0.00  0.00    +0.000 OA
BRANCH  15  17
ATOM     17  O   UNL     1       6.672   5.740  15.018  0.00  0.00    +0.000 OA
BRANCH  17  18
ATOM     18  C   UNL     1       6.997   4.727  14.055  0.00  0.00    +0.000 C 
ATOM     19  C   UNL     1       5.732   3.964  13.710  0.00  0.00    +0.000 C 
ENDBRANCH  17  18
ENDBRANCH  15  17
ENDBRANCH  12  15
ENDBRANCH   4   9
ENDBRANCH   1   3
BRANCH   1  20
ATOM     20  C   UNL     1       2.268   7.048  19.789  0.00  0.00    +0.000 C 
BRANCH  20  24
ATOM     21  C   UNL     1       0.091  10.389  21.496  0.00  0.00    +0.000 A 
ATOM     22  C   UNL     1       0.415   9.280  22.279  0.00  0.00    +0.000 A 
ATOM     23  C   UNL     1       1.134   8.217  21.729  0.00  0.00    +0.000 A 
ATOM     24  C   UNL     1       1.508   8.217  20.377  0.00  0.00    +0.000 A 
ATOM     25  C   UNL     1       1.161   9.335  19.595  0.00  0.00    +0.000 A 
ATOM     26  C   UNL     1       0.452  10.410  20.147  0.00  0.00    +0.000 A 
BRANCH  21  28
ATOM     27  N   UNL     1      -0.745  12.664  21.290  0.00  0.00    +0.000 N 
ATOM     28  C   UNL     1      -0.576  11.565  22.112  0.00  0.00    +0.000 C 
ATOM     29  O   UNL     1      -0.963  11.521  23.271  0.00  0.00    +0.000 OA
ATOM     30  H   UNL     1      -0.463  12.628  20.319  0.00  0.00    +0.000 HD
BRANCH  27  31
ATOM     31  C   UNL     1      -1.374  13.870  21.787  0.00  0.00    +0.000 C 
BRANCH  31  32
ATOM     32  C   UNL     1      -0.364  14.847  22.389  0.00  0.00    +0.000 C 
BRANCH  32  34
ATOM     33  C   UNL     1      -2.286  16.475  22.518  0.00  0.00    +0.000 C 
ATOM     34  C   UNL     1      -0.808  16.300  22.207  0.00  0.00    +0.000 C 
ENDBRANCH  32  34
ENDBRANCH  31  32
ENDBRANCH  27  31
ENDBRANCH  21  28
ENDBRANCH  20  24
ENDBRANCH   1  20
TORSDOF 11
ENDMDL
MODEL 4
REMARK VINA RESULT:      -7.5      2.509      2.915
REMARK  Name = 
REMARK  13 active torsions:
REMARK  status: ('A' for Active; 'I' for Inactive)
REMARK    1  A    between atoms: C_1  and  C_2
REMARK    2  A    between atoms: C_2  and  C_3
REMARK    3  A    between atoms: C_3  and  C_4
REMARK    4  A    between atoms: C_4  and  N_5
REMARK    5  A    between atoms: C_6  and  C_8
REMARK    6  A    between atoms: C_11  and  C_12
REMARK    7  A    between atoms: C_12  and  N_13
REMARK    8  A    between atoms: N_13  and  C_14
REMARK    9  A    between atoms: C_15  and  N_16
REMARK   10  A    between atoms: C_19  and  C_20
REMARK   11  A    between atoms: C_20  and  O_22
REMARK   12  A    between atoms: O_22  and  C_23
REMARK   13  A    between atoms: C_23  and  C_24
REMARK                            x       y       z     vdW  Elec       q    Type
REMARK                         _______ _______ _______ _____ _____    ______ ____
ROOT
ATOM      1  N   UNL     1       2.425   5.958  20.633  0.00  0.00    +0.000 N 
ATOM      2  H   UNL     1       1.924   6.052  21.517  0.00  0.00    +0.000 HD
ENDROOT
BRANCH   1   3
ATOM      3  C   UNL     1       2.528   4.738  20.127  0.00  0.00    +0.000 C 
ATOM      4  C   UNL     1       3.275   4.049  19.211  0.00  0.00    +0.000 C 
ATOM      5  C   UNL     1       2.487   2.811  19.440  0.00  0.00    +0.000 C 
ATOM      6  O   UNL     1       2.408   1.675  19.017  0.00  0.00    +0.000 OA
ATOM      7  C   UNL     1       1.771   3.524  20.500  0.00  0.00    +0.000 C 
ATOM      8  O   UNL     1       0.909   3.201  21.305  0.00  0.00    +0.000 OA
BRANCH   4   9
ATOM      9  N   UNL     1       4.272   4.306  18.383  0.00  0.00    +0.000 N 
ATOM     10  C   UNL     1       5.669   4.241  18.811  0.00  0.00    +0.000 C 
ATOM     11  C   UNL     1       6.337   5.599  18.619  0.00  0.00    +0.000 C 
ATOM     12  C   UNL     1       6.167   6.105  17.175  0.00  0.00    +0.000 C 
ATOM     13  C   UNL     1       4.691   6.066  16.762  0.00  0.00    +0.000 C 
ATOM     14  C   UNL     1       4.073   4.683  16.982  0.00  0.00    +0.000 C 
BRANCH  12  15
ATOM     15  C   UNL     1       7.015   5.308  16.191  0.00  0.00    +0.000 C 
ATOM     16  O   UNL     1       7.951   4.586  16.512  0.00  0.00    +0.000 OA
BRANCH  15  17
ATOM     17  O   UNL     1       6.650   5.574  14.904  0.00  0.00    +0.000 OA
BRANCH  17  18
ATOM     18  C   UNL     1       6.802   4.456  14.016  0.00  0.00    +0.000 C 
ATOM     19  C   UNL     1       5.439   4.098  13.452  0.00  0.00    +0.000 C 
ENDBRANCH  17  18
ENDBRANCH  15  17
ENDBRANCH  12  15
ENDBRANCH   4   9
ENDBRANCH   1   3
BRANCH   1  20
ATOM     20  C   UNL     1       2.227   7.120  19.766  0.00  0.00    +0.000 C 
BRANCH  20  24
ATOM     21  C   UNL     1      -0.054  10.336  21.576  0.00  0.00    +0.000 A 
ATOM     22  C   UNL     1       0.344  10.414  20.240  0.00  0.00    +0.000 A 
ATOM     23  C   UNL     1       1.060   9.366  19.658  0.00  0.00    +0.000 A 
ATOM     24  C   UNL     1       1.432   8.238  20.405  0.00  0.00    +0.000 A 
ATOM     25  C   UNL     1       1.038   8.181  21.755  0.00  0.00    +0.000 A 
ATOM     26  C   UNL     1       0.307   9.223  22.339  0.00  0.00    +0.000 A 
BRANCH  21  28
ATOM     27  N   UNL     1      -1.063  12.541  21.393  0.00  0.00    +0.000 N 
ATOM     28  C   UNL     1      -0.909  11.401  22.160  0.00  0.00    +0.000 C 
ATOM     29  O   UNL     1      -1.450  11.236  23.244  0.00  0.00    +0.000 OA
ATOM     30  H   UNL     1      -0.645  12.603  20.474  0.00  0.00    +0.000 HD
BRANCH  27  31
ATOM     31  C   UNL     1      -1.868  13.647  21.867  0.00  0.00    +0.000 C 
BRANCH  31  32
ATOM     32  C   UNL     1      -1.083  14.587  22.783  0.00  0.00    +0.000 C 
BRANCH  32  34
ATOM     33  C   UNL     1      -2.746  14.688  24.678  0.00  0.00    +0.000 C 
ATOM     34  C   UNL     1      -2.015  15.480  23.606  0.00  0.00    +0.000 C 
ENDBRANCH  32  34
ENDBRANCH  31  32
ENDBRANCH  27  31
ENDBRANCH  21  28
ENDBRANCH  20  24
ENDBRANCH   1  20
TORSDOF 11
ENDMDL
MODEL 5
REMARK VINA RESULT:      -7.5      2.343      2.761
REMARK  Name = 
REMARK  13 active torsions:
REMARK  status: ('A' for Active; 'I' for Inactive)
REMARK    1  A    between atoms: C_1  and  C_2
REMARK    2  A    between atoms: C_2  and  C_3
REMARK    3  A    between atoms: C_3  and  C_4
REMARK    4  A    between atoms: C_4  and  N_5
REMARK    5  A    between atoms: C_6  and  C_8
REMARK    6  A    between atoms: C_11  and  C_12
REMARK    7  A    between atoms: C_12  and  N_13
REMARK    8  A    between atoms: N_13  and  C_14
REMARK    9  A    between atoms: C_15  and  N_16
REMARK   10  A    between atoms: C_19  and  C_20
REMARK   11  A    between atoms: C_20  and  O_22
REMARK   12  A    between atoms: O_22  and  C_23
REMARK   13  A    between atoms: C_23  and  C_24
REMARK                            x       y       z     vdW  Elec       q    Type
REMARK                         _______ _______ _______ _____ _____    ______ ____
ROOT
ATOM      1  N   UNL     1       2.475   5.321  19.911  0.00  0.00    +0.000 N 
ATOM      2  H   UNL     1       1.520   5.218  20.259  0.00  0.00    +0.000 HD
ENDROOT
BRANCH   1   3
ATOM      3  C   UNL     1       3.246   4.245  19.940  0.00  0.00    +0.000 C 
ATOM      4  C   UNL     1       4.264   3.673  19.227  0.00  0.00    +0.000 C 
ATOM      5  C   UNL     1       4.294   2.498  20.137  0.00  0.00    +0.000 C 
ATOM      6  O   UNL     1       4.866   1.433  20.251  0.00  0.00    +0.000 OA
ATOM      7  C   UNL     1       3.287   3.173  20.958  0.00  0.00    +0.000 C 
ATOM      8  O   UNL     1       2.738   2.904  22.016  0.00  0.00    +0.000 OA
BRANCH   4   9
ATOM      9  N   UNL     1       4.963   3.950  18.140  0.00  0.00    +0.000 N 
ATOM     10  C   UNL     1       6.001   4.980  18.131  0.00  0.00    +0.000 C 
ATOM     11  C   UNL     1       5.657   6.057  17.106  0.00  0.00    +0.000 C 
ATOM     12  C   UNL     1       5.398   5.443  15.718  0.00  0.00    +0.000 C 
ATOM     13  C   UNL     1       4.366   4.313  15.814  0.00  0.00    +0.000 C 
ATOM     14  C   UNL     1       4.759   3.268  16.861  0.00  0.00    +0.000 C 
BRANCH  12  15
ATOM     15  C   UNL     1       6.682   4.933  15.073  0.00  0.00    +0.000 C 
ATOM     16  O   UNL     1       7.769   5.493  15.161  0.00  0.00    +0.000 OA
BRANCH  15  17
ATOM     17  O   UNL     1       6.444   3.824  14.316  0.00  0.00    +0.000 OA
BRANCH  17  18
ATOM     18  C   UNL     1       6.651   4.027  12.910  0.00  0.00    +0.000 C 
ATOM     19  C   UNL     1       5.679   3.145  12.147  0.00  0.00    +0.000 C 
ENDBRANCH  17  18
ENDBRANCH  15  17
ENDBRANCH  12  15
ENDBRANCH   4   9
ENDBRANCH   1   3
BRANCH   1  20
ATOM     20  C   UNL     1       2.551   6.275  18.804  0.00  0.00    +0.000 C 
BRANCH  20  24
ATOM     21  C   UNL     1       0.947  10.191  19.758  0.00  0.00    +0.000 A 
ATOM     22  C   UNL     1       1.010   9.194  20.734  0.00  0.00    +0.000 A 
ATOM     23  C   UNL     1       1.547   7.943  20.425  0.00  0.00    +0.000 A 
ATOM     24  C   UNL     1       1.992   7.644  19.129  0.00  0.00    +0.000 A 
ATOM     25  C   UNL     1       1.908   8.654  18.152  0.00  0.00    +0.000 A 
ATOM     26  C   UNL     1       1.383   9.915  18.461  0.00  0.00    +0.000 A 
BRANCH  21  28
ATOM     27  N   UNL     1      -0.222  11.659  21.306  0.00  0.00    +0.000 N 
ATOM     28  C   UNL     1       0.479  11.554  20.118  0.00  0.00    +0.000 C 
ATOM     29  O   UNL     1       0.736  12.508  19.398  0.00  0.00    +0.000 OA
ATOM     30  H   UNL     1      -0.355  10.849  21.897  0.00  0.00    +0.000 HD
BRANCH  27  31
ATOM     31  C   UNL     1      -0.734  12.938  21.752  0.00  0.00    +0.000 C 
BRANCH  31  32
ATOM     32  C   UNL     1      -2.221  12.878  22.102  0.00  0.00    +0.000 C 
BRANCH  32  34
ATOM     33  C   UNL     1      -3.782  12.380  24.021  0.00  0.00    +0.000 C 
ATOM     34  C   UNL     1      -2.448  12.984  23.613  0.00  0.00    +0.000 C 
ENDBRANCH  32  34
ENDBRANCH  31  32
ENDBRANCH  27  31
ENDBRANCH  21  28
ENDBRANCH  20  24
ENDBRANCH   1  20
TORSDOF 11
ENDMDL
MODEL 6
REMARK VINA RESULT:      -7.5      2.467      3.098
REMARK  Name = 
REMARK  13 active torsions:
REMARK  status: ('A' for Active; 'I' for Inactive)
REMARK    1  A    between atoms: C_1  and  C_2
REMARK    2  A    between atoms: C_2  and  C_3
REMARK    3  A    between atoms: C_3  and  C_4
REMARK    4  A    between atoms: C_4  and  N_5
REMARK    5  A    between atoms: C_6  and  C_8
REMARK    6  A    between atoms: C_11  and  C_12
REMARK    7  A    between atoms: C_12  and  N_13
REMARK    8  A    between atoms: N_13  and  C_14
REMARK    9  A    between atoms: C_15  and  N_16
REMARK   10  A    between atoms: C_19  and  C_20
REMARK   11  A    between atoms: C_20  and  O_22
REMARK   12  A    between atoms: O_22  and  C_23
REMARK   13  A    between atoms: C_23  and  C_24
REMARK                            x       y       z     vdW  Elec       q    Type
REMARK                         _______ _______ _______ _____ _____    ______ ____
ROOT
ATOM      1  N   UNL     1       2.002   6.152  20.869  0.00  0.00    +0.000 N 
ATOM      2  H   UNL     1       1.222   6.153  21.528  0.00  0.00    +0.000 HD
ENDROOT
BRANCH   1   3
ATOM      3  C   UNL     1       2.369   4.981  20.372  0.00  0.00    +0.000 C 
ATOM      4  C   UNL     1       3.265   4.464  19.477  0.00  0.00    +0.000 C 
ATOM      5  C   UNL     1       2.747   3.088  19.693  0.00  0.00    +0.000 C 
ATOM      6  O   UNL     1       2.917   1.961  19.273  0.00  0.00    +0.000 OA
ATOM      7  C   UNL     1       1.873   3.636  20.732  0.00  0.00    +0.000 C 
ATOM      8  O   UNL     1       1.078   3.140  21.518  0.00  0.00    +0.000 OA
BRANCH   4   9
ATOM      9  N   UNL     1       4.208   4.922  18.671  0.00  0.00    +0.000 N 
ATOM     10  C   UNL     1       4.375   6.352  18.413  0.00  0.00    +0.000 C 
ATOM     11  C   UNL     1       4.207   6.635  16.923  0.00  0.00    +0.000 C 
ATOM     12  C   UNL     1       5.144   5.752  16.079  0.00  0.00    +0.000 C 
ATOM     13  C   UNL     1       4.980   4.276  16.461  0.00  0.00    +0.000 C 
ATOM     14  C   UNL     1       5.151   4.053  17.966  0.00  0.00    +0.000 C 
BRANCH  12  15
ATOM     15  C   UNL     1       6.601   6.176  16.216  0.00  0.00    +0.000 C 
ATOM     16  O   UNL     1       7.557   5.473  15.911  0.00  0.00    +0.000 OA
BRANCH  15  17
ATOM     17  O   UNL     1       6.701   7.403  16.804  0.00  0.00    +0.000 OA
BRANCH  17  18
ATOM     18  C   UNL     1       7.719   7.480  17.814  0.00  0.00    +0.000 C 
ATOM     19  C   UNL     1       8.133   8.932  17.972  0.00  0.00    +0.000 C 
ENDBRANCH  17  18
ENDBRANCH  15  17
ENDBRANCH  12  15
ENDBRANCH   4   9
ENDBRANCH   1   3
BRANCH   1  20
ATOM     20  C   UNL     1       2.021   7.362  20.046  0.00  0.00    +0.000 C 
BRANCH  20  24
ATOM     21  C   UNL     1      -0.294  10.657  21.657  0.00  0.00    +0.000 A 
ATOM     22  C   UNL     1      -0.179  10.480  20.277  0.00  0.00    +0.000 A 
ATOM     23  C   UNL     1       0.550   9.405  19.765  0.00  0.00    +0.000 A 
ATOM     24  C   UNL     1       1.216   8.510  20.616  0.00  0.00    +0.000 A 
ATOM     25  C   UNL     1       1.104   8.710  22.005  0.00  0.00    +0.000 A 
ATOM     26  C   UNL     1       0.361   9.778  22.522  0.00  0.00    +0.000 A 
BRANCH  21  28
ATOM     27  N   UNL     1      -2.083  12.270  21.316  0.00  0.00    +0.000 N 
ATOM     28  C   UNL     1      -1.162  11.735  22.198  0.00  0.00    +0.000 C 
ATOM     29  O   UNL     1      -1.058  12.087  23.364  0.00  0.00    +0.000 OA
ATOM     30  H   UNL     1      -2.171  11.901  20.378  0.00  0.00    +0.000 HD
BRANCH  27  31
ATOM     31  C   UNL     1      -2.974  13.333  21.732  0.00  0.00    +0.000 C 
BRANCH  31  32
ATOM     32  C   UNL     1      -4.358  12.813  22.119  0.00  0.00    +0.000 C 
BRANCH  32  34
ATOM     33  C   UNL     1      -4.314  12.420  24.610  0.00  0.00    +0.000 C 
ATOM     34  C   UNL     1      -4.791  13.332  23.492  0.00  0.00    +0.000 C 
ENDBRANCH  32  34
ENDBRANCH  31  32
ENDBRANCH  27  31
ENDBRANCH  21  28
ENDBRANCH  20  24
ENDBRANCH   1  20
TORSDOF 11
ENDMDL
MODEL 7
REMARK VINA RESULT:      -7.4      2.535      2.954
REMARK  Name = 
REMARK  13 active torsions:
REMARK  status: ('A' for Active; 'I' for Inactive)
REMARK    1  A    between atoms: C_1  and  C_2
REMARK    2  A    between atoms: C_2  and  C_3
REMARK    3  A    between atoms: C_3  and  C_4
REMARK    4  A    between atoms: C_4  and  N_5
REMARK    5  A    between atoms: C_6  and  C_8
REMARK    6  A    between atoms: C_11  and  C_12
REMARK    7  A    between atoms: C_12  and  N_13
REMARK    8  A    between atoms: N_13  and  C_14
REMARK    9  A    between atoms: C_15  and  N_16
REMARK   10  A    between atoms: C_19  and  C_20
REMARK   11  A    between atoms: C_20  and  O_22
REMARK   12  A    between atoms: O_22  and  C_23
REMARK   13  A    between atoms: C_23  and  C_24
REMARK                            x       y       z     vdW  Elec       q    Type
REMARK                         _______ _______ _______ _____ _____    ______ ____
ROOT
ATOM      1  N   UNL     1       2.006   5.169  20.034  0.00  0.00    +0.000 N 
ATOM      2  H   UNL     1       1.043   4.831  20.066  0.00  0.00    +0.000 HD
ENDROOT
BRANCH   1   3
ATOM      3  C   UNL     1       2.965   4.258  20.080  0.00  0.00    +0.000 C 
ATOM      4  C   UNL     1       4.148   3.958  19.461  0.00  0.00    +0.000 C 
ATOM      5  C   UNL     1       4.308   2.726  20.275  0.00  0.00    +0.000 C 
ATOM      6  O   UNL     1       5.062   1.780  20.380  0.00  0.00    +0.000 OA
ATOM      7  C   UNL     1       3.103   3.117  21.011  0.00  0.00    +0.000 C 
ATOM      8  O   UNL     1       2.505   2.647  21.967  0.00  0.00    +0.000 OA
BRANCH   4   9
ATOM      9  N   UNL     1       4.894   4.467  18.496  0.00  0.00    +0.000 N 
ATOM     10  C   UNL     1       4.559   4.287  17.084  0.00  0.00    +0.000 C 
ATOM     11  C   UNL     1       5.695   3.564  16.366  0.00  0.00    +0.000 C 
ATOM     12  C   UNL     1       7.039   4.282  16.585  0.00  0.00    +0.000 C 
ATOM     13  C   UNL     1       7.287   4.516  18.080  0.00  0.00    +0.000 C 
ATOM     14  C   UNL     1       6.114   5.237  18.748  0.00  0.00    +0.000 C 
BRANCH  12  15
ATOM     15  C   UNL     1       7.109   5.601  15.824  0.00  0.00    +0.000 C 
ATOM     16  O   UNL     1       7.620   6.625  16.261  0.00  0.00    +0.000 OA
BRANCH  15  17
ATOM     17  O   UNL     1       6.452   5.513  14.631  0.00  0.00    +0.000 OA
BRANCH  17  18
ATOM     18  C   UNL     1       7.219   4.886  13.592  0.00  0.00    +0.000 C 
ATOM     19  C   UNL     1       6.307   3.958  12.811  0.00  0.00    +0.000 C 
ENDBRANCH  17  18
ENDBRANCH  15  17
ENDBRANCH  12  15
ENDBRANCH   4   9
ENDBRANCH   1   3
BRANCH   1  20
ATOM     20  C   UNL     1       2.137   6.364  19.199  0.00  0.00    +0.000 C 
BRANCH  20  24
ATOM     21  C   UNL     1       0.755  10.023  21.076  0.00  0.00    +0.000 A 
ATOM     22  C   UNL     1       1.208  10.030  19.755  0.00  0.00    +0.000 A 
ATOM     23  C   UNL     1       1.631   8.845  19.150  0.00  0.00    +0.000 A 
ATOM     24  C   UNL     1       1.654   7.636  19.861  0.00  0.00    +0.000 A 
ATOM     25  C   UNL     1       1.210   7.646  21.197  0.00  0.00    +0.000 A 
ATOM     26  C   UNL     1       0.770   8.830  21.803  0.00  0.00    +0.000 A 
BRANCH  21  28
ATOM     27  N   UNL     1      -0.853  11.089  22.557  0.00  0.00    +0.000 N 
ATOM     28  C   UNL     1       0.201  11.262  21.679  0.00  0.00    +0.000 C 
ATOM     29  O   UNL     1       0.688  12.352  21.413  0.00  0.00    +0.000 OA
ATOM     30  H   UNL     1      -1.179  10.160  22.792  0.00  0.00    +0.000 HD
BRANCH  27  31
ATOM     31  C   UNL     1      -1.477  12.228  23.196  0.00  0.00    +0.000 C 
BRANCH  31  32
ATOM     32  C   UNL     1      -2.934  12.408  22.769  0.00  0.00    +0.000 C 
BRANCH  32  34
ATOM     33  C   UNL     1      -4.572  12.395  24.687  0.00  0.00    +0.000 C 
ATOM     34  C   UNL     1      -3.715  13.257  23.775  0.00  0.00    +0.000 C 
ENDBRANCH  32  34
ENDBRANCH  31  32
ENDBRANCH  27  31
ENDBRANCH  21  28
ENDBRANCH  20  24
ENDBRANCH   1  20
TORSDOF 11
ENDMDL
MODEL 8
REMARK VINA RESULT:      -7.4      2.194      2.655
REMARK  Name = 
REMARK  13 active torsions:
REMARK  status: ('A' for Active; 'I' for Inactive)
REMARK    1  A    between atoms: C_1  and  C_2
REMARK    2  A    between atoms: C_2  and  C_3
REMARK    3  A    between atoms: C_3  and  C_4
REMARK    4  A    between atoms: C_4  and  N_5
REMARK    5  A    between atoms: C_6  and  C_8
REMARK    6  A    between atoms: C_11  and  C_12
REMARK    7  A    between atoms: C_12  and  N_13
REMARK    8  A    between atoms: N_13  and  C_14
REMARK    9  A    between atoms: C_15  and  N_16
REMARK   10  A    between atoms: C_19  and  C_20
REMARK   11  A    between atoms: C_20  and  O_22
REMARK   12  A    between atoms: O_22  and  C_23
REMARK   13  A    between atoms: C_23  and  C_24
REMARK                            x       y       z     vdW  Elec       q    Type
REMARK                         _______ _______ _______ _____ _____    ______ ____
ROOT
ATOM      1  N   UNL     1       2.255   5.453  19.904  0.00  0.00    +0.000 N 
ATOM      2  H   UNL     1       1.271   5.307  19.672  0.00  0.00    +0.000 HD
ENDROOT
BRANCH   1   3
ATOM      3  C   UNL     1       3.011   4.372  20.026  0.00  0.00    +0.000 C 
ATOM      4  C   UNL     1       4.095   3.786  19.432  0.00  0.00    +0.000 C 
ATOM      5  C   UNL     1       4.018   2.620  20.349  0.00  0.00    +0.000 C 
ATOM      6  O   UNL     1       4.567   1.553  20.534  0.00  0.00    +0.000 OA
ATOM      7  C   UNL     1       2.934   3.310  21.052  0.00  0.00    +0.000 C 
ATOM      8  O   UNL     1       2.273   3.054  22.048  0.00  0.00    +0.000 OA
BRANCH   4   9
ATOM      9  N   UNL     1       4.908   4.048  18.423  0.00  0.00    +0.000 N 
ATOM     10  C   UNL     1       6.112   4.861  18.592  0.00  0.00    +0.000 C 
ATOM     11  C   UNL     1       6.041   6.091  17.691  0.00  0.00    +0.000 C 
ATOM     12  C   UNL     1       5.776   5.695  16.227  0.00  0.00    +0.000 C 
ATOM     13  C   UNL     1       4.554   4.773  16.132  0.00  0.00    +0.000 C 
ATOM     14  C   UNL     1       4.677   3.563  17.061  0.00  0.00    +0.000 C 
BRANCH  12  15
ATOM     15  C   UNL     1       6.991   5.031  15.590  0.00  0.00    +0.000 C 
ATOM     16  O   UNL     1       7.902   4.507  16.219  0.00  0.00    +0.000 OA
BRANCH  15  17
ATOM     17  O   UNL     1       6.971   5.173  14.233  0.00  0.00    +0.000 OA
BRANCH  17  18
ATOM     18  C   UNL     1       6.557   3.991  13.532  0.00  0.00    +0.000 C 
ATOM     19  C   UNL     1       6.954   4.130  12.074  0.00  0.00    +0.000 C 
ENDBRANCH  17  18
ENDBRANCH  15  17
ENDBRANCH  12  15
ENDBRANCH   4   9
ENDBRANCH   1   3
BRANCH   1  20
ATOM     20  C   UNL     1       2.782   6.679  19.305  0.00  0.00    +0.000 C 
BRANCH  20  24
ATOM     21  C   UNL     1       0.337  10.196  19.993  0.00  0.00    +0.000 A 
ATOM     22  C   UNL     1       0.948   9.988  18.755  0.00  0.00    +0.000 A 
ATOM     23  C   UNL     1       1.716   8.844  18.533  0.00  0.00    +0.000 A 
ATOM     24  C   UNL     1       1.928   7.904  19.553  0.00  0.00    +0.000 A 
ATOM     25  C   UNL     1       1.319   8.134  20.801  0.00  0.00    +0.000 A 
ATOM     26  C   UNL     1       0.535   9.273  21.023  0.00  0.00    +0.000 A 
BRANCH  21  28
ATOM     27  N   UNL     1      -1.035  11.549  21.477  0.00  0.00    +0.000 N 
ATOM     28  C   UNL     1      -0.569  11.356  20.189  0.00  0.00    +0.000 C 
ATOM     29  O   UNL     1      -0.847  12.091  19.252  0.00  0.00    +0.000 OA
ATOM     30  H   UNL     1      -0.726  10.949  22.230  0.00  0.00    +0.000 HD
BRANCH  27  31
ATOM     31  C   UNL     1      -1.932  12.643  21.782  0.00  0.00    +0.000 C 
BRANCH  31  32
ATOM     32  C   UNL     1      -2.205  12.771  23.281  0.00  0.00    +0.000 C 
BRANCH  32  34
ATOM     33  C   UNL     1      -0.707  14.775  22.962  0.00  0.00    +0.000 C 
ATOM     34  C   UNL     1      -1.799  14.147  23.813  0.00  0.00    +0.000 C 
ENDBRANCH  32  34
ENDBRANCH  31  32
ENDBRANCH  27  31
ENDBRANCH  21  28
ENDBRANCH  20  24
ENDBRANCH   1  20
TORSDOF 11
ENDMDL
MODEL 9
REMARK VINA RESULT:      -7.3      2.967      3.860
REMARK  Name = 
REMARK  13 active torsions:
REMARK  status: ('A' for Active; 'I' for Inactive)
REMARK    1  A    between atoms: C_1  and  C_2
REMARK    2  A    between atoms: C_2  and  C_3
REMARK    3  A    between atoms: C_3  and  C_4
REMARK    4  A    between atoms: C_4  and  N_5
REMARK    5  A    between atoms: C_6  and  C_8
REMARK    6  A    between atoms: C_11  and  C_12
REMARK    7  A    between atoms: C_12  and  N_13
REMARK    8  A    between atoms: N_13  and  C_14
REMARK    9  A    between atoms: C_15  and  N_16
REMARK   10  A    between atoms: C_19  and  C_20
REMARK   11  A    between atoms: C_20  and  O_22
REMARK   12  A    between atoms: O_22  and  C_23
REMARK   13  A    between atoms: C_23  and  C_24
REMARK                            x       y       z     vdW  Elec       q    Type
REMARK                         _______ _______ _______ _____ _____    ______ ____
ROOT
ATOM      1  N   UNL     1       1.685   5.982  20.731  0.00  0.00    +0.000 N 
ATOM      2  H   UNL     1       0.675   5.929  20.587  0.00  0.00    +0.000 HD
ENDROOT
BRANCH   1   3
ATOM      3  C   UNL     1       2.378   4.870  20.540  0.00  0.00    +0.000 C 
ATOM      4  C   UNL     1       3.400   4.399  19.762  0.00  0.00    +0.000 C 
ATOM      5  C   UNL     1       3.291   3.046  20.366  0.00  0.00    +0.000 C 
ATOM      6  O   UNL     1       3.781   1.941  20.251  0.00  0.00    +0.000 OA
ATOM      7  C   UNL     1       2.279   3.590  21.275  0.00  0.00    +0.000 C 
ATOM      8  O   UNL     1       1.645   3.127  22.212  0.00  0.00    +0.000 OA
BRANCH   4   9
ATOM      9  N   UNL     1       4.186   4.864  18.806  0.00  0.00    +0.000 N 
ATOM     10  C   UNL     1       3.776   4.870  17.403  0.00  0.00    +0.000 C 
ATOM     11  C   UNL     1       4.750   4.040  16.572  0.00  0.00    +0.000 C 
ATOM     12  C   UNL     1       6.201   4.507  16.783  0.00  0.00    +0.000 C 
ATOM     13  C   UNL     1       6.537   4.561  18.278  0.00  0.00    +0.000 C 
ATOM     14  C   UNL     1       5.525   5.400  19.061  0.00  0.00    +0.000 C 
BRANCH  12  15
ATOM     15  C   UNL     1       6.462   5.861  16.132  0.00  0.00    +0.000 C 
ATOM     16  O   UNL     1       5.865   6.282  15.149  0.00  0.00    +0.000 OA
BRANCH  15  17
ATOM     17  O   UNL     1       7.506   6.500  16.734  0.00  0.00    +0.000 OA
BRANCH  17  18
ATOM     18  C   UNL     1       7.178   7.809  17.225  0.00  0.00    +0.000 C 
ATOM     19  C   UNL     1       8.353   8.331  18.031  0.00  0.00    +0.000 C 
ENDBRANCH  17  18
ENDBRANCH  15  17
ENDBRANCH  12  15
ENDBRANCH   4   9
ENDBRANCH   1   3
BRANCH   1  20
ATOM     20  C   UNL     1       2.224   7.284  20.340  0.00  0.00    +0.000 C 
BRANCH  20  24
ATOM     21  C   UNL     1      -0.367  10.627  21.305  0.00  0.00    +0.000 A 
ATOM     22  C   UNL     1       0.203   9.856  22.319  0.00  0.00    +0.000 A 
ATOM     23  C   UNL     1       1.053   8.794  22.002  0.00  0.00    +0.000 A 
ATOM     24  C   UNL     1       1.318   8.452  20.668  0.00  0.00    +0.000 A 
ATOM     25  C   UNL     1       0.724   9.228  19.655  0.00  0.00    +0.000 A 
ATOM     26  C   UNL     1      -0.117  10.303  19.969  0.00  0.00    +0.000 A 
BRANCH  21  28
ATOM     27  N   UNL     1      -1.368  12.059  22.997  0.00  0.00    +0.000 N 
ATOM     28  C   UNL     1      -1.180  11.822  21.647  0.00  0.00    +0.000 C 
ATOM     29  O   UNL     1      -1.620  12.545  20.765  0.00  0.00    +0.000 OA
ATOM     30  H   UNL     1      -0.930  11.466  23.689  0.00  0.00    +0.000 HD
BRANCH  27  31
ATOM     31  C   UNL     1      -2.152  13.190  23.446  0.00  0.00    +0.000 C 
BRANCH  31  32
ATOM     32  C   UNL     1      -1.282  14.397  23.799  0.00  0.00    +0.000 C 
BRANCH  32  34
ATOM     33  C   UNL     1      -0.894  16.267  25.447  0.00  0.00    +0.000 C 
ATOM     34  C   UNL     1      -1.827  15.148  25.017  0.00  0.00    +0.000 C 
ENDBRANCH  32  34
ENDBRANCH  31  32
ENDBRANCH  27  31
ENDBRANCH  21  28
ENDBRANCH  20  24
ENDBRANCH   1  20
TORSDOF 11
ENDMDL
