MODEL 1
REMARK VINA RESULT:      -8.3      0.000      0.000
REMARK  Name = 
REMARK  6 active torsions:
REMARK  status: ('A' for Active; 'I' for Inactive)
REMARK    1  A    between atoms: C_1  and  C_2
REMARK    2  A    between atoms: C_2  and  C_21
REMARK    3  A    between atoms: N_3  and  N_4
REMARK    4  A    between atoms: C_5  and  C_7
REMARK    5  A    between atoms: C_11  and  S_12
REMARK    6  A    between atoms: S_12  and  N_15
REMARK                            x       y       z     vdW  Elec       q    Type
REMARK                         _______ _______ _______ _____ _____    ______ ____
ROOT
ATOM      1  C   UNL     1       3.072   5.157  18.653  0.00  0.00    +0.000 A 
ATOM      2  C   UNL     1       3.098   3.767  18.863  0.00  0.00    +0.000 A 
ATOM      3  C   UNL     1       3.855   2.934  18.035  0.00  0.00    +0.000 A 
ATOM      4  C   UNL     1       4.613   3.480  16.996  0.00  0.00    +0.000 A 
ATOM      5  C   UNL     1       4.562   4.856  16.754  0.00  0.00    +0.000 A 
ATOM      6  C   UNL     1       3.774   5.691  17.561  0.00  0.00    +0.000 A 
ENDROOT
BRANCH   1   8
ATOM      7  N   UNL     1       2.163   7.335  19.277  0.00  0.00    +0.000 N 
ATOM      8  C   UNL     1       2.348   6.011  19.653  0.00  0.00    +0.000 C 
ATOM      9  O   UNL     1       2.016   5.523  20.729  0.00  0.00    +0.000 OA
ATOM     10  H   UNL     1       2.570   7.672  18.420  0.00  0.00    +0.000 HD
BRANCH   7  13
ATOM     11  C   UNL     1       0.919   9.716  18.248  0.00  0.00    +0.000 C 
ATOM     12  C   UNL     1       1.042   9.325  19.713  0.00  0.00    +0.000 C 
ATOM     13  N   UNL     1       1.611   8.233  20.151  0.00  0.00    +0.000 NA
BRANCH  12  14
ATOM     14  C   UNL     1       0.464  10.228  20.714  0.00  0.00    +0.000 A 
ATOM     15  C   UNL     1      -0.160   9.891  21.905  0.00  0.00    +0.000 A 
ATOM     16  C   UNL     1      -0.619  11.027  22.636  0.00  0.00    +0.000 A 
ATOM     17  C   UNL     1      -0.333  12.205  21.987  0.00  0.00    +0.000 A 
ATOM     18  S   UNL     1       0.482  11.936  20.512  0.00  0.00    +0.000 S 
ENDBRANCH  12  14
ENDBRANCH   7  13
ENDBRANCH   1   8
BRANCH   5  19
ATOM     19  S   UNL     1       5.734   5.603  15.624  0.00  0.00    +0.000 S 
ATOM     20  O   UNL     1       5.975   4.628  14.579  0.00  0.00    +0.000 OA
ATOM     21  O   UNL     1       5.226   6.922  15.304  0.00  0.00    +0.000 OA
BRANCH  19  22
ATOM     22  N   UNL     1       7.157   5.792  16.497  0.00  0.00    +0.000 NA
ATOM     23  C   UNL     1       7.625   4.729  17.394  0.00  0.00    +0.000 C 
ATOM     24  C   UNL     1       7.504   5.348  18.772  0.00  0.00    +0.000 C 
ATOM     25  C   UNL     1       7.847   6.811  18.547  0.00  0.00    +0.000 C 
ATOM     26  C   UNL     1       7.478   7.102  17.095  0.00  0.00    +0.000 C 
ENDBRANCH  19  22
ENDBRANCH   5  19
TORSDOF 5
ENDMDL
MODEL 2
REMARK VINA RESULT:      -7.9      4.246      6.785
REMARK  Name = 
REMARK  6 active torsions:
REMARK  status: ('A' for Active; 'I' for Inactive)
REMARK    1  A    between atoms: C_1  and  C_2
REMARK    2  A    between atoms: C_2  and  C_21
REMARK    3  A    between atoms: N_3  and  N_4
REMARK    4  A    between atoms: C_5  and  C_7
REMARK    5  A    between atoms: C_11  and  S_12
REMARK    6  A    between atoms: S_12  and  N_15
REMARK                            x       y       z     vdW  Elec       q    Type
REMARK                         _______ _______ _______ _____ _____    ______ ____
ROOT
ATOM      1  C   UNL     1       6.751   5.442  17.595  0.00  0.00    +0.000 A 
ATOM      2  C   UNL     1       6.925   5.541  16.204  0.00  0.00    +0.000 A 
ATOM      3  C   UNL     1       6.101   4.829  15.327  0.00  0.00    +0.000 A 
ATOM      4  C   UNL     1       5.077   4.023  15.830  0.00  0.00    +0.000 A 
ATOM      5  C   UNL     1       4.920   3.886  17.212  0.00  0.00    +0.000 A 
ATOM      6  C   UNL     1       5.770   4.570  18.095  0.00  0.00    +0.000 A 
ENDROOT
BRANCH   1   8
ATOM      7  N   UNL     1       7.791   7.614  17.993  0.00  0.00    +0.000 N 
ATOM      8  C   UNL     1       7.578   6.329  18.477  0.00  0.00    +0.000 C 
ATOM      9  O   UNL     1       8.047   5.874  19.516  0.00  0.00    +0.000 OA
ATOM     10  H   UNL     1       7.460   7.863  17.075  0.00  0.00    +0.000 HD
BRANCH   7  13
ATOM     11  C   UNL     1       7.705  10.417  17.354  0.00  0.00    +0.000 C 
ATOM     12  C   UNL     1       8.603   9.756  18.389  0.00  0.00    +0.000 C 
ATOM     13  N   UNL     1       8.618   8.478  18.659  0.00  0.00    +0.000 NA
BRANCH  12  14
ATOM     14  C   UNL     1       9.512  10.615  19.156  0.00  0.00    +0.000 A 
ATOM     15  C   UNL     1       9.433  10.952  20.499  0.00  0.00    +0.000 A 
ATOM     16  C   UNL     1      10.482  11.824  20.917  0.00  0.00    +0.000 A 
ATOM     17  C   UNL     1      11.338  12.131  19.885  0.00  0.00    +0.000 A 
ATOM     18  S   UNL     1      10.876  11.370  18.430  0.00  0.00    +0.000 S 
ENDBRANCH  12  14
ENDBRANCH   7  13
ENDBRANCH   1   8
BRANCH   5  19
ATOM     19  S   UNL     1       3.452   3.094  17.866  0.00  0.00    +0.000 S 
ATOM     20  O   UNL     1       2.359   3.471  16.992  0.00  0.00    +0.000 OA
ATOM     21  O   UNL     1       3.787   1.700  18.075  0.00  0.00    +0.000 OA
BRANCH  19  22
ATOM     22  N   UNL     1       3.183   3.795  19.369  0.00  0.00    +0.000 NA
ATOM     23  C   UNL     1       2.965   2.955  20.552  0.00  0.00    +0.000 C 
ATOM     24  C   UNL     1       1.524   3.236  20.927  0.00  0.00    +0.000 C 
ATOM     25  C   UNL     1       1.338   4.705  20.586  0.00  0.00    +0.000 C 
ATOM     26  C   UNL     1       2.338   4.999  19.472  0.00  0.00    +0.000 C 
ENDBRANCH  19  22
ENDBRANCH   5  19
TORSDOF 5
ENDMDL
MODEL 3
REMARK VINA RESULT:      -7.9      1.512      1.951
REMARK  Name = 
REMARK  6 active torsions:
REMARK  status: ('A' for Active; 'I' for Inactive)
REMARK    1  A    between atoms: C_1  and  C_2
REMARK    2  A    between atoms: C_2  and  C_21
REMARK    3  A    between atoms: N_3  and  N_4
REMARK    4  A    between atoms: C_5  and  C_7
REMARK    5  A    between atoms: C_11  and  S_12
REMARK    6  A    between atoms: S_12  and  N_15
REMARK                            x       y       z     vdW  Elec       q    Type
REMARK                         _______ _______ _______ _____ _____    ______ ____
ROOT
ATOM      1  C   UNL     1       2.974   6.768  18.229  0.00  0.00    +0.000 A 
ATOM      2  C   UNL     1       2.776   5.822  19.250  0.00  0.00    +0.000 A 
ATOM      3  C   UNL     1       3.448   4.596  19.228  0.00  0.00    +0.000 A 
ATOM      4  C   UNL     1       4.344   4.308  18.196  0.00  0.00    +0.000 A 
ATOM      5  C   UNL     1       4.518   5.225  17.156  0.00  0.00    +0.000 A 
ATOM      6  C   UNL     1       3.816   6.440  17.155  0.00  0.00    +0.000 A 
ENDROOT
BRANCH   1   8
ATOM      7  N   UNL     1       1.815   8.390  19.637  0.00  0.00    +0.000 N 
ATOM      8  C   UNL     1       2.326   8.113  18.376  0.00  0.00    +0.000 C 
ATOM      9  O   UNL     1       2.242   8.849  17.397  0.00  0.00    +0.000 OA
ATOM     10  H   UNL     1       1.831   7.679  20.350  0.00  0.00    +0.000 HD
BRANCH   7  13
ATOM     11  C   UNL     1      -0.230   8.413  21.661  0.00  0.00    +0.000 C 
ATOM     12  C   UNL     1       0.172   9.581  20.773  0.00  0.00    +0.000 C 
ATOM     13  N   UNL     1       1.108   9.542  19.863  0.00  0.00    +0.000 NA
BRANCH  12  14
ATOM     14  C   UNL     1      -0.528  10.856  20.960  0.00  0.00    +0.000 A 
ATOM     15  C   UNL     1      -0.854  11.798  19.996  0.00  0.00    +0.000 A 
ATOM     16  C   UNL     1      -1.528  12.935  20.532  0.00  0.00    +0.000 A 
ATOM     17  C   UNL     1      -1.701  12.836  21.893  0.00  0.00    +0.000 A 
ATOM     18  S   UNL     1      -1.057  11.382  22.510  0.00  0.00    +0.000 S 
ENDBRANCH  12  14
ENDBRANCH   7  13
ENDBRANCH   1   8
BRANCH   5  19
ATOM     19  S   UNL     1       5.859   5.001  15.988  0.00  0.00    +0.000 S 
ATOM     20  O   UNL     1       5.953   3.575  15.741  0.00  0.00    +0.000 OA
ATOM     21  O   UNL     1       5.625   5.928  14.900  0.00  0.00    +0.000 OA
BRANCH  19  22
ATOM     22  N   UNL     1       7.252   5.483  16.793  0.00  0.00    +0.000 NA
ATOM     23  C   UNL     1       7.793   4.675  17.892  0.00  0.00    +0.000 C 
ATOM     24  C   UNL     1       7.608   5.560  19.108  0.00  0.00    +0.000 C 
ATOM     25  C   UNL     1       7.837   6.965  18.576  0.00  0.00    +0.000 C 
ATOM     26  C   UNL     1       7.462   6.911  17.098  0.00  0.00    +0.000 C 
ENDBRANCH  19  22
ENDBRANCH   5  19
TORSDOF 5
ENDMDL
MODEL 4
REMARK VINA RESULT:      -7.8      2.628      4.076
REMARK  Name = 
REMARK  6 active torsions:
REMARK  status: ('A' for Active; 'I' for Inactive)
REMARK    1  A    between atoms: C_1  and  C_2
REMARK    2  A    between atoms: C_2  and  C_21
REMARK    3  A    between atoms: N_3  and  N_4
REMARK    4  A    between atoms: C_5  and  C_7
REMARK    5  A    between atoms: C_11  and  S_12
REMARK    6  A    between atoms: S_12  and  N_15
REMARK                            x       y       z     vdW  Elec       q    Type
REMARK                         _______ _______ _______ _____ _____    ______ ____
ROOT
ATOM      1  C   UNL     1       3.343   6.897  17.973  0.00  0.00    +0.000 A 
ATOM      2  C   UNL     1       4.630   7.089  17.440  0.00  0.00    +0.000 A 
ATOM      3  C   UNL     1       5.443   5.997  17.124  0.00  0.00    +0.000 A 
ATOM      4  C   UNL     1       4.974   4.696  17.319  0.00  0.00    +0.000 A 
ATOM      5  C   UNL     1       3.712   4.494  17.885  0.00  0.00    +0.000 A 
ATOM      6  C   UNL     1       2.908   5.589  18.238  0.00  0.00    +0.000 A 
ENDROOT
BRANCH   1   8
ATOM      7  N   UNL     1       1.897   8.220  19.427  0.00  0.00    +0.000 N 
ATOM      8  C   UNL     1       2.470   8.101  18.167  0.00  0.00    +0.000 C 
ATOM      9  O   UNL     1       2.277   8.861  17.223  0.00  0.00    +0.000 OA
ATOM     10  H   UNL     1       2.024   7.486  20.105  0.00  0.00    +0.000 HD
BRANCH   7  13
ATOM     11  C   UNL     1       1.344   8.935  22.158  0.00  0.00    +0.000 C 
ATOM     12  C   UNL     1       0.725   9.564  20.919  0.00  0.00    +0.000 C 
ATOM     13  N   UNL     1       0.998   9.220  19.689  0.00  0.00    +0.000 NA
BRANCH  12  14
ATOM     14  C   UNL     1      -0.239  10.652  21.112  0.00  0.00    +0.000 A 
ATOM     15  C   UNL     1      -0.733  11.151  22.308  0.00  0.00    +0.000 A 
ATOM     16  C   UNL     1      -1.671  12.210  22.127  0.00  0.00    +0.000 A 
ATOM     17  C   UNL     1      -1.872  12.496  20.796  0.00  0.00    +0.000 A 
ATOM     18  S   UNL     1      -0.933  11.496  19.783  0.00  0.00    +0.000 S 
ENDBRANCH  12  14
ENDBRANCH   7  13
ENDBRANCH   1   8
BRANCH   5  19
ATOM     19  S   UNL     1       2.986   2.856  17.878  0.00  0.00    +0.000 S 
ATOM     20  O   UNL     1       1.896   2.894  16.924  0.00  0.00    +0.000 OA
ATOM     21  O   UNL     1       4.077   1.915  17.719  0.00  0.00    +0.000 OA
BRANCH  19  22
ATOM     22  N   UNL     1       2.331   2.637  19.409  0.00  0.00    +0.000 NA
ATOM     23  C   UNL     1       0.932   2.992  19.675  0.00  0.00    +0.000 C 
ATOM     24  C   UNL     1       1.038   4.159  20.637  0.00  0.00    +0.000 C 
ATOM     25  C   UNL     1       2.256   3.826  21.482  0.00  0.00    +0.000 C 
ATOM     26  C   UNL     1       3.141   2.949  20.602  0.00  0.00    +0.000 C 
ENDBRANCH  19  22
ENDBRANCH   5  19
TORSDOF 5
ENDMDL
MODEL 5
REMARK VINA RESULT:      -7.6      4.192      6.994
REMARK  Name = 
REMARK  6 active torsions:
REMARK  status: ('A' for Active; 'I' for Inactive)
REMARK    1  A    between atoms: C_1  and  C_2
REMARK    2  A    between atoms: C_2  and  C_21
REMARK    3  A    between atoms: N_3  and  N_4
REMARK    4  A    between atoms: C_5  and  C_7
REMARK    5  A    between atoms: C_11  and  S_12
REMARK    6  A    between atoms: S_12  and  N_15
REMARK                            x       y       z     vdW  Elec       q    Type
REMARK                         _______ _______ _______ _____ _____    ______ ____
ROOT
ATOM      1  C   UNL     1       6.791   5.621  17.789  0.00  0.00    +0.000 A 
ATOM      2  C   UNL     1       6.624   5.893  16.420  0.00  0.00    +0.000 A 
ATOM      3  C   UNL     1       5.683   5.190  15.662  0.00  0.00    +0.000 A 
ATOM      4  C   UNL     1       4.880   4.221  16.267  0.00  0.00    +0.000 A 
ATOM      5  C   UNL     1       5.065   3.915  17.618  0.00  0.00    +0.000 A 
ATOM      6  C   UNL     1       6.036   4.592  18.373  0.00  0.00    +0.000 A 
ENDROOT
BRANCH   1   8
ATOM      7  N   UNL     1       7.874   7.788  18.088  0.00  0.00    +0.000 N 
ATOM      8  C   UNL     1       7.722   6.496  18.576  0.00  0.00    +0.000 C 
ATOM      9  O   UNL     1       8.315   6.026  19.542  0.00  0.00    +0.000 OA
ATOM     10  H   UNL     1       7.432   8.050  17.222  0.00  0.00    +0.000 HD
BRANCH   7  13
ATOM     11  C   UNL     1       7.739  10.595  17.473  0.00  0.00    +0.000 C 
ATOM     12  C   UNL     1       8.743   9.923  18.397  0.00  0.00    +0.000 C 
ATOM     13  N   UNL     1       8.778   8.644  18.660  0.00  0.00    +0.000 NA
BRANCH  12  14
ATOM     14  C   UNL     1       9.738  10.771  19.061  0.00  0.00    +0.000 A 
ATOM     15  C   UNL     1      10.937  11.239  18.546  0.00  0.00    +0.000 A 
ATOM     16  C   UNL     1      11.672  12.034  19.475  0.00  0.00    +0.000 A 
ATOM     17  C   UNL     1      11.015  12.156  20.678  0.00  0.00    +0.000 A 
ATOM     18  S   UNL     1       9.529  11.319  20.678  0.00  0.00    +0.000 S 
ENDBRANCH  12  14
ENDBRANCH   7  13
ENDBRANCH   1   8
BRANCH   5  19
ATOM     19  S   UNL     1       3.867   2.891  18.470  0.00  0.00    +0.000 S 
ATOM     20  O   UNL     1       3.463   1.864  17.531  0.00  0.00    +0.000 OA
ATOM     21  O   UNL     1       4.452   2.539  19.749  0.00  0.00    +0.000 OA
BRANCH  19  22
ATOM     22  N   UNL     1       2.541   3.882  18.760  0.00  0.00    +0.000 NA
ATOM     23  C   UNL     1       2.712   5.171  19.439  0.00  0.00    +0.000 C 
ATOM     24  C   UNL     1       1.990   4.978  20.757  0.00  0.00    +0.000 C 
ATOM     25  C   UNL     1       0.815   4.083  20.402  0.00  0.00    +0.000 C 
ATOM     26  C   UNL     1       1.261   3.283  19.181  0.00  0.00    +0.000 C 
ENDBRANCH  19  22
ENDBRANCH   5  19
TORSDOF 5
ENDMDL
MODEL 6
REMARK VINA RESULT:      -7.6      4.142      6.971
REMARK  Name = 
REMARK  6 active torsions:
REMARK  status: ('A' for Active; 'I' for Inactive)
REMARK    1  A    between atoms: C_1  and  C_2
REMARK    2  A    between atoms: C_2  and  C_21
REMARK    3  A    between atoms: N_3  and  N_4
REMARK    4  A    between atoms: C_5  and  C_7
REMARK    5  A    between atoms: C_11  and  S_12
REMARK    6  A    between atoms: S_12  and  N_15
REMARK                            x       y       z     vdW  Elec       q    Type
REMARK                         _______ _______ _______ _____ _____    ______ ____
ROOT
ATOM      1  C   UNL     1       6.687   5.888  17.607  0.00  0.00    +0.000 A 
ATOM      2  C   UNL     1       7.000   5.613  16.264  0.00  0.00    +0.000 A 
ATOM      3  C   UNL     1       6.081   4.964  15.434  0.00  0.00    +0.000 A 
ATOM      4  C   UNL     1       4.827   4.598  15.930  0.00  0.00    +0.000 A 
ATOM      5  C   UNL     1       4.521   4.831  17.274  0.00  0.00    +0.000 A 
ATOM      6  C   UNL     1       5.455   5.449  18.119  0.00  0.00    +0.000 A 
ENDROOT
BRANCH   1   8
ATOM      7  N   UNL     1       7.835   8.010  17.976  0.00  0.00    +0.000 N 
ATOM      8  C   UNL     1       7.660   6.701  18.408  0.00  0.00    +0.000 C 
ATOM      9  O   UNL     1       8.262   6.172  19.337  0.00  0.00    +0.000 OA
ATOM     10  H   UNL     1       7.380   8.323  17.134  0.00  0.00    +0.000 HD
BRANCH   7  13
ATOM     11  C   UNL     1       7.778  10.841  17.470  0.00  0.00    +0.000 C 
ATOM     12  C   UNL     1       8.776  10.103  18.350  0.00  0.00    +0.000 C 
ATOM     13  N   UNL     1       8.775   8.814  18.563  0.00  0.00    +0.000 NA
BRANCH  12  14
ATOM     14  C   UNL     1       9.809  10.894  19.026  0.00  0.00    +0.000 A 
ATOM     15  C   UNL     1       9.876  11.238  20.367  0.00  0.00    +0.000 A 
ATOM     16  C   UNL     1      11.018  12.031  20.684  0.00  0.00    +0.000 A 
ATOM     17  C   UNL     1      11.798  12.274  19.577  0.00  0.00    +0.000 A 
ATOM     18  S   UNL     1      11.153  11.548  18.174  0.00  0.00    +0.000 S 
ENDBRANCH  12  14
ENDBRANCH   7  13
ENDBRANCH   1   8
BRANCH   5  19
ATOM     19  S   UNL     1       2.835   4.632  17.849  0.00  0.00    +0.000 S 
ATOM     20  O   UNL     1       2.262   5.962  17.908  0.00  0.00    +0.000 OA
ATOM     21  O   UNL     1       2.233   3.600  17.028  0.00  0.00    +0.000 OA
BRANCH  19  22
ATOM     22  N   UNL     1       2.953   4.045  19.418  0.00  0.00    +0.000 NA
ATOM     23  C   UNL     1       3.048   2.602  19.666  0.00  0.00    +0.000 C 
ATOM     24  C   UNL     1       1.748   2.276  20.373  0.00  0.00    +0.000 C 
ATOM     25  C   UNL     1       1.471   3.509  21.217  0.00  0.00    +0.000 C 
ATOM     26  C   UNL     1       2.153   4.665  20.491  0.00  0.00    +0.000 C 
ENDBRANCH  19  22
ENDBRANCH   5  19
TORSDOF 5
ENDMDL
MODEL 7
REMARK VINA RESULT:      -7.6      3.980      6.783
REMARK  Name = 
REMARK  6 active torsions:
REMARK  status: ('A' for Active; 'I' for Inactive)
REMARK    1  A    between atoms: C_1  and  C_2
REMARK    2  A    between atoms: C_2  and  C_21
REMARK    3  A    between atoms: N_3  and  N_4
REMARK    4  A    between atoms: C_5  and  C_7
REMARK    5  A    between atoms: C_11  and  S_12
REMARK    6  A    between atoms: S_12  and  N_15
REMARK                            x       y       z     vdW  Elec       q    Type
REMARK                         _______ _______ _______ _____ _____    ______ ____
ROOT
ATOM      1  C   UNL     1       6.815   5.501  17.811  0.00  0.00    +0.000 A 
ATOM      2  C   UNL     1       6.756   5.656  16.415  0.00  0.00    +0.000 A 
ATOM      3  C   UNL     1       5.843   4.922  15.652  0.00  0.00    +0.000 A 
ATOM      4  C   UNL     1       4.962   4.036  16.277  0.00  0.00    +0.000 A 
ATOM      5  C   UNL     1       5.039   3.845  17.660  0.00  0.00    +0.000 A 
ATOM      6  C   UNL     1       5.979   4.553  18.424  0.00  0.00    +0.000 A 
ENDROOT
BRANCH   1   8
ATOM      7  N   UNL     1       7.855   7.693  18.073  0.00  0.00    +0.000 N 
ATOM      8  C   UNL     1       7.722   6.410  18.587  0.00  0.00    +0.000 C 
ATOM      9  O   UNL     1       8.314   5.972  19.569  0.00  0.00    +0.000 OA
ATOM     10  H   UNL     1       7.416   7.928  17.197  0.00  0.00    +0.000 HD
BRANCH   7  13
ATOM     11  C   UNL     1       7.666  10.485  17.404  0.00  0.00    +0.000 C 
ATOM     12  C   UNL     1       8.677   9.851  18.347  0.00  0.00    +0.000 C 
ATOM     13  N   UNL     1       8.737   8.578  18.634  0.00  0.00    +0.000 NA
BRANCH  12  14
ATOM     14  C   UNL     1       9.651  10.732  19.001  0.00  0.00    +0.000 A 
ATOM     15  C   UNL     1       9.768  11.017  20.352  0.00  0.00    +0.000 A 
ATOM     16  C   UNL     1      10.825  11.931  20.640  0.00  0.00    +0.000 A 
ATOM     17  C   UNL     1      11.491  12.321  19.501  0.00  0.00    +0.000 A 
ATOM     18  S   UNL     1      10.844  11.587  18.104  0.00  0.00    +0.000 S 
ENDBRANCH  12  14
ENDBRANCH   7  13
ENDBRANCH   1   8
BRANCH   5  19
ATOM     19  S   UNL     1       3.743   2.941  18.505  0.00  0.00    +0.000 S 
ATOM     20  O   UNL     1       3.155   2.052  17.523  0.00  0.00    +0.000 OA
ATOM     21  O   UNL     1       4.326   2.418  19.725  0.00  0.00    +0.000 OA
BRANCH  19  22
ATOM     22  N   UNL     1       2.588   4.084  18.930  0.00  0.00    +0.000 NA
ATOM     23  C   UNL     1       1.935   4.899  17.899  0.00  0.00    +0.000 C 
ATOM     24  C   UNL     1       2.434   6.301  18.184  0.00  0.00    +0.000 C 
ATOM     25  C   UNL     1       2.545   6.348  19.699  0.00  0.00    +0.000 C 
ATOM     26  C   UNL     1       2.784   4.906  20.139  0.00  0.00    +0.000 C 
ENDBRANCH  19  22
ENDBRANCH   5  19
TORSDOF 5
ENDMDL
MODEL 8
REMARK VINA RESULT:      -7.6      1.763      2.290
REMARK  Name = 
REMARK  6 active torsions:
REMARK  status: ('A' for Active; 'I' for Inactive)
REMARK    1  A    between atoms: C_1  and  C_2
REMARK    2  A    between atoms: C_2  and  C_21
REMARK    3  A    between atoms: N_3  and  N_4
REMARK    4  A    between atoms: C_5  and  C_7
REMARK    5  A    between atoms: C_11  and  S_12
REMARK    6  A    between atoms: S_12  and  N_15
REMARK                            x       y       z     vdW  Elec       q    Type
REMARK                         _______ _______ _______ _____ _____    ______ ____
ROOT
ATOM      1  C   UNL     1       3.058   4.897  19.346  0.00  0.00    +0.000 A 
ATOM      2  C   UNL     1       2.827   3.519  19.193  0.00  0.00    +0.000 A 
ATOM      3  C   UNL     1       3.728   2.717  18.487  0.00  0.00    +0.000 A 
ATOM      4  C   UNL     1       4.884   3.278  17.940  0.00  0.00    +0.000 A 
ATOM      5  C   UNL     1       5.104   4.654  18.052  0.00  0.00    +0.000 A 
ATOM      6  C   UNL     1       4.182   5.469  18.728  0.00  0.00    +0.000 A 
ENDROOT
BRANCH   1   8
ATOM      7  N   UNL     1       2.156   7.055  20.043  0.00  0.00    +0.000 N 
ATOM      8  C   UNL     1       2.126   5.679  20.224  0.00  0.00    +0.000 C 
ATOM      9  O   UNL     1       1.448   5.086  21.058  0.00  0.00    +0.000 OA
ATOM     10  H   UNL     1       2.827   7.461  19.411  0.00  0.00    +0.000 HD
BRANCH   7  13
ATOM     11  C   UNL     1       1.206   9.570  19.019  0.00  0.00    +0.000 C 
ATOM     12  C   UNL     1       0.986   9.028  20.423  0.00  0.00    +0.000 C 
ATOM     13  N   UNL     1       1.428   7.879  20.860  0.00  0.00    +0.000 NA
BRANCH  12  14
ATOM     14  C   UNL     1       0.203   9.844  21.358  0.00  0.00    +0.000 A 
ATOM     15  C   UNL     1      -0.298   9.476  22.597  0.00  0.00    +0.000 A 
ATOM     16  C   UNL     1      -1.029  10.520  23.236  0.00  0.00    +0.000 A 
ATOM     17  C   UNL     1      -1.068  11.663  22.472  0.00  0.00    +0.000 A 
ATOM     18  S   UNL     1      -0.228  11.471  20.999  0.00  0.00    +0.000 S 
ENDBRANCH  12  14
ENDBRANCH   7  13
ENDBRANCH   1   8
BRANCH   5  19
ATOM     19  S   UNL     1       6.700   5.338  17.612  0.00  0.00    +0.000 S 
ATOM     20  O   UNL     1       6.790   6.627  18.267  0.00  0.00    +0.000 OA
ATOM     21  O   UNL     1       7.683   4.305  17.869  0.00  0.00    +0.000 OA
BRANCH  19  22
ATOM     22  N   UNL     1       6.645   5.600  15.953  0.00  0.00    +0.000 NA
ATOM     23  C   UNL     1       5.365   5.858  15.284  0.00  0.00    +0.000 C 
ATOM     24  C   UNL     1       5.171   4.639  14.405  0.00  0.00    +0.000 C 
ATOM     25  C   UNL     1       6.579   4.282  13.959  0.00  0.00    +0.000 C 
ATOM     26  C   UNL     1       7.502   4.800  15.058  0.00  0.00    +0.000 C 
ENDBRANCH  19  22
ENDBRANCH   5  19
TORSDOF 5
ENDMDL
MODEL 9
REMARK VINA RESULT:      -7.5      2.234      2.928
REMARK  Name = 
REMARK  6 active torsions:
REMARK  status: ('A' for Active; 'I' for Inactive)
REMARK    1  A    between atoms: C_1  and  C_2
REMARK    2  A    between atoms: C_2  and  C_21
REMARK    3  A    between atoms: N_3  and  N_4
REMARK    4  A    between atoms: C_5  and  C_7
REMARK    5  A    between atoms: C_11  and  S_12
REMARK    6  A    between atoms: S_12  and  N_15
REMARK                            x       y       z     vdW  Elec       q    Type
REMARK                         _______ _______ _______ _____ _____    ______ ____
ROOT
ATOM      1  C   UNL     1       3.574   6.684  18.203  0.00  0.00    +0.000 A 
ATOM      2  C   UNL     1       3.430   5.699  19.196  0.00  0.00    +0.000 A 
ATOM      3  C   UNL     1       4.323   4.626  19.274  0.00  0.00    +0.000 A 
ATOM      4  C   UNL     1       5.384   4.533  18.371  0.00  0.00    +0.000 A 
ATOM      5  C   UNL     1       5.513   5.484  17.355  0.00  0.00    +0.000 A 
ATOM      6  C   UNL     1       4.597   6.542  17.252  0.00  0.00    +0.000 A 
ENDROOT
BRANCH   1   8
ATOM      7  N   UNL     1       2.014   8.075  19.462  0.00  0.00    +0.000 N 
ATOM      8  C   UNL     1       2.666   7.877  18.252  0.00  0.00    +0.000 C 
ATOM      9  O   UNL     1       2.517   8.560  17.243  0.00  0.00    +0.000 OA
ATOM     10  H   UNL     1       2.113   7.397  20.200  0.00  0.00    +0.000 HD
BRANCH   7  13
ATOM     11  C   UNL     1       1.259   8.960  22.093  0.00  0.00    +0.000 C 
ATOM     12  C   UNL     1       0.715   9.489  20.775  0.00  0.00    +0.000 C 
ATOM     13  N   UNL     1       1.080   9.069  19.593  0.00  0.00    +0.000 NA
BRANCH  12  14
ATOM     14  C   UNL     1      -0.280  10.565  20.826  0.00  0.00    +0.000 A 
ATOM     15  C   UNL     1      -0.732  11.255  21.940  0.00  0.00    +0.000 A 
ATOM     16  C   UNL     1      -1.720  12.235  21.627  0.00  0.00    +0.000 A 
ATOM     17  C   UNL     1      -1.998  12.272  20.281  0.00  0.00    +0.000 A 
ATOM     18  S   UNL     1      -1.073  11.135  19.409  0.00  0.00    +0.000 S 
ENDBRANCH  12  14
ENDBRANCH   7  13
ENDBRANCH   1   8
BRANCH   5  19
ATOM     19  S   UNL     1       7.013   5.542  16.377  0.00  0.00    +0.000 S 
ATOM     20  O   UNL     1       7.587   6.857  16.582  0.00  0.00    +0.000 OA
ATOM     21  O   UNL     1       7.767   4.346  16.695  0.00  0.00    +0.000 OA
BRANCH  19  22
ATOM     22  N   UNL     1       6.520   5.434  14.774  0.00  0.00    +0.000 NA
ATOM     23  C   UNL     1       5.364   4.607  14.407  0.00  0.00    +0.000 C 
ATOM     24  C   UNL     1       5.972   3.493  13.578  0.00  0.00    +0.000 C 
ATOM     25  C   UNL     1       7.106   4.174  12.829  0.00  0.00    +0.000 C 
ATOM     26  C   UNL     1       7.530   5.350  13.703  0.00  0.00    +0.000 C 
ENDBRANCH  19  22
ENDBRANCH   5  19
TORSDOF 5
ENDMDL
