MODEL 1
REMARK VINA RESULT:      -7.5      0.000      0.000
REMARK  Name = 
REMARK  6 active torsions:
REMARK  status: ('A' for Active; 'I' for Inactive)
REMARK    1  A    between atoms: C_1  and  C_2
REMARK    2  A    between atoms: C_5  and  C_6
REMARK    3  A    between atoms: N_9  and  C_10
REMARK    4  A    between atoms: C_13  and  C_14
REMARK    5  A    between atoms: C_14  and  O_16
REMARK    6  A    between atoms: C_19  and  S_20
REMARK                            x       y       z     vdW  Elec       q    Type
REMARK                         _______ _______ _______ _____ _____    ______ ____
ROOT
ATOM      1  C   UNL     1       1.003   8.921  20.137  0.00  0.00    +0.000 C 
ATOM      2  N   UNL     1       1.448   9.397  19.032  0.00  0.00    +0.000 NA
ATOM      3  C   UNL     1       2.365   8.580  18.263  0.00  0.00    +0.000 C 
ATOM      4  N   UNL     1       2.649   7.229  18.721  0.00  0.00    +0.000 N 
ATOM      5  C   UNL     1       2.061   6.899  19.923  0.00  0.00    +0.000 C 
ATOM      6  N   UNL     1       1.285   7.675  20.606  0.00  0.00    +0.000 NA
ENDROOT
BRANCH   1  11
ATOM      7  C   UNL     1      -2.331  12.310  23.476  0.00  0.00    +0.000 C 
ATOM      8  C   UNL     1      -1.472  11.436  22.612  0.00  0.00    +0.000 A 
ATOM      9  C   UNL     1      -1.235  11.764  21.272  0.00  0.00    +0.000 A 
ATOM     10  C   UNL     1      -0.438  10.941  20.475  0.00  0.00    +0.000 A 
ATOM     11  C   UNL     1       0.133   9.775  21.005  0.00  0.00    +0.000 A 
ATOM     12  C   UNL     1      -0.097   9.450  22.346  0.00  0.00    +0.000 A 
ATOM     13  C   UNL     1      -0.895  10.276  23.144  0.00  0.00    +0.000 A 
ENDBRANCH   1  11
BRANCH   4  14
ATOM     14  C   UNL     1       3.467   6.460  17.852  0.00  0.00    +0.000 A 
ATOM     15  C   UNL     1       4.501   7.058  17.094  0.00  0.00    +0.000 A 
ATOM     16  C   UNL     1       5.359   6.316  16.268  0.00  0.00    +0.000 A 
ATOM     17  C   UNL     1       5.210   4.935  16.178  0.00  0.00    +0.000 A 
ATOM     18  C   UNL     1       4.185   4.316  16.896  0.00  0.00    +0.000 A 
ATOM     19  C   UNL     1       3.309   5.076  17.688  0.00  0.00    +0.000 A 
BRANCH  17  20
ATOM     20  C   UNL     1       6.133   4.088  15.386  0.00  0.00    +0.000 C 
ATOM     21  O   UNL     1       6.980   4.552  14.642  0.00  0.00    +0.000 OA
BRANCH  20  22
ATOM     22  O   UNL     1       5.977   2.764  15.581  0.00  0.00    +0.000 OA
ATOM     23  H   UNL     1       5.115   2.495  15.946  0.00  0.00    +0.000 HD
ENDBRANCH  20  22
ENDBRANCH  17  20
ENDBRANCH   4  14
BRANCH   5  24
ATOM     24  S   UNL     1       2.349   5.376  20.772  0.00  0.00    +0.000 S 
ATOM     25  H   UNL     1       3.324   5.790  21.584  0.00  0.00    +0.000 HD
ENDBRANCH   5  24
TORSDOF 5
ENDMDL
MODEL 2
REMARK VINA RESULT:      -7.3      0.330      1.456
REMARK  Name = 
REMARK  6 active torsions:
REMARK  status: ('A' for Active; 'I' for Inactive)
REMARK    1  A    between atoms: C_1  and  C_2
REMARK    2  A    between atoms: C_5  and  C_6
REMARK    3  A    between atoms: N_9  and  C_10
REMARK    4  A    between atoms: C_13  and  C_14
REMARK    5  A    between atoms: C_14  and  O_16
REMARK    6  A    between atoms: C_19  and  S_20
REMARK                            x       y       z     vdW  Elec       q    Type
REMARK                         _______ _______ _______ _____ _____    ______ ____
ROOT
ATOM      1  C   UNL     1       1.018   8.973  20.109  0.00  0.00    +0.000 C 
ATOM      2  N   UNL     1       1.474   9.421  18.997  0.00  0.00    +0.000 NA
ATOM      3  C   UNL     1       2.380   8.573  18.247  0.00  0.00    +0.000 C 
ATOM      4  N   UNL     1       2.638   7.226  18.730  0.00  0.00    +0.000 N 
ATOM      5  C   UNL     1       2.041   6.929  19.936  0.00  0.00    +0.000 C 
ATOM      6  N   UNL     1       1.276   7.731  20.602  0.00  0.00    +0.000 NA
ENDROOT
BRANCH   1  11
ATOM      7  C   UNL     1      -2.359  12.335  23.433  0.00  0.00    +0.000 C 
ATOM      8  C   UNL     1      -1.486  11.466  22.577  0.00  0.00    +0.000 A 
ATOM      9  C   UNL     1      -0.876  10.323  23.105  0.00  0.00    +0.000 A 
ATOM     10  C   UNL     1      -0.060   9.525  22.301  0.00  0.00    +0.000 A 
ATOM     11  C   UNL     1       0.160   9.859  20.958  0.00  0.00    +0.000 A 
ATOM     12  C   UNL     1      -0.456  10.997  20.427  0.00  0.00    +0.000 A 
ATOM     13  C   UNL     1      -1.273  11.796  21.233  0.00  0.00    +0.000 A 
ENDBRANCH   1  11
BRANCH   4  14
ATOM     14  C   UNL     1       3.445   6.428  17.878  0.00  0.00    +0.000 A 
ATOM     15  C   UNL     1       3.207   5.042  17.723  0.00  0.00    +0.000 A 
ATOM     16  C   UNL     1       3.954   4.239  16.848  0.00  0.00    +0.000 A 
ATOM     17  C   UNL     1       4.972   4.807  16.087  0.00  0.00    +0.000 A 
ATOM     18  C   UNL     1       5.247   6.168  16.232  0.00  0.00    +0.000 A 
ATOM     19  C   UNL     1       4.518   6.950  17.140  0.00  0.00    +0.000 A 
BRANCH  17  20
ATOM     20  C   UNL     1       5.743   4.029  15.089  0.00  0.00    +0.000 C 
ATOM     21  O   UNL     1       5.846   4.370  13.923  0.00  0.00    +0.000 OA
BRANCH  20  22
ATOM     22  O   UNL     1       6.344   2.931  15.584  0.00  0.00    +0.000 OA
ATOM     23  H   UNL     1       7.047   3.099  16.237  0.00  0.00    +0.000 HD
ENDBRANCH  20  22
ENDBRANCH  17  20
ENDBRANCH   4  14
BRANCH   5  24
ATOM     24  S   UNL     1       2.299   5.418  20.814  0.00  0.00    +0.000 S 
ATOM     25  H   UNL     1       2.326   4.590  19.769  0.00  0.00    +0.000 HD
ENDBRANCH   5  24
TORSDOF 5
ENDMDL
MODEL 3
REMARK VINA RESULT:      -7.3      0.451      1.167
REMARK  Name = 
REMARK  6 active torsions:
REMARK  status: ('A' for Active; 'I' for Inactive)
REMARK    1  A    between atoms: C_1  and  C_2
REMARK    2  A    between atoms: C_5  and  C_6
REMARK    3  A    between atoms: N_9  and  C_10
REMARK    4  A    between atoms: C_13  and  C_14
REMARK    5  A    between atoms: C_14  and  O_16
REMARK    6  A    between atoms: C_19  and  S_20
REMARK                            x       y       z     vdW  Elec       q    Type
REMARK                         _______ _______ _______ _____ _____    ______ ____
ROOT
ATOM      1  C   UNL     1       1.134   8.926  20.045  0.00  0.00    +0.000 C 
ATOM      2  N   UNL     1       1.582   9.422  18.950  0.00  0.00    +0.000 NA
ATOM      3  C   UNL     1       2.512   8.625  18.176  0.00  0.00    +0.000 C 
ATOM      4  N   UNL     1       2.805   7.270  18.616  0.00  0.00    +0.000 N 
ATOM      5  C   UNL     1       2.212   6.917  19.809  0.00  0.00    +0.000 C 
ATOM      6  N   UNL     1       1.423   7.675  20.498  0.00  0.00    +0.000 NA
ENDROOT
BRANCH   1  11
ATOM      7  C   UNL     1      -2.342  12.084  23.465  0.00  0.00    +0.000 C 
ATOM      8  C   UNL     1      -1.443  11.268  22.584  0.00  0.00    +0.000 A 
ATOM      9  C   UNL     1      -0.789  10.136  23.082  0.00  0.00    +0.000 A 
ATOM     10  C   UNL     1       0.050   9.387  22.255  0.00  0.00    +0.000 A 
ATOM     11  C   UNL     1       0.249   9.760  20.919  0.00  0.00    +0.000 A 
ATOM     12  C   UNL     1      -0.411  10.887  20.418  0.00  0.00    +0.000 A 
ATOM     13  C   UNL     1      -1.251  11.637  21.247  0.00  0.00    +0.000 A 
ENDBRANCH   1  11
BRANCH   4  14
ATOM     14  C   UNL     1       3.636   6.522  17.741  0.00  0.00    +0.000 A 
ATOM     15  C   UNL     1       4.616   7.151  16.939  0.00  0.00    +0.000 A 
ATOM     16  C   UNL     1       5.486   6.433  16.105  0.00  0.00    +0.000 A 
ATOM     17  C   UNL     1       5.406   5.043  16.053  0.00  0.00    +0.000 A 
ATOM     18  C   UNL     1       4.436   4.393  16.818  0.00  0.00    +0.000 A 
ATOM     19  C   UNL     1       3.545   5.127  17.616  0.00  0.00    +0.000 A 
BRANCH  17  20
ATOM     20  C   UNL     1       6.348   4.224  15.255  0.00  0.00    +0.000 C 
ATOM     21  O   UNL     1       5.996   3.561  14.295  0.00  0.00    +0.000 OA
BRANCH  20  22
ATOM     22  O   UNL     1       7.630   4.299  15.661  0.00  0.00    +0.000 OA
ATOM     23  H   UNL     1       7.770   4.728  16.524  0.00  0.00    +0.000 HD
ENDBRANCH  20  22
ENDBRANCH  17  20
ENDBRANCH   4  14
BRANCH   5  24
ATOM     24  S   UNL     1       2.507   5.385  20.638  0.00  0.00    +0.000 S 
ATOM     25  H   UNL     1       1.392   4.750  20.274  0.00  0.00    +0.000 HD
ENDBRANCH   5  24
TORSDOF 5
ENDMDL
MODEL 4
REMARK VINA RESULT:      -7.3      0.506      1.198
REMARK  Name = 
REMARK  6 active torsions:
REMARK  status: ('A' for Active; 'I' for Inactive)
REMARK    1  A    between atoms: C_1  and  C_2
REMARK    2  A    between atoms: C_5  and  C_6
REMARK    3  A    between atoms: N_9  and  C_10
REMARK    4  A    between atoms: C_13  and  C_14
REMARK    5  A    between atoms: C_14  and  O_16
REMARK    6  A    between atoms: C_19  and  S_20
REMARK                            x       y       z     vdW  Elec       q    Type
REMARK                         _______ _______ _______ _____ _____    ______ ____
ROOT
ATOM      1  C   UNL     1       1.164   8.764  20.050  0.00  0.00    +0.000 C 
ATOM      2  N   UNL     1       1.631   9.288  18.976  0.00  0.00    +0.000 NA
ATOM      3  C   UNL     1       2.575   8.512  18.198  0.00  0.00    +0.000 C 
ATOM      4  N   UNL     1       2.861   7.146  18.608  0.00  0.00    +0.000 N 
ATOM      5  C   UNL     1       2.248   6.762  19.781  0.00  0.00    +0.000 C 
ATOM      6  N   UNL     1       1.447   7.502  20.475  0.00  0.00    +0.000 NA
ENDROOT
BRANCH   1  11
ATOM      7  C   UNL     1      -2.287  11.984  23.437  0.00  0.00    +0.000 C 
ATOM      8  C   UNL     1      -1.398  11.153  22.560  0.00  0.00    +0.000 A 
ATOM      9  C   UNL     1      -1.172  11.510  21.226  0.00  0.00    +0.000 A 
ATOM     10  C   UNL     1      -0.347  10.727  20.418  0.00  0.00    +0.000 A 
ATOM     11  C   UNL     1       0.264   9.574  20.929  0.00  0.00    +0.000 A 
ATOM     12  C   UNL     1       0.045   9.221  22.266  0.00  0.00    +0.000 A 
ATOM     13  C   UNL     1      -0.781  10.006  23.075  0.00  0.00    +0.000 A 
ENDBRANCH   1  11
BRANCH   4  14
ATOM     14  C   UNL     1       3.708   6.421  17.728  0.00  0.00    +0.000 A 
ATOM     15  C   UNL     1       3.513   5.041  17.489  0.00  0.00    +0.000 A 
ATOM     16  C   UNL     1       4.301   4.311  16.585  0.00  0.00    +0.000 A 
ATOM     17  C   UNL     1       5.317   4.950  15.880  0.00  0.00    +0.000 A 
ATOM     18  C   UNL     1       5.548   6.308  16.108  0.00  0.00    +0.000 A 
ATOM     19  C   UNL     1       4.779   7.016  17.045  0.00  0.00    +0.000 A 
BRANCH  17  20
ATOM     20  C   UNL     1       6.129   4.254  14.855  0.00  0.00    +0.000 C 
ATOM     21  O   UNL     1       5.634   3.642  13.924  0.00  0.00    +0.000 OA
BRANCH  20  22
ATOM     22  O   UNL     1       7.460   4.380  15.021  0.00  0.00    +0.000 OA
ATOM     23  H   UNL     1       7.736   4.923  15.782  0.00  0.00    +0.000 HD
ENDBRANCH  20  22
ENDBRANCH  17  20
ENDBRANCH   4  14
BRANCH   5  24
ATOM     24  S   UNL     1       2.531   5.209  20.574  0.00  0.00    +0.000 S 
ATOM     25  H   UNL     1       1.531   5.258  21.456  0.00  0.00    +0.000 HD
ENDBRANCH   5  24
TORSDOF 5
ENDMDL
MODEL 5
REMARK VINA RESULT:      -7.3      4.757      9.096
REMARK  Name = 
REMARK  6 active torsions:
REMARK  status: ('A' for Active; 'I' for Inactive)
REMARK    1  A    between atoms: C_1  and  C_2
REMARK    2  A    between atoms: C_5  and  C_6
REMARK    3  A    between atoms: N_9  and  C_10
REMARK    4  A    between atoms: C_13  and  C_14
REMARK    5  A    between atoms: C_14  and  O_16
REMARK    6  A    between atoms: C_19  and  S_20
REMARK                            x       y       z     vdW  Elec       q    Type
REMARK                         _______ _______ _______ _____ _____    ______ ____
ROOT
ATOM      1  C   UNL     1       2.653   7.132  18.664  0.00  0.00    +0.000 C 
ATOM      2  N   UNL     1       2.172   6.694  19.770  0.00  0.00    +0.000 NA
ATOM      3  C   UNL     1       1.406   7.614  20.586  0.00  0.00    +0.000 C 
ATOM      4  N   UNL     1       1.127   8.944  20.066  0.00  0.00    +0.000 N 
ATOM      5  C   UNL     1       1.719   9.217  18.852  0.00  0.00    +0.000 C 
ATOM      6  N   UNL     1       2.438   8.384  18.174  0.00  0.00    +0.000 NA
ENDROOT
BRANCH   1  11
ATOM      7  C   UNL     1       6.052   3.727  15.407  0.00  0.00    +0.000 C 
ATOM      8  C   UNL     1       5.176   4.608  16.249  0.00  0.00    +0.000 A 
ATOM      9  C   UNL     1       5.383   5.991  16.293  0.00  0.00    +0.000 A 
ATOM     10  C   UNL     1       4.566   6.800  17.083  0.00  0.00    +0.000 A 
ATOM     11  C   UNL     1       3.531   6.240  17.844  0.00  0.00    +0.000 A 
ATOM     12  C   UNL     1       3.318   4.858  17.794  0.00  0.00    +0.000 A 
ATOM     13  C   UNL     1       4.137   4.047  17.001  0.00  0.00    +0.000 A 
ENDBRANCH   1  11
BRANCH   4  14
ATOM     14  C   UNL     1       0.277   9.739  20.879  0.00  0.00    +0.000 A 
ATOM     15  C   UNL     1       0.134   9.488  22.263  0.00  0.00    +0.000 A 
ATOM     16  C   UNL     1      -0.656  10.289  23.100  0.00  0.00    +0.000 A 
ATOM     17  C   UNL     1      -1.333  11.385  22.572  0.00  0.00    +0.000 A 
ATOM     18  C   UNL     1      -1.230  11.649  21.205  0.00  0.00    +0.000 A 
ATOM     19  C   UNL     1      -0.468  10.815  20.372  0.00  0.00    +0.000 A 
BRANCH  17  20
ATOM     20  C   UNL     1      -2.119  12.315  23.417  0.00  0.00    +0.000 C 
ATOM     21  O   UNL     1      -1.729  13.434  23.706  0.00  0.00    +0.000 OA
BRANCH  20  22
ATOM     22  O   UNL     1      -3.311  11.831  23.815  0.00  0.00    +0.000 OA
ATOM     23  H   UNL     1      -4.055  12.007  23.211  0.00  0.00    +0.000 HD
ENDBRANCH  20  22
ENDBRANCH  17  20
ENDBRANCH   4  14
BRANCH   5  24
ATOM     24  S   UNL     1       1.657  10.796  18.062  0.00  0.00    +0.000 S 
ATOM     25  H   UNL     1       0.369  11.068  18.274  0.00  0.00    +0.000 HD
ENDBRANCH   5  24
TORSDOF 5
ENDMDL
MODEL 6
REMARK VINA RESULT:      -7.2      4.798      9.104
REMARK  Name = 
REMARK  6 active torsions:
REMARK  status: ('A' for Active; 'I' for Inactive)
REMARK    1  A    between atoms: C_1  and  C_2
REMARK    2  A    between atoms: C_5  and  C_6
REMARK    3  A    between atoms: N_9  and  C_10
REMARK    4  A    between atoms: C_13  and  C_14
REMARK    5  A    between atoms: C_14  and  O_16
REMARK    6  A    between atoms: C_19  and  S_20
REMARK                            x       y       z     vdW  Elec       q    Type
REMARK                         _______ _______ _______ _____ _____    ______ ____
ROOT
ATOM      1  C   UNL     1       2.609   7.248  18.720  0.00  0.00    +0.000 C 
ATOM      2  N   UNL     1       2.140   6.822  19.835  0.00  0.00    +0.000 NA
ATOM      3  C   UNL     1       1.400   7.757  20.659  0.00  0.00    +0.000 C 
ATOM      4  N   UNL     1       1.131   9.088  20.137  0.00  0.00    +0.000 N 
ATOM      5  C   UNL     1       1.708   9.347  18.912  0.00  0.00    +0.000 C 
ATOM      6  N   UNL     1       2.405   8.500  18.227  0.00  0.00    +0.000 NA
ENDROOT
BRANCH   1  11
ATOM      7  C   UNL     1       5.906   3.779  15.425  0.00  0.00    +0.000 C 
ATOM      8  C   UNL     1       5.057   4.676  16.276  0.00  0.00    +0.000 A 
ATOM      9  C   UNL     1       5.272   6.059  16.295  0.00  0.00    +0.000 A 
ATOM     10  C   UNL     1       4.479   6.884  17.094  0.00  0.00    +0.000 A 
ATOM     11  C   UNL     1       3.462   6.340  17.889  0.00  0.00    +0.000 A 
ATOM     12  C   UNL     1       3.241   4.958  17.866  0.00  0.00    +0.000 A 
ATOM     13  C   UNL     1       4.035   4.132  17.064  0.00  0.00    +0.000 A 
ENDBRANCH   1  11
BRANCH   4  14
ATOM     14  C   UNL     1       0.306   9.899  20.959  0.00  0.00    +0.000 A 
ATOM     15  C   UNL     1      -0.342  11.047  20.447  0.00  0.00    +0.000 A 
ATOM     16  C   UNL     1      -1.205  11.837  21.221  0.00  0.00    +0.000 A 
ATOM     17  C   UNL     1      -1.454  11.494  22.548  0.00  0.00    +0.000 A 
ATOM     18  C   UNL     1      -0.814  10.378  23.090  0.00  0.00    +0.000 A 
ATOM     19  C   UNL     1       0.078   9.621  22.315  0.00  0.00    +0.000 A 
BRANCH  17  20
ATOM     20  C   UNL     1      -2.416  12.241  23.393  0.00  0.00    +0.000 C 
ATOM     21  O   UNL     1      -3.447  11.746  23.814  0.00  0.00    +0.000 OA
BRANCH  20  22
ATOM     22  O   UNL     1      -2.039  13.502  23.680  0.00  0.00    +0.000 OA
ATOM     23  H   UNL     1      -2.735  14.177  23.588  0.00  0.00    +0.000 HD
ENDBRANCH  20  22
ENDBRANCH  17  20
ENDBRANCH   4  14
BRANCH   5  24
ATOM     24  S   UNL     1       1.657  10.923  18.116  0.00  0.00    +0.000 S 
ATOM     25  H   UNL     1       2.960  11.053  17.861  0.00  0.00    +0.000 HD
ENDBRANCH   5  24
TORSDOF 5
ENDMDL
MODEL 7
REMARK VINA RESULT:      -7.2      4.774      9.141
REMARK  Name = 
REMARK  6 active torsions:
REMARK  status: ('A' for Active; 'I' for Inactive)
REMARK    1  A    between atoms: C_1  and  C_2
REMARK    2  A    between atoms: C_5  and  C_6
REMARK    3  A    between atoms: N_9  and  C_10
REMARK    4  A    between atoms: C_13  and  C_14
REMARK    5  A    between atoms: C_14  and  O_16
REMARK    6  A    between atoms: C_19  and  S_20
REMARK                            x       y       z     vdW  Elec       q    Type
REMARK                         _______ _______ _______ _____ _____    ______ ____
ROOT
ATOM      1  C   UNL     1       2.642   7.211  18.647  0.00  0.00    +0.000 C 
ATOM      2  N   UNL     1       2.169   6.765  19.752  0.00  0.00    +0.000 NA
ATOM      3  C   UNL     1       1.400   7.675  20.577  0.00  0.00    +0.000 C 
ATOM      4  N   UNL     1       1.111   9.006  20.066  0.00  0.00    +0.000 N 
ATOM      5  C   UNL     1       1.697   9.290  18.851  0.00  0.00    +0.000 C 
ATOM      6  N   UNL     1       2.418   8.465  18.166  0.00  0.00    +0.000 NA
ENDROOT
BRANCH   1  11
ATOM      7  C   UNL     1       6.070   3.733  15.500  0.00  0.00    +0.000 C 
ATOM      8  C   UNL     1       5.183   4.630  16.312  0.00  0.00    +0.000 A 
ATOM      9  C   UNL     1       4.148   4.099  17.090  0.00  0.00    +0.000 A 
ATOM     10  C   UNL     1       3.325   4.942  17.837  0.00  0.00    +0.000 A 
ATOM     11  C   UNL     1       3.522   6.329  17.818  0.00  0.00    +0.000 A 
ATOM     12  C   UNL     1       4.562   6.861  17.047  0.00  0.00    +0.000 A 
ATOM     13  C   UNL     1       5.387   6.015  16.299  0.00  0.00    +0.000 A 
ENDBRANCH   1  11
BRANCH   4  14
ATOM     14  C   UNL     1       0.260   9.792  20.887  0.00  0.00    +0.000 A 
ATOM     15  C   UNL     1       0.116   9.524  22.268  0.00  0.00    +0.000 A 
ATOM     16  C   UNL     1      -0.676  10.315  23.113  0.00  0.00    +0.000 A 
ATOM     17  C   UNL     1      -1.352  11.418  22.597  0.00  0.00    +0.000 A 
ATOM     18  C   UNL     1      -1.247  11.698  21.233  0.00  0.00    +0.000 A 
ATOM     19  C   UNL     1      -0.484  10.874  20.392  0.00  0.00    +0.000 A 
BRANCH  17  20
ATOM     20  C   UNL     1      -2.139  12.337  23.452  0.00  0.00    +0.000 C 
ATOM     21  O   UNL     1      -1.753  13.455  23.750  0.00  0.00    +0.000 OA
BRANCH  20  22
ATOM     22  O   UNL     1      -3.329  11.846  23.848  0.00  0.00    +0.000 OA
ATOM     23  H   UNL     1      -3.286  11.075  24.441  0.00  0.00    +0.000 HD
ENDBRANCH  20  22
ENDBRANCH  17  20
ENDBRANCH   4  14
BRANCH   5  24
ATOM     24  S   UNL     1       1.623  10.873  18.071  0.00  0.00    +0.000 S 
ATOM     25  H   UNL     1       0.817  10.552  17.058  0.00  0.00    +0.000 HD
ENDBRANCH   5  24
TORSDOF 5
ENDMDL
MODEL 8
REMARK VINA RESULT:      -7.2      4.809      9.145
REMARK  Name = 
REMARK  6 active torsions:
REMARK  status: ('A' for Active; 'I' for Inactive)
REMARK    1  A    between atoms: C_1  and  C_2
REMARK    2  A    between atoms: C_5  and  C_6
REMARK    3  A    between atoms: N_9  and  C_10
REMARK    4  A    between atoms: C_13  and  C_14
REMARK    5  A    between atoms: C_14  and  O_16
REMARK    6  A    between atoms: C_19  and  S_20
REMARK                            x       y       z     vdW  Elec       q    Type
REMARK                         _______ _______ _______ _____ _____    ______ ____
ROOT
ATOM      1  C   UNL     1       2.579   7.274  18.711  0.00  0.00    +0.000 C 
ATOM      2  N   UNL     1       2.135   6.847  19.835  0.00  0.00    +0.000 NA
ATOM      3  C   UNL     1       1.396   7.776  20.667  0.00  0.00    +0.000 C 
ATOM      4  N   UNL     1       1.100   9.100  20.143  0.00  0.00    +0.000 N 
ATOM      5  C   UNL     1       1.652   9.361  18.908  0.00  0.00    +0.000 C 
ATOM      6  N   UNL     1       2.349   8.521  18.215  0.00  0.00    +0.000 NA
ENDROOT
BRANCH   1  11
ATOM      7  C   UNL     1       5.893   3.723  15.521  0.00  0.00    +0.000 C 
ATOM      8  C   UNL     1       5.035   4.638  16.344  0.00  0.00    +0.000 A 
ATOM      9  C   UNL     1       3.983   4.132  17.116  0.00  0.00    +0.000 A 
ATOM     10  C   UNL     1       3.188   4.993  17.874  0.00  0.00    +0.000 A 
ATOM     11  C   UNL     1       3.430   6.373  17.870  0.00  0.00    +0.000 A 
ATOM     12  C   UNL     1       4.487   6.880  17.105  0.00  0.00    +0.000 A 
ATOM     13  C   UNL     1       5.283   6.016  16.347  0.00  0.00    +0.000 A 
ENDBRANCH   1  11
BRANCH   4  14
ATOM     14  C   UNL     1       0.277   9.904  20.976  0.00  0.00    +0.000 A 
ATOM     15  C   UNL     1      -0.366  11.061  20.478  0.00  0.00    +0.000 A 
ATOM     16  C   UNL     1      -1.227  11.844  21.262  0.00  0.00    +0.000 A 
ATOM     17  C   UNL     1      -1.477  11.486  22.584  0.00  0.00    +0.000 A 
ATOM     18  C   UNL     1      -0.842  10.361  23.112  0.00  0.00    +0.000 A 
ATOM     19  C   UNL     1       0.048   9.609  22.328  0.00  0.00    +0.000 A 
BRANCH  17  20
ATOM     20  C   UNL     1      -2.436  12.225  23.438  0.00  0.00    +0.000 C 
ATOM     21  O   UNL     1      -3.464  11.725  23.862  0.00  0.00    +0.000 OA
BRANCH  20  22
ATOM     22  O   UNL     1      -2.062  13.485  23.731  0.00  0.00    +0.000 OA
ATOM     23  H   UNL     1      -2.368  13.823  24.591  0.00  0.00    +0.000 HD
ENDBRANCH  20  22
ENDBRANCH  17  20
ENDBRANCH   4  14
BRANCH   5  24
ATOM     24  S   UNL     1       1.564  10.932  18.105  0.00  0.00    +0.000 S 
ATOM     25  H   UNL     1       0.248  11.123  18.198  0.00  0.00    +0.000 HD
ENDBRANCH   5  24
TORSDOF 5
ENDMDL
MODEL 9
REMARK VINA RESULT:      -7.1      0.961      1.769
REMARK  Name = 
REMARK  6 active torsions:
REMARK  status: ('A' for Active; 'I' for Inactive)
REMARK    1  A    between atoms: C_1  and  C_2
REMARK    2  A    between atoms: C_5  and  C_6
REMARK    3  A    between atoms: N_9  and  C_10
REMARK    4  A    between atoms: C_13  and  C_14
REMARK    5  A    between atoms: C_14  and  O_16
REMARK    6  A    between atoms: C_19  and  S_20
REMARK                            x       y       z     vdW  Elec       q    Type
REMARK                         _______ _______ _______ _____ _____    ______ ____
ROOT
ATOM      1  C   UNL     1       1.635   8.467  19.650  0.00  0.00    +0.000 C 
ATOM      2  N   UNL     1       2.012   9.017  18.554  0.00  0.00    +0.000 NA
ATOM      3  C   UNL     1       2.936   8.284  17.712  0.00  0.00    +0.000 C 
ATOM      4  N   UNL     1       3.300   6.927  18.089  0.00  0.00    +0.000 N 
ATOM      5  C   UNL     1       2.776   6.511  19.294  0.00  0.00    +0.000 C 
ATOM      6  N   UNL     1       1.992   7.214  20.044  0.00  0.00    +0.000 NA
ENDROOT
BRANCH   1  11
ATOM      7  C   UNL     1      -1.797  11.367  23.333  0.00  0.00    +0.000 C 
ATOM      8  C   UNL     1      -0.909  10.617  22.384  0.00  0.00    +0.000 A 
ATOM      9  C   UNL     1      -0.175   9.508  22.816  0.00  0.00    +0.000 A 
ATOM     10  C   UNL     1       0.653   8.821  21.926  0.00  0.00    +0.000 A 
ATOM     11  C   UNL     1       0.760   9.234  20.591  0.00  0.00    +0.000 A 
ATOM     12  C   UNL     1       0.020  10.339  20.156  0.00  0.00    +0.000 A 
ATOM     13  C   UNL     1      -0.809  11.026  21.048  0.00  0.00    +0.000 A 
ENDBRANCH   1  11
BRANCH   4  14
ATOM     14  C   UNL     1       4.118   6.243  17.152  0.00  0.00    +0.000 A 
ATOM     15  C   UNL     1       4.051   4.838  17.004  0.00  0.00    +0.000 A 
ATOM     16  C   UNL     1       4.808   4.141  16.050  0.00  0.00    +0.000 A 
ATOM     17  C   UNL     1       5.662   4.838  15.200  0.00  0.00    +0.000 A 
ATOM     18  C   UNL     1       5.766   6.224  15.334  0.00  0.00    +0.000 A 
ATOM     19  C   UNL     1       5.033   6.903  16.319  0.00  0.00    +0.000 A 
BRANCH  17  20
ATOM     20  C   UNL     1       6.426   4.170  14.121  0.00  0.00    +0.000 C 
ATOM     21  O   UNL     1       7.391   4.682  13.581  0.00  0.00    +0.000 OA
BRANCH  20  22
ATOM     22  O   UNL     1       5.984   2.936  13.810  0.00  0.00    +0.000 OA
ATOM     23  H   UNL     1       5.037   2.876  13.591  0.00  0.00    +0.000 HD
ENDBRANCH  20  22
ENDBRANCH  17  20
ENDBRANCH   4  14
BRANCH   5  24
ATOM     24  S   UNL     1       3.168   4.964  20.054  0.00  0.00    +0.000 S 
ATOM     25  H   UNL     1       4.371   5.285  20.534  0.00  0.00    +0.000 HD
ENDBRANCH   5  24
TORSDOF 5
ENDMDL
