MODEL 1
REMARK VINA RESULT:      -8.2      0.000      0.000
REMARK  Name = 
REMARK  6 active torsions:
REMARK  status: ('A' for Active; 'I' for Inactive)
REMARK    1  A    between atoms: C_1  and  C_2
REMARK    2  A    between atoms: C_7  and  N_8
REMARK    3  A    between atoms: N_9  and  C_10
REMARK    4  A    between atoms: C_10  and  C_11
REMARK    5  A    between atoms: C_13  and  O_14
REMARK    6  A    between atoms: C_13  and  C_15
REMARK                            x       y       z     vdW  Elec       q    Type
REMARK                         _______ _______ _______ _____ _____    ______ ____
ROOT
ATOM      1  C   UNL     1       2.574   3.971  20.211  0.00  0.00    +0.000 C 
ATOM      2  C   UNL     1       3.576   3.201  19.720  0.00  0.00    +0.000 C 
ENDROOT
BRANCH   2   3
ATOM      3  C   UNL     1       4.330   3.584  18.563  0.00  0.00    +0.000 A 
ATOM      4  C   UNL     1       3.942   3.596  17.222  0.00  0.00    +0.000 A 
ATOM      5  C   UNL     1       5.018   4.104  16.447  0.00  0.00    +0.000 A 
ATOM      6  C   UNL     1       5.247   4.378  15.087  0.00  0.00    +0.000 A 
ATOM      7  C   UNL     1       6.486   4.916  14.711  0.00  0.00    +0.000 A 
ATOM      8  C   UNL     1       7.482   5.170  15.661  0.00  0.00    +0.000 A 
ATOM      9  C   UNL     1       7.273   4.894  17.013  0.00  0.00    +0.000 A 
ATOM     10  C   UNL     1       6.028   4.367  17.351  0.00  0.00    +0.000 A 
ATOM     11  O   UNL     1       5.630   4.051  18.605  0.00  0.00    +0.000 OA
ENDBRANCH   2   3
BRANCH   1  13
ATOM     12  N   UNL     1       2.496   6.224  20.289  0.00  0.00    +0.000 NA
ATOM     13  N   UNL     1       2.218   5.185  19.663  0.00  0.00    +0.000 NA
BRANCH  12  20
ATOM     14  C   UNL     1       0.804   8.406  21.559  0.00  0.00    +0.000 C 
ATOM     15  C   UNL     1       1.371   8.465  20.168  0.00  0.00    +0.000 A 
ATOM     16  C   UNL     1       1.144   9.630  19.410  0.00  0.00    +0.000 A 
ATOM     17  C   UNL     1       1.635   9.750  18.111  0.00  0.00    +0.000 A 
ATOM     18  C   UNL     1       2.341   8.699  17.541  0.00  0.00    +0.000 A 
ATOM     19  C   UNL     1       2.571   7.536  18.280  0.00  0.00    +0.000 A 
ATOM     20  C   UNL     1       2.103   7.397  19.599  0.00  0.00    +0.000 A 
ENDBRANCH  12  20
ENDBRANCH   1  13
BRANCH   1  21
ATOM     21  C   UNL     1       1.807   3.422  21.377  0.00  0.00    +0.000 C 
ATOM     22  O   UNL     1       2.347   2.977  22.387  0.00  0.00    +0.000 OA
ENDBRANCH   1  21
BRANCH   2  23
ATOM     23  O   UNL     1       3.971   1.977  20.246  0.00  0.00    +0.000 OA
ATOM     24  H   UNL     1       4.744   1.651  19.734  0.00  0.00    +0.000 HD
ENDBRANCH   2  23
TORSDOF 5
ENDMDL
MODEL 2
REMARK VINA RESULT:      -8.1      0.561      1.212
REMARK  Name = 
REMARK  6 active torsions:
REMARK  status: ('A' for Active; 'I' for Inactive)
REMARK    1  A    between atoms: C_1  and  C_2
REMARK    2  A    between atoms: C_7  and  N_8
REMARK    3  A    between atoms: N_9  and  C_10
REMARK    4  A    between atoms: C_10  and  C_11
REMARK    5  A    between atoms: C_13  and  O_14
REMARK    6  A    between atoms: C_13  and  C_15
REMARK                            x       y       z     vdW  Elec       q    Type
REMARK                         _______ _______ _______ _____ _____    ______ ____
ROOT
ATOM      1  C   UNL     1       2.620   4.014  20.245  0.00  0.00    +0.000 C 
ATOM      2  C   UNL     1       3.687   3.314  19.788  0.00  0.00    +0.000 C 
ENDROOT
BRANCH   2   3
ATOM      3  C   UNL     1       4.474   3.769  18.680  0.00  0.00    +0.000 A 
ATOM      4  C   UNL     1       5.657   4.508  18.683  0.00  0.00    +0.000 A 
ATOM      5  C   UNL     1       6.090   4.672  17.342  0.00  0.00    +0.000 A 
ATOM      6  C   UNL     1       7.182   5.279  16.695  0.00  0.00    +0.000 A 
ATOM      7  C   UNL     1       7.260   5.202  15.296  0.00  0.00    +0.000 A 
ATOM      8  C   UNL     1       6.273   4.544  14.553  0.00  0.00    +0.000 A 
ATOM      9  C   UNL     1       5.178   3.947  15.179  0.00  0.00    +0.000 A 
ATOM     10  C   UNL     1       5.137   4.037  16.569  0.00  0.00    +0.000 A 
ATOM     11  O   UNL     1       4.172   3.509  17.357  0.00  0.00    +0.000 OA
ENDBRANCH   2   3
BRANCH   1  13
ATOM     12  N   UNL     1       2.521   6.266  20.316  0.00  0.00    +0.000 NA
ATOM     13  N   UNL     1       2.224   5.221  19.710  0.00  0.00    +0.000 NA
BRANCH  12  20
ATOM     14  C   UNL     1       0.785   8.388  21.628  0.00  0.00    +0.000 C 
ATOM     15  C   UNL     1       1.327   8.473  20.228  0.00  0.00    +0.000 A 
ATOM     16  C   UNL     1       1.052   9.635  19.482  0.00  0.00    +0.000 A 
ATOM     17  C   UNL     1       1.517   9.778  18.176  0.00  0.00    +0.000 A 
ATOM     18  C   UNL     1       2.245   8.753  17.587  0.00  0.00    +0.000 A 
ATOM     19  C   UNL     1       2.522   7.593  18.315  0.00  0.00    +0.000 A 
ATOM     20  C   UNL     1       2.081   7.431  19.640  0.00  0.00    +0.000 A 
ENDBRANCH  12  20
ENDBRANCH   1  13
BRANCH   1  21
ATOM     21  C   UNL     1       1.828   3.393  21.357  0.00  0.00    +0.000 C 
ATOM     22  O   UNL     1       2.346   2.897  22.356  0.00  0.00    +0.000 OA
ENDBRANCH   1  21
BRANCH   2  23
ATOM     23  O   UNL     1       4.123   2.100  20.303  0.00  0.00    +0.000 OA
ATOM     24  H   UNL     1       4.008   1.408  19.615  0.00  0.00    +0.000 HD
ENDBRANCH   2  23
TORSDOF 5
ENDMDL
MODEL 3
REMARK VINA RESULT:      -8.0      0.399      1.490
REMARK  Name = 
REMARK  6 active torsions:
REMARK  status: ('A' for Active; 'I' for Inactive)
REMARK    1  A    between atoms: C_1  and  C_2
REMARK    2  A    between atoms: C_7  and  N_8
REMARK    3  A    between atoms: N_9  and  C_10
REMARK    4  A    between atoms: C_10  and  C_11
REMARK    5  A    between atoms: C_13  and  O_14
REMARK    6  A    between atoms: C_13  and  C_15
REMARK                            x       y       z     vdW  Elec       q    Type
REMARK                         _______ _______ _______ _____ _____    ______ ____
ROOT
ATOM      1  C   UNL     1       2.419   4.007  20.102  0.00  0.00    +0.000 C 
ATOM      2  C   UNL     1       3.375   3.198  19.584  0.00  0.00    +0.000 C 
ENDROOT
BRANCH   2   3
ATOM      3  C   UNL     1       4.155   3.579  18.443  0.00  0.00    +0.000 A 
ATOM      4  C   UNL     1       3.817   3.536  17.090  0.00  0.00    +0.000 A 
ATOM      5  C   UNL     1       4.898   4.067  16.339  0.00  0.00    +0.000 A 
ATOM      6  C   UNL     1       5.166   4.311  14.979  0.00  0.00    +0.000 A 
ATOM      7  C   UNL     1       6.396   4.889  14.632  0.00  0.00    +0.000 A 
ATOM      8  C   UNL     1       7.345   5.212  15.610  0.00  0.00    +0.000 A 
ATOM      9  C   UNL     1       7.097   4.966  16.961  0.00  0.00    +0.000 A 
ATOM     10  C   UNL     1       5.863   4.397  17.270  0.00  0.00    +0.000 A 
ATOM     11  O   UNL     1       5.432   4.101  18.518  0.00  0.00    +0.000 OA
ENDBRANCH   2   3
BRANCH   1  13
ATOM     12  N   UNL     1       2.615   6.252  20.178  0.00  0.00    +0.000 NA
ATOM     13  N   UNL     1       2.137   5.259  19.600  0.00  0.00    +0.000 NA
BRANCH  12  20
ATOM     14  C   UNL     1       3.770   7.101  17.498  0.00  0.00    +0.000 C 
ATOM     15  C   UNL     1       2.736   7.877  18.268  0.00  0.00    +0.000 A 
ATOM     16  C   UNL     1       2.230   9.057  17.690  0.00  0.00    +0.000 A 
ATOM     17  C   UNL     1       1.275   9.828  18.351  0.00  0.00    +0.000 A 
ATOM     18  C   UNL     1       0.827   9.443  19.608  0.00  0.00    +0.000 A 
ATOM     19  C   UNL     1       1.323   8.276  20.194  0.00  0.00    +0.000 A 
ATOM     20  C   UNL     1       2.273   7.470  19.540  0.00  0.00    +0.000 A 
ENDBRANCH  12  20
ENDBRANCH   1  13
BRANCH   1  21
ATOM     21  C   UNL     1       1.615   3.461  21.244  0.00  0.00    +0.000 C 
ATOM     22  O   UNL     1       2.122   3.055  22.289  0.00  0.00    +0.000 OA
ENDBRANCH   1  21
BRANCH   2  23
ATOM     23  O   UNL     1       3.695   1.934  20.064  0.00  0.00    +0.000 OA
ATOM     24  H   UNL     1       3.167   1.268  19.569  0.00  0.00    +0.000 HD
ENDBRANCH   2  23
TORSDOF 5
ENDMDL
MODEL 4
REMARK VINA RESULT:      -7.9      0.679      1.918
REMARK  Name = 
REMARK  6 active torsions:
REMARK  status: ('A' for Active; 'I' for Inactive)
REMARK    1  A    between atoms: C_1  and  C_2
REMARK    2  A    between atoms: C_7  and  N_8
REMARK    3  A    between atoms: N_9  and  C_10
REMARK    4  A    between atoms: C_10  and  C_11
REMARK    5  A    between atoms: C_13  and  O_14
REMARK    6  A    between atoms: C_13  and  C_15
REMARK                            x       y       z     vdW  Elec       q    Type
REMARK                         _______ _______ _______ _____ _____    ______ ____
ROOT
ATOM      1  C   UNL     1       2.435   3.984  20.107  0.00  0.00    +0.000 C 
ATOM      2  C   UNL     1       3.473   3.249  19.638  0.00  0.00    +0.000 C 
ENDROOT
BRANCH   2   3
ATOM      3  C   UNL     1       4.320   3.720  18.582  0.00  0.00    +0.000 A 
ATOM      4  C   UNL     1       5.561   4.352  18.662  0.00  0.00    +0.000 A 
ATOM      5  C   UNL     1       6.035   4.582  17.344  0.00  0.00    +0.000 A 
ATOM      6  C   UNL     1       7.188   5.141  16.763  0.00  0.00    +0.000 A 
ATOM      7  C   UNL     1       7.289   5.166  15.365  0.00  0.00    +0.000 A 
ATOM      8  C   UNL     1       6.266   4.655  14.556  0.00  0.00    +0.000 A 
ATOM      9  C   UNL     1       5.112   4.107  15.118  0.00  0.00    +0.000 A 
ATOM     10  C   UNL     1       5.049   4.093  16.510  0.00  0.00    +0.000 A 
ATOM     11  O   UNL     1       4.025   3.589  17.238  0.00  0.00    +0.000 OA
ENDBRANCH   2   3
BRANCH   1  13
ATOM     12  N   UNL     1       2.650   6.228  20.181  0.00  0.00    +0.000 NA
ATOM     13  N   UNL     1       2.126   5.241  19.633  0.00  0.00    +0.000 NA
BRANCH  12  20
ATOM     14  C   UNL     1       3.676   7.121  17.463  0.00  0.00    +0.000 C 
ATOM     15  C   UNL     1       2.673   7.878  18.289  0.00  0.00    +0.000 A 
ATOM     16  C   UNL     1       2.133   9.062  17.751  0.00  0.00    +0.000 A 
ATOM     17  C   UNL     1       1.204   9.817  18.465  0.00  0.00    +0.000 A 
ATOM     18  C   UNL     1       0.816   9.413  19.736  0.00  0.00    +0.000 A 
ATOM     19  C   UNL     1       1.347   8.241  20.283  0.00  0.00    +0.000 A 
ATOM     20  C   UNL     1       2.272   7.451  19.576  0.00  0.00    +0.000 A 
ENDBRANCH  12  20
ENDBRANCH   1  13
BRANCH   1  21
ATOM     21  C   UNL     1       1.574   3.348  21.157  0.00  0.00    +0.000 C 
ATOM     22  O   UNL     1       2.008   2.965  22.241  0.00  0.00    +0.000 OA
ENDBRANCH   1  21
BRANCH   2  23
ATOM     23  O   UNL     1       3.822   1.984  20.093  0.00  0.00    +0.000 OA
ATOM     24  H   UNL     1       3.552   1.322  19.418  0.00  0.00    +0.000 HD
ENDBRANCH   2  23
TORSDOF 5
ENDMDL
MODEL 5
REMARK VINA RESULT:      -7.3      1.543      5.720
REMARK  Name = 
REMARK  6 active torsions:
REMARK  status: ('A' for Active; 'I' for Inactive)
REMARK    1  A    between atoms: C_1  and  C_2
REMARK    2  A    between atoms: C_7  and  N_8
REMARK    3  A    between atoms: N_9  and  C_10
REMARK    4  A    between atoms: C_10  and  C_11
REMARK    5  A    between atoms: C_13  and  O_14
REMARK    6  A    between atoms: C_13  and  C_15
REMARK                            x       y       z     vdW  Elec       q    Type
REMARK                         _______ _______ _______ _____ _____    ______ ____
ROOT
ATOM      1  C   UNL     1       3.689   3.573  19.536  0.00  0.00    +0.000 C 
ATOM      2  C   UNL     1       2.875   4.386  20.254  0.00  0.00    +0.000 C 
ENDROOT
BRANCH   2   3
ATOM      3  C   UNL     1       2.569   5.720  19.830  0.00  0.00    +0.000 A 
ATOM      4  C   UNL     1       2.817   6.334  18.602  0.00  0.00    +0.000 A 
ATOM      5  C   UNL     1       2.284   7.649  18.640  0.00  0.00    +0.000 A 
ATOM      6  C   UNL     1       2.191   8.732  17.747  0.00  0.00    +0.000 A 
ATOM      7  C   UNL     1       1.544   9.900  18.176  0.00  0.00    +0.000 A 
ATOM      8  C   UNL     1       1.008   9.998  19.466  0.00  0.00    +0.000 A 
ATOM      9  C   UNL     1       1.103   8.936  20.366  0.00  0.00    +0.000 A 
ATOM     10  C   UNL     1       1.745   7.789  19.904  0.00  0.00    +0.000 A 
ATOM     11  O   UNL     1       1.920   6.652  20.617  0.00  0.00    +0.000 OA
ENDBRANCH   2   3
BRANCH   1  13
ATOM     12  N   UNL     1       5.482   4.183  18.310  0.00  0.00    +0.000 NA
ATOM     13  N   UNL     1       4.260   3.947  18.338  0.00  0.00    +0.000 NA
BRANCH  12  20
ATOM     14  C   UNL     1       7.419   6.466  17.785  0.00  0.00    +0.000 C 
ATOM     15  C   UNL     1       6.888   5.535  16.730  0.00  0.00    +0.000 A 
ATOM     16  C   UNL     1       7.353   5.698  15.411  0.00  0.00    +0.000 A 
ATOM     17  C   UNL     1       6.899   4.875  14.382  0.00  0.00    +0.000 A 
ATOM     18  C   UNL     1       5.957   3.891  14.650  0.00  0.00    +0.000 A 
ATOM     19  C   UNL     1       5.485   3.720  15.955  0.00  0.00    +0.000 A 
ATOM     20  C   UNL     1       5.941   4.524  17.015  0.00  0.00    +0.000 A 
ENDBRANCH  12  20
ENDBRANCH   1  13
BRANCH   1  21
ATOM     21  C   UNL     1       3.998   2.230  20.125  0.00  0.00    +0.000 C 
ATOM     22  O   UNL     1       4.833   2.061  21.012  0.00  0.00    +0.000 OA
ENDBRANCH   1  21
BRANCH   2  23
ATOM     23  O   UNL     1       2.274   4.046  21.459  0.00  0.00    +0.000 OA
ATOM     24  H   UNL     1       1.663   4.770  21.720  0.00  0.00    +0.000 HD
ENDBRANCH   2  23
TORSDOF 5
ENDMDL
MODEL 6
REMARK VINA RESULT:      -7.3      1.365      2.228
REMARK  Name = 
REMARK  6 active torsions:
REMARK  status: ('A' for Active; 'I' for Inactive)
REMARK    1  A    between atoms: C_1  and  C_2
REMARK    2  A    between atoms: C_7  and  N_8
REMARK    3  A    between atoms: N_9  and  C_10
REMARK    4  A    between atoms: C_10  and  C_11
REMARK    5  A    between atoms: C_13  and  O_14
REMARK    6  A    between atoms: C_13  and  C_15
REMARK                            x       y       z     vdW  Elec       q    Type
REMARK                         _______ _______ _______ _____ _____    ______ ____
ROOT
ATOM      1  C   UNL     1       2.899   3.504  20.474  0.00  0.00    +0.000 C 
ATOM      2  C   UNL     1       4.014   3.109  19.812  0.00  0.00    +0.000 C 
ENDROOT
BRANCH   2   3
ATOM      3  C   UNL     1       4.898   4.048  19.188  0.00  0.00    +0.000 A 
ATOM      4  C   UNL     1       4.826   4.615  17.915  0.00  0.00    +0.000 A 
ATOM      5  C   UNL     1       5.902   5.529  17.768  0.00  0.00    +0.000 A 
ATOM      6  C   UNL     1       6.360   6.406  16.766  0.00  0.00    +0.000 A 
ATOM      7  C   UNL     1       7.496   7.186  17.026  0.00  0.00    +0.000 A 
ATOM      8  C   UNL     1       8.171   7.095  18.250  0.00  0.00    +0.000 A 
ATOM      9  C   UNL     1       7.735   6.223  19.248  0.00  0.00    +0.000 A 
ATOM     10  C   UNL     1       6.600   5.468  18.958  0.00  0.00    +0.000 A 
ATOM     11  O   UNL     1       6.015   4.585  19.800  0.00  0.00    +0.000 OA
ENDBRANCH   2   3
BRANCH   1  13
ATOM     12  N   UNL     1       2.255   5.485  19.608  0.00  0.00    +0.000 NA
ATOM     13  N   UNL     1       2.541   4.827  20.625  0.00  0.00    +0.000 NA
BRANCH  12  20
ATOM     14  C   UNL     1       2.865   7.838  17.782  0.00  0.00    +0.000 C 
ATOM     15  C   UNL     1       2.083   7.930  19.064  0.00  0.00    +0.000 A 
ATOM     16  C   UNL     1       1.554   9.184  19.425  0.00  0.00    +0.000 A 
ATOM     17  C   UNL     1       0.825   9.343  20.602  0.00  0.00    +0.000 A 
ATOM     18  C   UNL     1       0.631   8.258  21.447  0.00  0.00    +0.000 A 
ATOM     19  C   UNL     1       1.153   7.009  21.101  0.00  0.00    +0.000 A 
ATOM     20  C   UNL     1       1.877   6.816  19.910  0.00  0.00    +0.000 A 
ENDBRANCH  12  20
ENDBRANCH   1  13
BRANCH   1  21
ATOM     21  C   UNL     1       2.011   2.423  21.013  0.00  0.00    +0.000 C 
ATOM     22  O   UNL     1       1.606   2.401  22.174  0.00  0.00    +0.000 OA
ENDBRANCH   1  21
BRANCH   2  23
ATOM     23  O   UNL     1       4.414   1.789  19.644  0.00  0.00    +0.000 OA
ATOM     24  H   UNL     1       5.281   1.665  20.091  0.00  0.00    +0.000 HD
ENDBRANCH   2  23
TORSDOF 5
ENDMDL
MODEL 7
REMARK VINA RESULT:      -7.3      1.586      2.394
REMARK  Name = 
REMARK  6 active torsions:
REMARK  status: ('A' for Active; 'I' for Inactive)
REMARK    1  A    between atoms: C_1  and  C_2
REMARK    2  A    between atoms: C_7  and  N_8
REMARK    3  A    between atoms: N_9  and  C_10
REMARK    4  A    between atoms: C_10  and  C_11
REMARK    5  A    between atoms: C_13  and  O_14
REMARK    6  A    between atoms: C_13  and  C_15
REMARK                            x       y       z     vdW  Elec       q    Type
REMARK                         _______ _______ _______ _____ _____    ______ ____
ROOT
ATOM      1  C   UNL     1       1.906   3.596  19.114  0.00  0.00    +0.000 C 
ATOM      2  C   UNL     1       3.120   3.093  18.781  0.00  0.00    +0.000 C 
ENDROOT
BRANCH   2   3
ATOM      3  C   UNL     1       4.232   3.941  18.467  0.00  0.00    +0.000 A 
ATOM      4  C   UNL     1       4.550   4.568  17.261  0.00  0.00    +0.000 A 
ATOM      5  C   UNL     1       5.721   5.346  17.454  0.00  0.00    +0.000 A 
ATOM      6  C   UNL     1       6.512   6.202  16.665  0.00  0.00    +0.000 A 
ATOM      7  C   UNL     1       7.622   6.822  17.256  0.00  0.00    +0.000 A 
ATOM      8  C   UNL     1       7.949   6.594  18.598  0.00  0.00    +0.000 A 
ATOM      9  C   UNL     1       7.180   5.740  19.390  0.00  0.00    +0.000 A 
ATOM     10  C   UNL     1       6.081   5.147  18.772  0.00  0.00    +0.000 A 
ATOM     11  O   UNL     1       5.207   4.307  19.375  0.00  0.00    +0.000 OA
ENDBRANCH   2   3
BRANCH   1  13
ATOM     12  N   UNL     1       2.197   5.596  20.114  0.00  0.00    +0.000 NA
ATOM     13  N   UNL     1       1.649   4.947  19.205  0.00  0.00    +0.000 NA
BRANCH  12  20
ATOM     14  C   UNL     1       2.963   7.412  17.799  0.00  0.00    +0.000 C 
ATOM     15  C   UNL     1       2.150   7.841  18.990  0.00  0.00    +0.000 A 
ATOM     16  C   UNL     1       1.669   9.164  19.019  0.00  0.00    +0.000 A 
ATOM     17  C   UNL     1       0.915   9.631  20.095  0.00  0.00    +0.000 A 
ATOM     18  C   UNL     1       0.649   8.790  21.168  0.00  0.00    +0.000 A 
ATOM     19  C   UNL     1       1.124   7.476  21.153  0.00  0.00    +0.000 A 
ATOM     20  C   UNL     1       1.871   6.974  20.072  0.00  0.00    +0.000 A 
ENDBRANCH  12  20
ENDBRANCH   1  13
BRANCH   1  21
ATOM     21  C   UNL     1       0.802   2.607  19.340  0.00  0.00    +0.000 C 
ATOM     22  O   UNL     1       0.258   1.985  18.429  0.00  0.00    +0.000 OA
ENDBRANCH   1  21
BRANCH   2  23
ATOM     23  O   UNL     1       3.423   1.740  18.686  0.00  0.00    +0.000 OA
ATOM     24  H   UNL     1       2.747   1.307  18.118  0.00  0.00    +0.000 HD
ENDBRANCH   2  23
TORSDOF 5
ENDMDL
MODEL 8
REMARK VINA RESULT:      -7.2      1.468      5.615
REMARK  Name = 
REMARK  6 active torsions:
REMARK  status: ('A' for Active; 'I' for Inactive)
REMARK    1  A    between atoms: C_1  and  C_2
REMARK    2  A    between atoms: C_7  and  N_8
REMARK    3  A    between atoms: N_9  and  C_10
REMARK    4  A    between atoms: C_10  and  C_11
REMARK    5  A    between atoms: C_13  and  O_14
REMARK    6  A    between atoms: C_13  and  C_15
REMARK                            x       y       z     vdW  Elec       q    Type
REMARK                         _______ _______ _______ _____ _____    ______ ____
ROOT
ATOM      1  C   UNL     1       3.742   3.404  19.729  0.00  0.00    +0.000 C 
ATOM      2  C   UNL     1       2.873   4.148  20.456  0.00  0.00    +0.000 C 
ENDROOT
BRANCH   2   3
ATOM      3  C   UNL     1       2.494   5.472  20.061  0.00  0.00    +0.000 A 
ATOM      4  C   UNL     1       1.783   6.436  20.776  0.00  0.00    +0.000 A 
ATOM      5  C   UNL     1       1.698   7.612  19.986  0.00  0.00    +0.000 A 
ATOM      6  C   UNL     1       1.150   8.899  20.138  0.00  0.00    +0.000 A 
ATOM      7  C   UNL     1       1.301   9.820  19.090  0.00  0.00    +0.000 A 
ATOM      8  C   UNL     1       1.974   9.471  17.913  0.00  0.00    +0.000 A 
ATOM      9  C   UNL     1       2.513   8.195  17.744  0.00  0.00    +0.000 A 
ATOM     10  C   UNL     1       2.350   7.309  18.807  0.00  0.00    +0.000 A 
ATOM     11  O   UNL     1       2.815   6.039  18.842  0.00  0.00    +0.000 OA
ENDBRANCH   2   3
BRANCH   1  13
ATOM     12  N   UNL     1       5.533   4.032  18.511  0.00  0.00    +0.000 NA
ATOM     13  N   UNL     1       4.304   3.840  18.548  0.00  0.00    +0.000 NA
BRANCH  12  20
ATOM     14  C   UNL     1       7.566   6.256  18.107  0.00  0.00    +0.000 C 
ATOM     15  C   UNL     1       6.969   5.432  17.000  0.00  0.00    +0.000 A 
ATOM     16  C   UNL     1       7.412   5.672  15.685  0.00  0.00    +0.000 A 
ATOM     17  C   UNL     1       6.897   4.950  14.610  0.00  0.00    +0.000 A 
ATOM     18  C   UNL     1       5.915   3.993  14.829  0.00  0.00    +0.000 A 
ATOM     19  C   UNL     1       5.464   3.747  16.128  0.00  0.00    +0.000 A 
ATOM     20  C   UNL     1       5.981   4.448  17.233  0.00  0.00    +0.000 A 
ENDBRANCH  12  20
ENDBRANCH   1  13
BRANCH   1  21
ATOM     21  C   UNL     1       4.123   2.066  20.289  0.00  0.00    +0.000 C 
ATOM     22  O   UNL     1       4.949   1.925  21.189  0.00  0.00    +0.000 OA
ENDBRANCH   1  21
BRANCH   2  23
ATOM     23  O   UNL     1       2.279   3.743  21.645  0.00  0.00    +0.000 OA
ATOM     24  H   UNL     1       1.831   2.881  21.493  0.00  0.00    +0.000 HD
ENDBRANCH   2  23
TORSDOF 5
ENDMDL
MODEL 9
REMARK VINA RESULT:      -7.2      2.075      5.628
REMARK  Name = 
REMARK  6 active torsions:
REMARK  status: ('A' for Active; 'I' for Inactive)
REMARK    1  A    between atoms: C_1  and  C_2
REMARK    2  A    between atoms: C_7  and  N_8
REMARK    3  A    between atoms: N_9  and  C_10
REMARK    4  A    between atoms: C_10  and  C_11
REMARK    5  A    between atoms: C_13  and  O_14
REMARK    6  A    between atoms: C_13  and  C_15
REMARK                            x       y       z     vdW  Elec       q    Type
REMARK                         _______ _______ _______ _____ _____    ______ ____
ROOT
ATOM      1  C   UNL     1       3.772   3.420  19.448  0.00  0.00    +0.000 C 
ATOM      2  C   UNL     1       2.493   3.785  19.709  0.00  0.00    +0.000 C 
ENDROOT
BRANCH   2   3
ATOM      3  C   UNL     1       2.105   5.159  19.824  0.00  0.00    +0.000 A 
ATOM      4  C   UNL     1       1.561   5.833  20.919  0.00  0.00    +0.000 A 
ATOM      5  C   UNL     1       1.392   7.198  20.568  0.00  0.00    +0.000 A 
ATOM      6  C   UNL     1       0.928   8.361  21.210  0.00  0.00    +0.000 A 
ATOM      7  C   UNL     1       0.938   9.569  20.498  0.00  0.00    +0.000 A 
ATOM      8  C   UNL     1       1.391   9.625  19.175  0.00  0.00    +0.000 A 
ATOM      9  C   UNL     1       1.843   8.478  18.521  0.00  0.00    +0.000 A 
ATOM     10  C   UNL     1       1.826   7.297  19.260  0.00  0.00    +0.000 A 
ATOM     11  O   UNL     1       2.241   6.090  18.812  0.00  0.00    +0.000 OA
ENDBRANCH   2   3
BRANCH   1  13
ATOM     12  N   UNL     1       5.155   4.561  18.079  0.00  0.00    +0.000 NA
ATOM     13  N   UNL     1       4.789   4.328  19.245  0.00  0.00    +0.000 NA
BRANCH  12  20
ATOM     14  C   UNL     1       5.204   6.785  16.008  0.00  0.00    +0.000 C 
ATOM     15  C   UNL     1       6.214   6.621  17.111  0.00  0.00    +0.000 A 
ATOM     16  C   UNL     1       7.231   7.588  17.225  0.00  0.00    +0.000 A 
ATOM     17  C   UNL     1       8.203   7.494  18.219  0.00  0.00    +0.000 A 
ATOM     18  C   UNL     1       8.188   6.421  19.100  0.00  0.00    +0.000 A 
ATOM     19  C   UNL     1       7.186   5.453  18.996  0.00  0.00    +0.000 A 
ATOM     20  C   UNL     1       6.182   5.533  18.014  0.00  0.00    +0.000 A 
ENDBRANCH  12  20
ENDBRANCH   1  13
BRANCH   1  21
ATOM     21  C   UNL     1       4.068   1.950  19.433  0.00  0.00    +0.000 C 
ATOM     22  O   UNL     1       3.690   1.197  18.537  0.00  0.00    +0.000 OA
ENDBRANCH   1  21
BRANCH   2  23
ATOM     23  O   UNL     1       1.439   2.902  19.911  0.00  0.00    +0.000 OA
ATOM     24  H   UNL     1       0.769   3.048  19.207  0.00  0.00    +0.000 HD
ENDBRANCH   2  23
TORSDOF 5
ENDMDL
