MODEL 1
REMARK VINA RESULT:      -7.0      0.000      0.000
REMARK  Name = 
REMARK  8 active torsions:
REMARK  status: ('A' for Active; 'I' for Inactive)
REMARK    1  A    between atoms: C_1  and  O_2
REMARK    2  A    between atoms: O_2  and  C_3
REMARK    3  A    between atoms: C_8  and  O_9
REMARK    4  A    between atoms: O_9  and  C_10
REMARK    5  A    between atoms: C_14  and  C_15
REMARK    6  A    between atoms: C_15  and  N_16
REMARK    7  A    between atoms: N_19  and  C_20
REMARK    8  A    between atoms: C_23  and  O_24
REMARK                            x       y       z     vdW  Elec       q    Type
REMARK                         _______ _______ _______ _____ _____    ______ ____
ROOT
ATOM      1  C   UNL     1       1.794   8.046  18.709  0.00  0.00    +0.000 A 
ATOM      2  C   UNL     1       1.717   8.831  17.623  0.00  0.00    +0.000 A 
ATOM      3  O   UNL     1       2.198  10.167  17.740  0.00  0.00    +0.000 OA
ATOM      4  C   UNL     1       1.493  10.901  18.682  0.00  0.00    +0.000 A 
ATOM      5  C   UNL     1       1.525  12.298  18.687  0.00  0.00    +0.000 A 
ATOM      6  C   UNL     1       0.447  12.935  19.312  0.00  0.00    +0.000 A 
ATOM      7  C   UNL     1      -0.538  12.194  19.981  0.00  0.00    +0.000 A 
ATOM      8  C   UNL     1      -0.340  10.829  20.230  0.00  0.00    +0.000 A 
ATOM      9  C   UNL     1       0.725  10.202  19.608  0.00  0.00    +0.000 A 
ATOM     10  C   UNL     1       1.292   8.858  19.916  0.00  0.00    +0.000 A 
ATOM     11  O   UNL     1       1.496   8.525  21.070  0.00  0.00    +0.000 OA
ENDROOT
BRANCH   6  12
ATOM     12  O   UNL     1       0.278  14.291  19.320  0.00  0.00    +0.000 OA
ATOM     13  H   UNL     1       1.121  14.726  19.114  0.00  0.00    +0.000 HD
ENDBRANCH   6  12
BRANCH   1  14
ATOM     14  O   UNL     1       2.998   7.346  18.902  0.00  0.00    +0.000 OA
BRANCH  14  20
ATOM     15  C   UNL     1       4.324   5.960  17.433  0.00  0.00    +0.000 A 
ATOM     16  C   UNL     1       4.537   4.691  16.843  0.00  0.00    +0.000 A 
ATOM     17  C   UNL     1       3.620   3.672  17.034  0.00  0.00    +0.000 A 
ATOM     18  C   UNL     1       2.470   3.877  17.790  0.00  0.00    +0.000 A 
ATOM     19  C   UNL     1       2.242   5.129  18.368  0.00  0.00    +0.000 A 
ATOM     20  C   UNL     1       3.158   6.174  18.186  0.00  0.00    +0.000 A 
BRANCH  15  22
ATOM     21  C   UNL     1       6.602   6.682  17.441  0.00  0.00    +0.000 C 
ATOM     22  O   UNL     1       5.216   6.999  17.297  0.00  0.00    +0.000 OA
ENDBRANCH  15  22
ENDBRANCH  14  20
ENDBRANCH   1  14
BRANCH   5  23
ATOM     23  C   UNL     1       2.763  12.995  18.176  0.00  0.00    +0.000 C 
BRANCH  23  24
ATOM     24  N   UNL     1       2.938  14.402  18.595  0.00  0.00    +0.000 NA
ATOM     25  C   UNL     1       3.319  15.341  17.520  0.00  0.00    +0.000 C 
ATOM     26  C   UNL     1       3.354  16.818  17.996  0.00  0.00    +0.000 C 
ATOM     27  N   UNL     1       4.163  17.061  19.209  0.00  0.00    +0.000 NA
ATOM     28  C   UNL     1       5.596  16.971  18.929  0.00  0.00    +0.000 C 
ATOM     29  C   UNL     1       3.751  16.095  20.246  0.00  0.00    +0.000 C 
ATOM     30  C   UNL     1       3.764  14.611  19.790  0.00  0.00    +0.000 C 
ENDBRANCH  23  24
ENDBRANCH   5  23
TORSDOF 6
ENDMDL
MODEL 2
REMARK VINA RESULT:      -6.9      1.065      1.338
REMARK  Name = 
REMARK  8 active torsions:
REMARK  status: ('A' for Active; 'I' for Inactive)
REMARK    1  A    between atoms: C_1  and  O_2
REMARK    2  A    between atoms: O_2  and  C_3
REMARK    3  A    between atoms: C_8  and  O_9
REMARK    4  A    between atoms: O_9  and  C_10
REMARK    5  A    between atoms: C_14  and  C_15
REMARK    6  A    between atoms: C_15  and  N_16
REMARK    7  A    between atoms: N_19  and  C_20
REMARK    8  A    between atoms: C_23  and  O_24
REMARK                            x       y       z     vdW  Elec       q    Type
REMARK                         _______ _______ _______ _____ _____    ______ ____
ROOT
ATOM      1  C   UNL     1       1.594   8.165  19.125  0.00  0.00    +0.000 A 
ATOM      2  C   UNL     1       1.696   8.814  17.954  0.00  0.00    +0.000 A 
ATOM      3  O   UNL     1       2.182  10.154  17.985  0.00  0.00    +0.000 OA
ATOM      4  C   UNL     1       1.358  10.996  18.716  0.00  0.00    +0.000 A 
ATOM      5  C   UNL     1       1.417  12.384  18.561  0.00  0.00    +0.000 A 
ATOM      6  C   UNL     1       0.270  13.093  18.936  0.00  0.00    +0.000 A 
ATOM      7  C   UNL     1      -0.818  12.440  19.531  0.00  0.00    +0.000 A 
ATOM      8  C   UNL     1      -0.687  11.114  19.966  0.00  0.00    +0.000 A 
ATOM      9  C   UNL     1       0.446  10.414  19.590  0.00  0.00    +0.000 A 
ATOM     10  C   UNL     1       0.934   9.116  20.137  0.00  0.00    +0.000 A 
ATOM     11  O   UNL     1       0.955   8.923  21.340  0.00  0.00    +0.000 OA
ENDROOT
BRANCH   6  12
ATOM     12  O   UNL     1       0.130  14.441  18.759  0.00  0.00    +0.000 OA
ATOM     13  H   UNL     1      -0.403  14.812  19.481  0.00  0.00    +0.000 HD
ENDBRANCH   6  12
BRANCH   1  14
ATOM     14  O   UNL     1       2.741   7.490  19.579  0.00  0.00    +0.000 OA
BRANCH  14  20
ATOM     15  C   UNL     1       3.616   5.293  19.087  0.00  0.00    +0.000 A 
ATOM     16  C   UNL     1       3.595   3.902  19.351  0.00  0.00    +0.000 A 
ATOM     17  C   UNL     1       2.653   3.371  20.215  0.00  0.00    +0.000 A 
ATOM     18  C   UNL     1       1.703   4.186  20.825  0.00  0.00    +0.000 A 
ATOM     19  C   UNL     1       1.706   5.558  20.563  0.00  0.00    +0.000 A 
ATOM     20  C   UNL     1       2.651   6.115  19.691  0.00  0.00    +0.000 A 
BRANCH  15  22
ATOM     21  C   UNL     1       4.663   5.339  16.939  0.00  0.00    +0.000 C 
ATOM     22  O   UNL     1       4.548   5.875  18.258  0.00  0.00    +0.000 OA
ENDBRANCH  15  22
ENDBRANCH  14  20
ENDBRANCH   1  14
BRANCH   5  23
ATOM     23  C   UNL     1       2.732  13.012  18.165  0.00  0.00    +0.000 C 
BRANCH  23  24
ATOM     24  N   UNL     1       2.915  14.430  18.541  0.00  0.00    +0.000 NA
ATOM     25  C   UNL     1       3.388  15.318  17.458  0.00  0.00    +0.000 C 
ATOM     26  C   UNL     1       3.429  16.810  17.879  0.00  0.00    +0.000 C 
ATOM     27  N   UNL     1       4.166  17.083  19.132  0.00  0.00    +0.000 NA
ATOM     28  C   UNL     1       5.611  16.949  18.947  0.00  0.00    +0.000 C 
ATOM     29  C   UNL     1       3.665  16.167  20.175  0.00  0.00    +0.000 C 
ATOM     30  C   UNL     1       3.669  14.666  19.778  0.00  0.00    +0.000 C 
ENDBRANCH  23  24
ENDBRANCH   5  23
TORSDOF 6
ENDMDL
MODEL 3
REMARK VINA RESULT:      -6.8      4.518      8.458
REMARK  Name = 
REMARK  8 active torsions:
REMARK  status: ('A' for Active; 'I' for Inactive)
REMARK    1  A    between atoms: C_1  and  O_2
REMARK    2  A    between atoms: O_2  and  C_3
REMARK    3  A    between atoms: C_8  and  O_9
REMARK    4  A    between atoms: O_9  and  C_10
REMARK    5  A    between atoms: C_14  and  C_15
REMARK    6  A    between atoms: C_15  and  N_16
REMARK    7  A    between atoms: N_19  and  C_20
REMARK    8  A    between atoms: C_23  and  O_24
REMARK                            x       y       z     vdW  Elec       q    Type
REMARK                         _______ _______ _______ _____ _____    ______ ____
ROOT
ATOM      1  C   UNL     1       1.531   6.838  20.034  0.00  0.00    +0.000 A 
ATOM      2  C   UNL     1       1.886   5.839  20.858  0.00  0.00    +0.000 A 
ATOM      3  O   UNL     1       3.085   5.131  20.554  0.00  0.00    +0.000 OA
ATOM      4  C   UNL     1       3.022   4.490  19.326  0.00  0.00    +0.000 A 
ATOM      5  C   UNL     1       3.895   3.447  19.006  0.00  0.00    +0.000 A 
ATOM      6  C   UNL     1       3.460   2.566  18.009  0.00  0.00    +0.000 A 
ATOM      7  C   UNL     1       2.266   2.800  17.312  0.00  0.00    +0.000 A 
ATOM      8  C   UNL     1       1.609   4.031  17.441  0.00  0.00    +0.000 A 
ATOM      9  C   UNL     1       2.039   4.898  18.431  0.00  0.00    +0.000 A 
ATOM     10  C   UNL     1       1.691   6.339  18.588  0.00  0.00    +0.000 A 
ATOM     11  O   UNL     1       1.713   7.087  17.627  0.00  0.00    +0.000 OA
ENDROOT
BRANCH   6  12
ATOM     12  O   UNL     1       4.150   1.443  17.647  0.00  0.00    +0.000 OA
ATOM     13  H   UNL     1       3.803   0.676  18.131  0.00  0.00    +0.000 HD
ENDBRANCH   6  12
BRANCH   1  14
ATOM     14  O   UNL     1       2.072   8.107  20.306  0.00  0.00    +0.000 OA
BRANCH  14  20
ATOM     15  C   UNL     1       0.420   9.868  20.221  0.00  0.00    +0.000 A 
ATOM     16  C   UNL     1      -0.528  10.664  20.909  0.00  0.00    +0.000 A 
ATOM     17  C   UNL     1      -0.649  10.569  22.284  0.00  0.00    +0.000 A 
ATOM     18  C   UNL     1       0.164   9.709  23.016  0.00  0.00    +0.000 A 
ATOM     19  C   UNL     1       1.112   8.927  22.350  0.00  0.00    +0.000 A 
ATOM     20  C   UNL     1       1.250   9.009  20.958  0.00  0.00    +0.000 A 
BRANCH  15  22
ATOM     21  C   UNL     1      -0.604  10.217  18.090  0.00  0.00    +0.000 C 
ATOM     22  O   UNL     1       0.562   9.903  18.853  0.00  0.00    +0.000 OA
ENDBRANCH  15  22
ENDBRANCH  14  20
ENDBRANCH   1  14
BRANCH   5  23
ATOM     23  C   UNL     1       5.273   3.440  19.625  0.00  0.00    +0.000 C 
BRANCH  23  24
ATOM     24  N   UNL     1       6.309   4.219  18.916  0.00  0.00    +0.000 NA
ATOM     25  C   UNL     1       6.737   5.464  19.585  0.00  0.00    +0.000 C 
ATOM     26  C   UNL     1       7.919   6.161  18.861  0.00  0.00    +0.000 C 
ATOM     27  N   UNL     1       7.712   6.394  17.416  0.00  0.00    +0.000 NA
ATOM     28  C   UNL     1       6.748   7.467  17.175  0.00  0.00    +0.000 C 
ATOM     29  C   UNL     1       7.278   5.126  16.797  0.00  0.00    +0.000 C 
ATOM     30  C   UNL     1       6.063   4.450  17.488  0.00  0.00    +0.000 C 
ENDBRANCH  23  24
ENDBRANCH   5  23
TORSDOF 6
ENDMDL
MODEL 4
REMARK VINA RESULT:      -6.7      0.808      1.836
REMARK  Name = 
REMARK  8 active torsions:
REMARK  status: ('A' for Active; 'I' for Inactive)
REMARK    1  A    between atoms: C_1  and  O_2
REMARK    2  A    between atoms: O_2  and  C_3
REMARK    3  A    between atoms: C_8  and  O_9
REMARK    4  A    between atoms: O_9  and  C_10
REMARK    5  A    between atoms: C_14  and  C_15
REMARK    6  A    between atoms: C_15  and  N_16
REMARK    7  A    between atoms: N_19  and  C_20
REMARK    8  A    between atoms: C_23  and  O_24
REMARK                            x       y       z     vdW  Elec       q    Type
REMARK                         _______ _______ _______ _____ _____    ______ ____
ROOT
ATOM      1  C   UNL     1       1.786   8.025  18.967  0.00  0.00    +0.000 A 
ATOM      2  C   UNL     1       1.826   8.727  17.824  0.00  0.00    +0.000 A 
ATOM      3  O   UNL     1       2.264  10.081  17.898  0.00  0.00    +0.000 OA
ATOM      4  C   UNL     1       1.436  10.861  18.692  0.00  0.00    +0.000 A 
ATOM      5  C   UNL     1       1.440  12.255  18.597  0.00  0.00    +0.000 A 
ATOM      6  C   UNL     1       0.283  12.905  19.039  0.00  0.00    +0.000 A 
ATOM      7  C   UNL     1      -0.761  12.187  19.639  0.00  0.00    +0.000 A 
ATOM      8  C   UNL     1      -0.568  10.849  20.011  0.00  0.00    +0.000 A 
ATOM      9  C   UNL     1       0.576  10.208  19.569  0.00  0.00    +0.000 A 
ATOM     10  C   UNL     1       1.127   8.907  20.042  0.00  0.00    +0.000 A 
ATOM     11  O   UNL     1       1.196   8.663  21.233  0.00  0.00    +0.000 OA
ENDROOT
BRANCH   6  12
ATOM     12  O   UNL     1       0.088  14.253  18.926  0.00  0.00    +0.000 OA
ATOM     13  H   UNL     1      -0.768  14.493  19.316  0.00  0.00    +0.000 HD
ENDBRANCH   6  12
BRANCH   1  14
ATOM     14  O   UNL     1       2.972   7.375  19.354  0.00  0.00    +0.000 OA
BRANCH  14  20
ATOM     15  C   UNL     1       2.528   5.022  19.033  0.00  0.00    +0.000 A 
ATOM     16  C   UNL     1       2.730   3.853  18.260  0.00  0.00    +0.000 A 
ATOM     17  C   UNL     1       3.617   3.866  17.197  0.00  0.00    +0.000 A 
ATOM     18  C   UNL     1       4.334   5.015  16.879  0.00  0.00    +0.000 A 
ATOM     19  C   UNL     1       4.153   6.172  17.642  0.00  0.00    +0.000 A 
ATOM     20  C   UNL     1       3.260   6.178  18.722  0.00  0.00    +0.000 A 
BRANCH  15  22
ATOM     21  C   UNL     1       1.062   3.831  20.498  0.00  0.00    +0.000 C 
ATOM     22  O   UNL     1       1.639   5.070  20.082  0.00  0.00    +0.000 OA
ENDBRANCH  15  22
ENDBRANCH  14  20
ENDBRANCH   1  14
BRANCH   5  23
ATOM     23  C   UNL     1       2.718  12.948  18.186  0.00  0.00    +0.000 C 
BRANCH  23  24
ATOM     24  N   UNL     1       2.837  14.372  18.566  0.00  0.00    +0.000 NA
ATOM     25  C   UNL     1       3.339  15.271  17.506  0.00  0.00    +0.000 C 
ATOM     26  C   UNL     1       3.312  16.765  17.923  0.00  0.00    +0.000 C 
ATOM     27  N   UNL     1       3.972  17.063  19.212  0.00  0.00    +0.000 NA
ATOM     28  C   UNL     1       5.428  16.974  19.105  0.00  0.00    +0.000 C 
ATOM     29  C   UNL     1       3.444  16.135  20.231  0.00  0.00    +0.000 C 
ATOM     30  C   UNL     1       3.516  14.634  19.840  0.00  0.00    +0.000 C 
ENDBRANCH  23  24
ENDBRANCH   5  23
TORSDOF 6
ENDMDL
MODEL 5
REMARK VINA RESULT:      -6.7      1.625      1.887
REMARK  Name = 
REMARK  8 active torsions:
REMARK  status: ('A' for Active; 'I' for Inactive)
REMARK    1  A    between atoms: C_1  and  O_2
REMARK    2  A    between atoms: O_2  and  C_3
REMARK    3  A    between atoms: C_8  and  O_9
REMARK    4  A    between atoms: O_9  and  C_10
REMARK    5  A    between atoms: C_14  and  C_15
REMARK    6  A    between atoms: C_15  and  N_16
REMARK    7  A    between atoms: N_19  and  C_20
REMARK    8  A    between atoms: C_23  and  O_24
REMARK                            x       y       z     vdW  Elec       q    Type
REMARK                         _______ _______ _______ _____ _____    ______ ____
ROOT
ATOM      1  C   UNL     1       1.817   8.220  18.565  0.00  0.00    +0.000 A 
ATOM      2  C   UNL     1       1.382   9.330  17.949  0.00  0.00    +0.000 A 
ATOM      3  O   UNL     1       1.685  10.583  18.557  0.00  0.00    +0.000 OA
ATOM      4  C   UNL     1       1.119  10.707  19.817  0.00  0.00    +0.000 A 
ATOM      5  C   UNL     1       0.954  11.957  20.420  0.00  0.00    +0.000 A 
ATOM      6  C   UNL     1      -0.030  12.036  21.411  0.00  0.00    +0.000 A 
ATOM      7  C   UNL     1      -0.720  10.891  21.834  0.00  0.00    +0.000 A 
ATOM      8  C   UNL     1      -0.280   9.621  21.437  0.00  0.00    +0.000 A 
ATOM      9  C   UNL     1       0.691   9.546  20.454  0.00  0.00    +0.000 A 
ATOM     10  C   UNL     1       1.497   8.355  20.064  0.00  0.00    +0.000 A 
ATOM     11  O   UNL     1       2.005   7.648  20.916  0.00  0.00    +0.000 OA
ENDROOT
BRANCH   6  12
ATOM     12  O   UNL     1      -0.381  13.204  22.029  0.00  0.00    +0.000 OA
ATOM     13  H   UNL     1       0.418  13.679  22.308  0.00  0.00    +0.000 HD
ENDBRANCH   6  12
BRANCH   1  14
ATOM     14  O   UNL     1       3.119   7.790  18.255  0.00  0.00    +0.000 OA
BRANCH  14  20
ATOM     15  C   UNL     1       4.461   6.082  17.197  0.00  0.00    +0.000 A 
ATOM     16  C   UNL     1       4.626   4.716  16.863  0.00  0.00    +0.000 A 
ATOM     17  C   UNL     1       3.618   3.807  17.132  0.00  0.00    +0.000 A 
ATOM     18  C   UNL     1       2.424   4.216  17.717  0.00  0.00    +0.000 A 
ATOM     19  C   UNL     1       2.243   5.563  18.040  0.00  0.00    +0.000 A 
ATOM     20  C   UNL     1       3.252   6.500  17.775  0.00  0.00    +0.000 A 
BRANCH  15  22
ATOM     21  C   UNL     1       6.765   6.685  17.395  0.00  0.00    +0.000 C 
ATOM     22  O   UNL     1       5.441   7.022  16.976  0.00  0.00    +0.000 OA
ENDBRANCH  15  22
ENDBRANCH  14  20
ENDBRANCH   1  14
BRANCH   5  23
ATOM     23  C   UNL     1       1.932  13.058  20.081  0.00  0.00    +0.000 C 
BRANCH  23  24
ATOM     24  N   UNL     1       1.371  14.422  19.996  0.00  0.00    +0.000 NA
ATOM     25  C   UNL     1       0.489  14.675  18.838  0.00  0.00    +0.000 C 
ATOM     26  C   UNL     1      -0.173  16.078  18.880  0.00  0.00    +0.000 C 
ATOM     27  N   UNL     1       0.767  17.203  19.071  0.00  0.00    +0.000 NA
ATOM     28  C   UNL     1       1.556  17.456  17.866  0.00  0.00    +0.000 C 
ATOM     29  C   UNL     1       1.629  16.898  20.230  0.00  0.00    +0.000 C 
ATOM     30  C   UNL     1       2.334  15.516  20.168  0.00  0.00    +0.000 C 
ENDBRANCH  23  24
ENDBRANCH   5  23
TORSDOF 6
ENDMDL
MODEL 6
REMARK VINA RESULT:      -6.6      4.583      8.677
REMARK  Name = 
REMARK  8 active torsions:
REMARK  status: ('A' for Active; 'I' for Inactive)
REMARK    1  A    between atoms: C_1  and  O_2
REMARK    2  A    between atoms: O_2  and  C_3
REMARK    3  A    between atoms: C_8  and  O_9
REMARK    4  A    between atoms: O_9  and  C_10
REMARK    5  A    between atoms: C_14  and  C_15
REMARK    6  A    between atoms: C_15  and  N_16
REMARK    7  A    between atoms: N_19  and  C_20
REMARK    8  A    between atoms: C_23  and  O_24
REMARK                            x       y       z     vdW  Elec       q    Type
REMARK                         _______ _______ _______ _____ _____    ______ ____
ROOT
ATOM      1  C   UNL     1       2.240   6.774  20.269  0.00  0.00    +0.000 A 
ATOM      2  C   UNL     1       3.472   6.588  19.768  0.00  0.00    +0.000 A 
ATOM      3  O   UNL     1       3.614   5.661  18.695  0.00  0.00    +0.000 OA
ATOM      4  C   UNL     1       3.249   4.373  19.060  0.00  0.00    +0.000 A 
ATOM      5  C   UNL     1       3.664   3.263  18.319  0.00  0.00    +0.000 A 
ATOM      6  C   UNL     1       3.679   2.041  19.000  0.00  0.00    +0.000 A 
ATOM      7  C   UNL     1       3.199   1.943  20.314  0.00  0.00    +0.000 A 
ATOM      8  C   UNL     1       2.488   3.009  20.882  0.00  0.00    +0.000 A 
ATOM      9  C   UNL     1       2.478   4.218  20.207  0.00  0.00    +0.000 A 
ATOM     10  C   UNL     1       1.595   5.391  20.461  0.00  0.00    +0.000 A 
ATOM     11  O   UNL     1       0.399   5.236  20.635  0.00  0.00    +0.000 OA
ENDROOT
BRANCH   6  12
ATOM     12  O   UNL     1       4.149   0.881  18.451  0.00  0.00    +0.000 OA
ATOM     13  H   UNL     1       4.179   0.187  19.129  0.00  0.00    +0.000 HD
ENDBRANCH   6  12
BRANCH   1  14
ATOM     14  O   UNL     1       1.437   7.740  19.637  0.00  0.00    +0.000 OA
BRANCH  14  20
ATOM     15  C   UNL     1       0.273   9.846  19.852  0.00  0.00    +0.000 A 
ATOM     16  C   UNL     1      -0.350  10.796  20.696  0.00  0.00    +0.000 A 
ATOM     17  C   UNL     1      -0.308  10.640  22.071  0.00  0.00    +0.000 A 
ATOM     18  C   UNL     1       0.357   9.562  22.648  0.00  0.00    +0.000 A 
ATOM     19  C   UNL     1       0.987   8.624  21.826  0.00  0.00    +0.000 A 
ATOM     20  C   UNL     1       0.956   8.765  20.432  0.00  0.00    +0.000 A 
BRANCH  15  22
ATOM     21  C   UNL     1      -1.044  10.133  17.878  0.00  0.00    +0.000 C 
ATOM     22  O   UNL     1       0.238   9.940  18.480  0.00  0.00    +0.000 OA
ENDBRANCH  15  22
ENDBRANCH  14  20
ENDBRANCH   1  14
BRANCH   5  23
ATOM     23  C   UNL     1       3.904   3.431  16.837  0.00  0.00    +0.000 C 
BRANCH  23  24
ATOM     24  N   UNL     1       5.215   3.992  16.449  0.00  0.00    +0.000 NA
ATOM     25  C   UNL     1       6.200   4.117  17.543  0.00  0.00    +0.000 C 
ATOM     26  C   UNL     1       7.595   4.583  17.046  0.00  0.00    +0.000 C 
ATOM     27  N   UNL     1       7.582   5.806  16.216  0.00  0.00    +0.000 NA
ATOM     28  C   UNL     1       7.314   6.999  17.019  0.00  0.00    +0.000 C 
ATOM     29  C   UNL     1       6.579   5.635  15.148  0.00  0.00    +0.000 C 
ATOM     30  C   UNL     1       5.168   5.218  15.644  0.00  0.00    +0.000 C 
ENDBRANCH  23  24
ENDBRANCH   5  23
TORSDOF 6
ENDMDL
MODEL 7
REMARK VINA RESULT:      -6.5      3.867      9.288
REMARK  Name = 
REMARK  8 active torsions:
REMARK  status: ('A' for Active; 'I' for Inactive)
REMARK    1  A    between atoms: C_1  and  O_2
REMARK    2  A    between atoms: O_2  and  C_3
REMARK    3  A    between atoms: C_8  and  O_9
REMARK    4  A    between atoms: O_9  and  C_10
REMARK    5  A    between atoms: C_14  and  C_15
REMARK    6  A    between atoms: C_15  and  N_16
REMARK    7  A    between atoms: N_19  and  C_20
REMARK    8  A    between atoms: C_23  and  O_24
REMARK                            x       y       z     vdW  Elec       q    Type
REMARK                         _______ _______ _______ _____ _____    ______ ____
ROOT
ATOM      1  C   UNL     1      -0.500  11.416  21.370  0.00  0.00    +0.000 A 
ATOM      2  C   UNL     1      -0.965  10.186  21.104  0.00  0.00    +0.000 A 
ATOM      3  O   UNL     1      -0.023   9.117  21.078  0.00  0.00    +0.000 OA
ATOM      4  C   UNL     1       0.939   9.286  20.094  0.00  0.00    +0.000 A 
ATOM      5  C   UNL     1       1.705   8.211  19.635  0.00  0.00    +0.000 A 
ATOM      6  C   UNL     1       2.263   8.354  18.360  0.00  0.00    +0.000 A 
ATOM      7  C   UNL     1       2.137   9.556  17.649  0.00  0.00    +0.000 A 
ATOM      8  C   UNL     1       1.652  10.703  18.293  0.00  0.00    +0.000 A 
ATOM      9  C   UNL     1       1.098  10.558  19.553  0.00  0.00    +0.000 A 
ATOM     10  C   UNL     1       0.769  11.634  20.530  0.00  0.00    +0.000 A 
ATOM     11  O   UNL     1       1.565  12.529  20.751  0.00  0.00    +0.000 OA
ENDROOT
BRANCH   6  12
ATOM     12  O   UNL     1       2.957   7.361  17.728  0.00  0.00    +0.000 OA
ATOM     13  H   UNL     1       3.907   7.465  17.901  0.00  0.00    +0.000 HD
ENDBRANCH   6  12
BRANCH   1  14
ATOM     14  O   UNL     1      -0.405  11.779  22.726  0.00  0.00    +0.000 OA
BRANCH  14  20
ATOM     15  C   UNL     1      -1.269  13.944  23.359  0.00  0.00    +0.000 A 
ATOM     16  C   UNL     1      -2.384  14.734  23.729  0.00  0.00    +0.000 A 
ATOM     17  C   UNL     1      -3.619  14.143  23.936  0.00  0.00    +0.000 A 
ATOM     18  C   UNL     1      -3.784  12.768  23.801  0.00  0.00    +0.000 A 
ATOM     19  C   UNL     1      -2.688  11.976  23.449  0.00  0.00    +0.000 A 
ATOM     20  C   UNL     1      -1.430  12.555  23.236  0.00  0.00    +0.000 A 
BRANCH  15  22
ATOM     21  C   UNL     1       0.062  15.452  22.069  0.00  0.00    +0.000 C 
ATOM     22  O   UNL     1      -0.027  14.485  23.116  0.00  0.00    +0.000 OA
ENDBRANCH  15  22
ENDBRANCH  14  20
ENDBRANCH   1  14
BRANCH   5  23
ATOM     23  C   UNL     1       2.001   7.075  20.586  0.00  0.00    +0.000 C 
BRANCH  23  24
ATOM     24  N   UNL     1       2.142   5.736  19.977  0.00  0.00    +0.000 NA
ATOM     25  C   UNL     1       1.204   4.710  20.476  0.00  0.00    +0.000 C 
ATOM     26  C   UNL     1       1.312   3.369  19.704  0.00  0.00    +0.000 C 
ATOM     27  N   UNL     1       2.680   2.817  19.605  0.00  0.00    +0.000 NA
ATOM     28  C   UNL     1       3.138   2.278  20.885  0.00  0.00    +0.000 C 
ATOM     29  C   UNL     1       3.577   3.880  19.112  0.00  0.00    +0.000 C 
ATOM     30  C   UNL     1       3.510   5.208  19.914  0.00  0.00    +0.000 C 
ENDBRANCH  23  24
ENDBRANCH   5  23
TORSDOF 6
ENDMDL
MODEL 8
REMARK VINA RESULT:      -6.5      4.224      8.515
REMARK  Name = 
REMARK  8 active torsions:
REMARK  status: ('A' for Active; 'I' for Inactive)
REMARK    1  A    between atoms: C_1  and  O_2
REMARK    2  A    between atoms: O_2  and  C_3
REMARK    3  A    between atoms: C_8  and  O_9
REMARK    4  A    between atoms: O_9  and  C_10
REMARK    5  A    between atoms: C_14  and  C_15
REMARK    6  A    between atoms: C_15  and  N_16
REMARK    7  A    between atoms: N_19  and  C_20
REMARK    8  A    between atoms: C_23  and  O_24
REMARK                            x       y       z     vdW  Elec       q    Type
REMARK                         _______ _______ _______ _____ _____    ______ ____
ROOT
ATOM      1  C   UNL     1       1.576   6.795  19.851  0.00  0.00    +0.000 A 
ATOM      2  C   UNL     1       1.959   5.870  20.746  0.00  0.00    +0.000 A 
ATOM      3  O   UNL     1       3.156   5.146  20.474  0.00  0.00    +0.000 OA
ATOM      4  C   UNL     1       3.070   4.405  19.305  0.00  0.00    +0.000 A 
ATOM      5  C   UNL     1       3.943   3.344  19.052  0.00  0.00    +0.000 A 
ATOM      6  C   UNL     1       3.493   2.381  18.142  0.00  0.00    +0.000 A 
ATOM      7  C   UNL     1       2.282   2.549  17.456  0.00  0.00    +0.000 A 
ATOM      8  C   UNL     1       1.618   3.783  17.498  0.00  0.00    +0.000 A 
ATOM      9  C   UNL     1       2.064   4.732  18.402  0.00  0.00    +0.000 A 
ATOM     10  C   UNL     1       1.708   6.178  18.448  0.00  0.00    +0.000 A 
ATOM     11  O   UNL     1       1.702   6.845  17.428  0.00  0.00    +0.000 OA
ENDROOT
BRANCH   6  12
ATOM     12  O   UNL     1       4.183   1.236  17.857  0.00  0.00    +0.000 OA
ATOM     13  H   UNL     1       4.765   1.013  18.602  0.00  0.00    +0.000 HD
ENDBRANCH   6  12
BRANCH   1  14
ATOM     14  O   UNL     1       2.114   8.086  20.004  0.00  0.00    +0.000 OA
BRANCH  14  20
ATOM     15  C   UNL     1       0.587   9.639  21.050  0.00  0.00    +0.000 A 
ATOM     16  C   UNL     1      -0.185  10.821  20.947  0.00  0.00    +0.000 A 
ATOM     17  C   UNL     1      -0.277  11.490  19.739  0.00  0.00    +0.000 A 
ATOM     18  C   UNL     1       0.368  11.009  18.604  0.00  0.00    +0.000 A 
ATOM     19  C   UNL     1       1.123   9.836  18.689  0.00  0.00    +0.000 A 
ATOM     20  C   UNL     1       1.229   9.144  19.903  0.00  0.00    +0.000 A 
BRANCH  15  22
ATOM     21  C   UNL     1       0.036   9.464  23.369  0.00  0.00    +0.000 C 
ATOM     22  O   UNL     1       0.734   8.951  22.232  0.00  0.00    +0.000 OA
ENDBRANCH  15  22
ENDBRANCH  14  20
ENDBRANCH   1  14
BRANCH   5  23
ATOM     23  C   UNL     1       5.335   3.397  19.637  0.00  0.00    +0.000 C 
BRANCH  23  24
ATOM     24  N   UNL     1       6.325   4.201  18.890  0.00  0.00    +0.000 NA
ATOM     25  C   UNL     1       6.738   5.463  19.538  0.00  0.00    +0.000 C 
ATOM     26  C   UNL     1       7.875   6.189  18.772  0.00  0.00    +0.000 C 
ATOM     27  N   UNL     1       7.615   6.405  17.333  0.00  0.00    +0.000 NA
ATOM     28  C   UNL     1       6.613   7.448  17.117  0.00  0.00    +0.000 C 
ATOM     29  C   UNL     1       7.200   5.121  16.736  0.00  0.00    +0.000 C 
ATOM     30  C   UNL     1       6.028   4.414  17.470  0.00  0.00    +0.000 C 
ENDBRANCH  23  24
ENDBRANCH   5  23
TORSDOF 6
ENDMDL
MODEL 9
REMARK VINA RESULT:      -6.5      2.020      3.161
REMARK  Name = 
REMARK  8 active torsions:
REMARK  status: ('A' for Active; 'I' for Inactive)
REMARK    1  A    between atoms: C_1  and  O_2
REMARK    2  A    between atoms: O_2  and  C_3
REMARK    3  A    between atoms: C_8  and  O_9
REMARK    4  A    between atoms: O_9  and  C_10
REMARK    5  A    between atoms: C_14  and  C_15
REMARK    6  A    between atoms: C_15  and  N_16
REMARK    7  A    between atoms: N_19  and  C_20
REMARK    8  A    between atoms: C_23  and  O_24
REMARK                            x       y       z     vdW  Elec       q    Type
REMARK                         _______ _______ _______ _____ _____    ______ ____
ROOT
ATOM      1  C   UNL     1       0.386   8.706  21.237  0.00  0.00    +0.000 A 
ATOM      2  C   UNL     1      -0.391   9.193  20.257  0.00  0.00    +0.000 A 
ATOM      3  O   UNL     1      -0.317  10.591  19.991  0.00  0.00    +0.000 OA
ATOM      4  C   UNL     1      -0.704  11.357  21.080  0.00  0.00    +0.000 A 
ATOM      5  C   UNL     1      -1.077  12.695  20.932  0.00  0.00    +0.000 A 
ATOM      6  C   UNL     1      -1.894  13.221  21.939  0.00  0.00    +0.000 A 
ATOM      7  C   UNL     1      -2.215  12.463  23.075  0.00  0.00    +0.000 A 
ATOM      8  C   UNL     1      -1.542  11.260  23.327  0.00  0.00    +0.000 A 
ATOM      9  C   UNL     1      -0.738  10.741  22.327  0.00  0.00    +0.000 A 
ATOM     10  C   UNL     1       0.268   9.647  22.447  0.00  0.00    +0.000 A 
ATOM     11  O   UNL     1       1.052   9.631  23.379  0.00  0.00    +0.000 OA
ENDROOT
BRANCH   6  12
ATOM     12  O   UNL     1      -2.424  14.480  21.896  0.00  0.00    +0.000 OA
ATOM     13  H   UNL     1      -2.667  14.700  20.982  0.00  0.00    +0.000 HD
ENDBRANCH   6  12
BRANCH   1  14
ATOM     14  O   UNL     1       1.694   8.330  20.881  0.00  0.00    +0.000 OA
BRANCH  14  20
ATOM     15  C   UNL     1       2.477   7.119  18.943  0.00  0.00    +0.000 A 
ATOM     16  C   UNL     1       2.752   5.871  18.333  0.00  0.00    +0.000 A 
ATOM     17  C   UNL     1       2.414   4.693  18.975  0.00  0.00    +0.000 A 
ATOM     18  C   UNL     1       1.787   4.711  20.218  0.00  0.00    +0.000 A 
ATOM     19  C   UNL     1       1.499   5.936  20.825  0.00  0.00    +0.000 A 
ATOM     20  C   UNL     1       1.833   7.140  20.190  0.00  0.00    +0.000 A 
BRANCH  15  22
ATOM     21  C   UNL     1       1.833   8.932  17.525  0.00  0.00    +0.000 C 
ATOM     22  O   UNL     1       2.817   8.318  18.360  0.00  0.00    +0.000 OA
ENDBRANCH  15  22
ENDBRANCH  14  20
ENDBRANCH   1  14
BRANCH   5  23
ATOM     23  C   UNL     1      -0.458  13.499  19.813  0.00  0.00    +0.000 C 
BRANCH  23  24
ATOM     24  N   UNL     1       1.018  13.583  19.810  0.00  0.00    +0.000 NA
ATOM     25  C   UNL     1       1.619  14.227  20.996  0.00  0.00    +0.000 C 
ATOM     26  C   UNL     1       3.169  14.162  20.996  0.00  0.00    +0.000 C 
ATOM     27  N   UNL     1       3.811  14.653  19.758  0.00  0.00    +0.000 NA
ATOM     28  C   UNL     1       3.732  16.109  19.651  0.00  0.00    +0.000 C 
ATOM     29  C   UNL     1       3.171  13.988  18.606  0.00  0.00    +0.000 C 
ATOM     30  C   UNL     1       1.622  14.094  18.575  0.00  0.00    +0.000 C 
ENDBRANCH  23  24
ENDBRANCH   5  23
TORSDOF 6
ENDMDL
