MODEL 1
REMARK VINA RESULT:      -8.0      0.000      0.000
REMARK  Name = 
REMARK  5 active torsions:
REMARK  status: ('A' for Active; 'I' for Inactive)
REMARK    1  A    between atoms: C_2  and  C_26
REMARK    2  A    between atoms: N_3  and  C_4
REMARK    3  A    between atoms: C_4  and  C_5
REMARK    4  A    between atoms: C_4  and  C_12
REMARK    5  A    between atoms: C_5  and  C_6
REMARK                            x       y       z     vdW  Elec       q    Type
REMARK                         _______ _______ _______ _____ _____    ______ ____
ROOT
ATOM      1  C   UNL     1       5.001   4.707  16.615  0.00  0.00    +0.000 C 
ENDROOT
BRANCH   1   2
ATOM      2  C   UNL     1       3.907   4.299  17.629  0.00  0.00    +0.000 C 
ATOM      3  O   UNL     1       3.882   3.148  18.078  0.00  0.00    +0.000 OA
ATOM      4  N   UNL     1       3.003   5.263  18.065  0.00  0.00    +0.000 N 
ATOM      5  C   UNL     1       2.151   4.978  19.230  0.00  0.00    +0.000 C 
ATOM      6  C   UNL     1       2.305   6.045  20.341  0.00  0.00    +0.000 C 
ATOM      7  N   UNL     1       2.181   7.399  19.787  0.00  0.00    +0.000 N 
ATOM      8  C   UNL     1       1.348   8.356  20.320  0.00  0.00    +0.000 A 
ATOM      9  C   UNL     1       1.057   8.399  21.684  0.00  0.00    +0.000 A 
ATOM     10  C   UNL     1       0.188   9.367  22.192  0.00  0.00    +0.000 A 
ATOM     11  C   UNL     1      -0.387  10.279  21.325  0.00  0.00    +0.000 A 
ATOM     12  C   UNL     1      -0.048  10.190  19.990  0.00  0.00    +0.000 A 
ATOM     13  N   UNL     1       0.806   9.269  19.483  0.00  0.00    +0.000 NA
ATOM     14  C   UNL     1       2.991   7.703  18.605  0.00  0.00    +0.000 C 
ATOM     15  C   UNL     1       2.805   6.619  17.522  0.00  0.00    +0.000 C 
ENDBRANCH   1   2
BRANCH   1  18
ATOM     16  O   UNL     1       5.605   7.286  15.827  0.00  0.00    +0.000 OA
ATOM     17  C   UNL     1       6.221   6.849  16.802  0.00  0.00    +0.000 C 
ATOM     18  N   UNL     1       5.993   5.573  17.263  0.00  0.00    +0.000 N 
ATOM     19  H   UNL     1       6.509   5.217  18.061  0.00  0.00    +0.000 HD
BRANCH  17  20
ATOM     20  C   UNL     1       7.198   7.647  17.510  0.00  0.00    +0.000 A 
ATOM     21  C   UNL     1       8.058   7.268  18.526  0.00  0.00    +0.000 A 
ATOM     22  C   UNL     1       8.795   8.414  18.895  0.00  0.00    +0.000 A 
ATOM     23  C   UNL     1       8.345   9.428  18.083  0.00  0.00    +0.000 A 
ATOM     24  O   UNL     1       7.380   8.976  17.232  0.00  0.00    +0.000 OA
ENDBRANCH  17  20
ENDBRANCH   1  18
BRANCH   1  25
ATOM     25  C   UNL     1       5.648   3.534  15.854  0.00  0.00    +0.000 C 
BRANCH  25  26
ATOM     26  C   UNL     1       6.166   3.845  14.466  0.00  0.00    +0.000 A 
ATOM     27  C   UNL     1       5.558   3.279  13.337  0.00  0.00    +0.000 A 
ATOM     28  C   UNL     1       6.048   3.549  12.057  0.00  0.00    +0.000 A 
ATOM     29  C   UNL     1       7.146   4.390  11.890  0.00  0.00    +0.000 A 
ATOM     30  C   UNL     1       7.743   4.980  13.002  0.00  0.00    +0.000 A 
ATOM     31  C   UNL     1       7.252   4.715  14.283  0.00  0.00    +0.000 A 
ENDBRANCH  25  26
ENDBRANCH   1  25
TORSDOF 5
ENDMDL
MODEL 2
REMARK VINA RESULT:      -7.7      0.518      1.123
REMARK  Name = 
REMARK  5 active torsions:
REMARK  status: ('A' for Active; 'I' for Inactive)
REMARK    1  A    between atoms: C_2  and  C_26
REMARK    2  A    between atoms: N_3  and  C_4
REMARK    3  A    between atoms: C_4  and  C_5
REMARK    4  A    between atoms: C_4  and  C_12
REMARK    5  A    between atoms: C_5  and  C_6
REMARK                            x       y       z     vdW  Elec       q    Type
REMARK                         _______ _______ _______ _____ _____    ______ ____
ROOT
ATOM      1  C   UNL     1       4.846   4.711  16.616  0.00  0.00    +0.000 C 
ENDROOT
BRANCH   1   2
ATOM      2  C   UNL     1       3.739   4.304  17.616  0.00  0.00    +0.000 C 
ATOM      3  O   UNL     1       3.680   3.140  18.029  0.00  0.00    +0.000 OA
ATOM      4  N   UNL     1       2.864   5.280  18.082  0.00  0.00    +0.000 N 
ATOM      5  C   UNL     1       2.002   4.984  19.237  0.00  0.00    +0.000 C 
ATOM      6  C   UNL     1       2.186   6.010  20.382  0.00  0.00    +0.000 C 
ATOM      7  N   UNL     1       2.103   7.383  19.871  0.00  0.00    +0.000 N 
ATOM      8  C   UNL     1       1.298   8.347  20.434  0.00  0.00    +0.000 A 
ATOM      9  C   UNL     1       1.006   8.355  21.799  0.00  0.00    +0.000 A 
ATOM     10  C   UNL     1       0.165   9.332  22.336  0.00  0.00    +0.000 A 
ATOM     11  C   UNL     1      -0.381  10.288  21.499  0.00  0.00    +0.000 A 
ATOM     12  C   UNL     1      -0.044  10.231  20.161  0.00  0.00    +0.000 A 
ATOM     13  N   UNL     1       0.783   9.302  19.626  0.00  0.00    +0.000 NA
ATOM     14  C   UNL     1       2.922   7.701  18.699  0.00  0.00    +0.000 C 
ATOM     15  C   UNL     1       2.706   6.658  17.582  0.00  0.00    +0.000 C 
ENDBRANCH   1   2
BRANCH   1  18
ATOM     16  O   UNL     1       5.590   7.240  15.787  0.00  0.00    +0.000 OA
ATOM     17  C   UNL     1       6.145   6.807  16.799  0.00  0.00    +0.000 C 
ATOM     18  N   UNL     1       5.845   5.555  17.283  0.00  0.00    +0.000 N 
ATOM     19  H   UNL     1       6.311   5.200  18.112  0.00  0.00    +0.000 HD
BRANCH  17  20
ATOM     20  C   UNL     1       7.124   7.584  17.527  0.00  0.00    +0.000 A 
ATOM     21  C   UNL     1       7.428   8.929  17.409  0.00  0.00    +0.000 A 
ATOM     22  C   UNL     1       8.469   9.201  18.324  0.00  0.00    +0.000 A 
ATOM     23  C   UNL     1       8.739   8.007  18.951  0.00  0.00    +0.000 A 
ATOM     24  O   UNL     1       7.926   7.019  18.483  0.00  0.00    +0.000 OA
ENDBRANCH  17  20
ENDBRANCH   1  18
BRANCH   1  25
ATOM     25  C   UNL     1       5.483   3.541  15.842  0.00  0.00    +0.000 C 
BRANCH  25  26
ATOM     26  C   UNL     1       6.080   3.880  14.494  0.00  0.00    +0.000 A 
ATOM     27  C   UNL     1       7.220   4.689  14.403  0.00  0.00    +0.000 A 
ATOM     28  C   UNL     1       7.759   5.018  13.157  0.00  0.00    +0.000 A 
ATOM     29  C   UNL     1       7.169   4.540  11.989  0.00  0.00    +0.000 A 
ATOM     30  C   UNL     1       6.050   3.713  12.066  0.00  0.00    +0.000 A 
ATOM     31  C   UNL     1       5.512   3.379  13.311  0.00  0.00    +0.000 A 
ENDBRANCH  25  26
ENDBRANCH   1  25
TORSDOF 5
ENDMDL
MODEL 3
REMARK VINA RESULT:      -7.5      2.569      5.770
REMARK  Name = 
REMARK  5 active torsions:
REMARK  status: ('A' for Active; 'I' for Inactive)
REMARK    1  A    between atoms: C_2  and  C_26
REMARK    2  A    between atoms: N_3  and  C_4
REMARK    3  A    between atoms: C_4  and  C_5
REMARK    4  A    between atoms: C_4  and  C_12
REMARK    5  A    between atoms: C_5  and  C_6
REMARK                            x       y       z     vdW  Elec       q    Type
REMARK                         _______ _______ _______ _____ _____    ______ ____
ROOT
ATOM      1  C   UNL     1       2.418   6.926  18.660  0.00  0.00    +0.000 C 
ENDROOT
BRANCH   1   2
ATOM      2  C   UNL     1       2.224   8.400  18.234  0.00  0.00    +0.000 C 
ATOM      3  O   UNL     1       2.543   8.758  17.095  0.00  0.00    +0.000 OA
ATOM      4  N   UNL     1       1.632   9.285  19.131  0.00  0.00    +0.000 N 
ATOM      5  C   UNL     1       1.178  10.599  18.652  0.00  0.00    +0.000 C 
ATOM      6  C   UNL     1      -0.321  10.845  18.953  0.00  0.00    +0.000 C 
ATOM      7  N   UNL     1      -0.627  10.546  20.357  0.00  0.00    +0.000 N 
ATOM      8  C   UNL     1      -1.311  11.414  21.178  0.00  0.00    +0.000 A 
ATOM      9  C   UNL     1      -2.281  12.285  20.681  0.00  0.00    +0.000 A 
ATOM     10  C   UNL     1      -2.941  13.171  21.535  0.00  0.00    +0.000 A 
ATOM     11  C   UNL     1      -2.616  13.180  22.879  0.00  0.00    +0.000 A 
ATOM     12  C   UNL     1      -1.657  12.286  23.309  0.00  0.00    +0.000 A 
ATOM     13  N   UNL     1      -1.020  11.407  22.498  0.00  0.00    +0.000 NA
ATOM     14  C   UNL     1      -0.156   9.259  20.875  0.00  0.00    +0.000 C 
ATOM     15  C   UNL     1       1.340   9.056  20.557  0.00  0.00    +0.000 C 
ENDBRANCH   1   2
BRANCH   1  18
ATOM     16  O   UNL     1       3.113   4.674  17.216  0.00  0.00    +0.000 OA
ATOM     17  C   UNL     1       4.042   5.361  17.646  0.00  0.00    +0.000 C 
ATOM     18  N   UNL     1       3.794   6.496  18.382  0.00  0.00    +0.000 N 
ATOM     19  H   UNL     1       4.563   7.052  18.742  0.00  0.00    +0.000 HD
BRANCH  17  20
ATOM     20  C   UNL     1       5.425   5.019  17.398  0.00  0.00    +0.000 A 
ATOM     21  C   UNL     1       6.457   4.855  18.307  0.00  0.00    +0.000 A 
ATOM     22  C   UNL     1       7.618   4.547  17.565  0.00  0.00    +0.000 A 
ATOM     23  C   UNL     1       7.230   4.537  16.246  0.00  0.00    +0.000 A 
ATOM     24  O   UNL     1       5.901   4.816  16.130  0.00  0.00    +0.000 OA
ENDBRANCH  17  20
ENDBRANCH   1  18
BRANCH   1  25
ATOM     25  C   UNL     1       1.977   6.603  20.100  0.00  0.00    +0.000 C 
BRANCH  25  26
ATOM     26  C   UNL     1       1.795   5.138  20.430  0.00  0.00    +0.000 A 
ATOM     27  C   UNL     1       0.915   4.344  19.682  0.00  0.00    +0.000 A 
ATOM     28  C   UNL     1       0.731   2.996  19.999  0.00  0.00    +0.000 A 
ATOM     29  C   UNL     1       1.427   2.425  21.062  0.00  0.00    +0.000 A 
ATOM     30  C   UNL     1       2.324   3.196  21.797  0.00  0.00    +0.000 A 
ATOM     31  C   UNL     1       2.513   4.543  21.479  0.00  0.00    +0.000 A 
ENDBRANCH  25  26
ENDBRANCH   1  25
TORSDOF 5
ENDMDL
MODEL 4
REMARK VINA RESULT:      -7.5      5.132      8.779
REMARK  Name = 
REMARK  5 active torsions:
REMARK  status: ('A' for Active; 'I' for Inactive)
REMARK    1  A    between atoms: C_2  and  C_26
REMARK    2  A    between atoms: N_3  and  C_4
REMARK    3  A    between atoms: C_4  and  C_5
REMARK    4  A    between atoms: C_4  and  C_12
REMARK    5  A    between atoms: C_5  and  C_6
REMARK                            x       y       z     vdW  Elec       q    Type
REMARK                         _______ _______ _______ _____ _____    ______ ____
ROOT
ATOM      1  C   UNL     1       1.147  10.518  18.610  0.00  0.00    +0.000 C 
ENDROOT
BRANCH   1   2
ATOM      2  C   UNL     1       1.800  11.888  18.911  0.00  0.00    +0.000 C 
ATOM      3  O   UNL     1       2.595  12.381  18.103  0.00  0.00    +0.000 OA
ATOM      4  N   UNL     1       1.427  12.570  20.065  0.00  0.00    +0.000 N 
ATOM      5  C   UNL     1       1.808  13.982  20.222  0.00  0.00    +0.000 C 
ATOM      6  C   UNL     1       0.583  14.893  20.479  0.00  0.00    +0.000 C 
ATOM      7  N   UNL     1      -0.260  14.345  21.549  0.00  0.00    +0.000 N 
ATOM      8  C   UNL     1      -0.693  15.092  22.621  0.00  0.00    +0.000 A 
ATOM      9  C   UNL     1      -0.936  16.461  22.513  0.00  0.00    +0.000 A 
ATOM     10  C   UNL     1      -1.350  17.197  23.625  0.00  0.00    +0.000 A 
ATOM     11  C   UNL     1      -1.510  16.553  24.839  0.00  0.00    +0.000 A 
ATOM     12  C   UNL     1      -1.264  15.195  24.876  0.00  0.00    +0.000 A 
ATOM     13  N   UNL     1      -0.879  14.463  23.804  0.00  0.00    +0.000 NA
ATOM     14  C   UNL     1      -0.627  12.931  21.440  0.00  0.00    +0.000 C 
ATOM     15  C   UNL     1       0.621  12.060  21.189  0.00  0.00    +0.000 C 
ENDBRANCH   1   2
BRANCH   1  18
ATOM     16  O   UNL     1      -1.432   9.935  19.415  0.00  0.00    +0.000 OA
ATOM     17  C   UNL     1      -1.299  10.388  18.275  0.00  0.00    +0.000 C 
ATOM     18  N   UNL     1      -0.053  10.701  17.785  0.00  0.00    +0.000 N 
ATOM     19  H   UNL     1       0.051  11.065  16.843  0.00  0.00    +0.000 HD
BRANCH  17  20
ATOM     20  C   UNL     1      -2.433  10.618  17.406  0.00  0.00    +0.000 A 
ATOM     21  C   UNL     1      -2.619  10.215  16.096  0.00  0.00    +0.000 A 
ATOM     22  C   UNL     1      -3.877  10.706  15.685  0.00  0.00    +0.000 A 
ATOM     23  C   UNL     1      -4.390  11.380  16.769  0.00  0.00    +0.000 A 
ATOM     24  O   UNL     1      -3.527  11.329  17.823  0.00  0.00    +0.000 OA
ENDBRANCH  17  20
ENDBRANCH   1  18
BRANCH   1  25
ATOM     25  C   UNL     1       2.103   9.456  18.036  0.00  0.00    +0.000 C 
BRANCH  25  26
ATOM     26  C   UNL     1       2.116   8.118  18.742  0.00  0.00    +0.000 A 
ATOM     27  C   UNL     1       1.646   8.004  20.058  0.00  0.00    +0.000 A 
ATOM     28  C   UNL     1       1.677   6.772  20.718  0.00  0.00    +0.000 A 
ATOM     29  C   UNL     1       2.171   5.642  20.069  0.00  0.00    +0.000 A 
ATOM     30  C   UNL     1       2.616   5.737  18.753  0.00  0.00    +0.000 A 
ATOM     31  C   UNL     1       2.583   6.966  18.090  0.00  0.00    +0.000 A 
ENDBRANCH  25  26
ENDBRANCH   1  25
TORSDOF 5
ENDMDL
MODEL 5
REMARK VINA RESULT:      -7.4      0.892      1.257
REMARK  Name = 
REMARK  5 active torsions:
REMARK  status: ('A' for Active; 'I' for Inactive)
REMARK    1  A    between atoms: C_2  and  C_26
REMARK    2  A    between atoms: N_3  and  C_4
REMARK    3  A    between atoms: C_4  and  C_5
REMARK    4  A    between atoms: C_4  and  C_12
REMARK    5  A    between atoms: C_5  and  C_6
REMARK                            x       y       z     vdW  Elec       q    Type
REMARK                         _______ _______ _______ _____ _____    ______ ____
ROOT
ATOM      1  C   UNL     1       5.090   5.330  16.409  0.00  0.00    +0.000 C 
ENDROOT
BRANCH   1   2
ATOM      2  C   UNL     1       4.074   4.912  17.498  0.00  0.00    +0.000 C 
ATOM      3  O   UNL     1       4.183   3.813  18.051  0.00  0.00    +0.000 OA
ATOM      4  N   UNL     1       3.087   5.817  17.878  0.00  0.00    +0.000 N 
ATOM      5  C   UNL     1       2.304   5.560  19.096  0.00  0.00    +0.000 C 
ATOM      6  C   UNL     1       2.378   6.738  20.097  0.00  0.00    +0.000 C 
ATOM      7  N   UNL     1       2.097   8.013  19.426  0.00  0.00    +0.000 N 
ATOM      8  C   UNL     1       1.184   8.927  19.901  0.00  0.00    +0.000 A 
ATOM      9  C   UNL     1       0.930   9.071  21.265  0.00  0.00    +0.000 A 
ATOM     10  C   UNL     1      -0.021   9.990  21.715  0.00  0.00    +0.000 A 
ATOM     11  C   UNL     1      -0.713  10.752  20.790  0.00  0.00    +0.000 A 
ATOM     12  C   UNL     1      -0.406  10.570  19.457  0.00  0.00    +0.000 A 
ATOM     13  N   UNL     1       0.525   9.696  19.005  0.00  0.00    +0.000 NA
ATOM     14  C   UNL     1       2.835   8.283  18.190  0.00  0.00    +0.000 C 
ATOM     15  C   UNL     1       2.733   7.088  17.220  0.00  0.00    +0.000 C 
ENDBRANCH   1   2
BRANCH   1  18
ATOM     16  O   UNL     1       7.497   5.332  17.765  0.00  0.00    +0.000 OA
ATOM     17  C   UNL     1       7.015   6.435  17.497  0.00  0.00    +0.000 C 
ATOM     18  N   UNL     1       5.817   6.533  16.830  0.00  0.00    +0.000 N 
ATOM     19  H   UNL     1       5.421   7.444  16.619  0.00  0.00    +0.000 HD
BRANCH  17  20
ATOM     20  C   UNL     1       7.679   7.668  17.857  0.00  0.00    +0.000 A 
ATOM     21  C   UNL     1       8.603   7.897  18.862  0.00  0.00    +0.000 A 
ATOM     22  C   UNL     1       8.932   9.269  18.819  0.00  0.00    +0.000 A 
ATOM     23  C   UNL     1       8.194   9.800  17.788  0.00  0.00    +0.000 A 
ATOM     24  O   UNL     1       7.434   8.840  17.190  0.00  0.00    +0.000 OA
ENDBRANCH  17  20
ENDBRANCH   1  18
BRANCH   1  25
ATOM     25  C   UNL     1       6.031   4.206  15.935  0.00  0.00    +0.000 C 
BRANCH  25  26
ATOM     26  C   UNL     1       6.424   4.237  14.474  0.00  0.00    +0.000 A 
ATOM     27  C   UNL     1       7.446   5.088  14.030  0.00  0.00    +0.000 A 
ATOM     28  C   UNL     1       7.796   5.131  12.678  0.00  0.00    +0.000 A 
ATOM     29  C   UNL     1       7.133   4.324  11.757  0.00  0.00    +0.000 A 
ATOM     30  C   UNL     1       6.133   3.455  12.188  0.00  0.00    +0.000 A 
ATOM     31  C   UNL     1       5.784   3.407  13.540  0.00  0.00    +0.000 A 
ENDBRANCH  25  26
ENDBRANCH   1  25
TORSDOF 5
ENDMDL
MODEL 6
REMARK VINA RESULT:      -7.3      4.215      8.671
REMARK  Name = 
REMARK  5 active torsions:
REMARK  status: ('A' for Active; 'I' for Inactive)
REMARK    1  A    between atoms: C_2  and  C_26
REMARK    2  A    between atoms: N_3  and  C_4
REMARK    3  A    between atoms: C_4  and  C_5
REMARK    4  A    between atoms: C_4  and  C_12
REMARK    5  A    between atoms: C_5  and  C_6
REMARK                            x       y       z     vdW  Elec       q    Type
REMARK                         _______ _______ _______ _____ _____    ______ ____
ROOT
ATOM      1  C   UNL     1      -0.311  10.643  18.977  0.00  0.00    +0.000 C 
ENDROOT
BRANCH   1   2
ATOM      2  C   UNL     1       0.370   9.650  19.949  0.00  0.00    +0.000 C 
ATOM      3  O   UNL     1      -0.126   9.443  21.062  0.00  0.00    +0.000 OA
ATOM      4  N   UNL     1       1.499   8.959  19.521  0.00  0.00    +0.000 N 
ATOM      5  C   UNL     1       1.984   7.814  20.306  0.00  0.00    +0.000 C 
ATOM      6  C   UNL     1       2.090   6.525  19.455  0.00  0.00    +0.000 C 
ATOM      7  N   UNL     1       2.814   6.783  18.204  0.00  0.00    +0.000 N 
ATOM      8  C   UNL     1       3.862   6.004  17.769  0.00  0.00    +0.000 A 
ATOM      9  C   UNL     1       3.935   4.641  18.059  0.00  0.00    +0.000 A 
ATOM     10  C   UNL     1       5.024   3.882  17.624  0.00  0.00    +0.000 A 
ATOM     11  C   UNL     1       6.034   4.500  16.908  0.00  0.00    +0.000 A 
ATOM     12  C   UNL     1       5.895   5.848  16.645  0.00  0.00    +0.000 A 
ATOM     13  N   UNL     1       4.838   6.595  17.043  0.00  0.00    +0.000 NA
ATOM     14  C   UNL     1       2.379   7.939  17.417  0.00  0.00    +0.000 C 
ATOM     15  C   UNL     1       2.290   9.201  18.301  0.00  0.00    +0.000 C 
ENDBRANCH   1   2
BRANCH   1  18
ATOM     16  O   UNL     1      -0.205  13.180  20.067  0.00  0.00    +0.000 OA
ATOM     17  C   UNL     1       0.618  12.924  19.185  0.00  0.00    +0.000 C 
ATOM     18  N   UNL     1       0.637  11.690  18.579  0.00  0.00    +0.000 N 
ATOM     19  H   UNL     1       1.311  11.489  17.847  0.00  0.00    +0.000 HD
BRANCH  17  20
ATOM     20  C   UNL     1       1.600  13.894  18.751  0.00  0.00    +0.000 A 
ATOM     21  C   UNL     1       2.887  13.680  18.288  0.00  0.00    +0.000 A 
ATOM     22  C   UNL     1       3.446  14.947  18.014  0.00  0.00    +0.000 A 
ATOM     23  C   UNL     1       2.467  15.864  18.322  0.00  0.00    +0.000 A 
ATOM     24  O   UNL     1       1.340  15.239  18.764  0.00  0.00    +0.000 OA
ENDBRANCH  17  20
ENDBRANCH   1  18
BRANCH   1  25
ATOM     25  C   UNL     1      -1.012   9.991  17.770  0.00  0.00    +0.000 C 
BRANCH  25  26
ATOM     26  C   UNL     1      -2.369  10.553  17.404  0.00  0.00    +0.000 A 
ATOM     27  C   UNL     1      -2.850  10.452  16.091  0.00  0.00    +0.000 A 
ATOM     28  C   UNL     1      -4.093  10.989  15.748  0.00  0.00    +0.000 A 
ATOM     29  C   UNL     1      -4.871  11.627  16.712  0.00  0.00    +0.000 A 
ATOM     30  C   UNL     1      -4.416  11.712  18.026  0.00  0.00    +0.000 A 
ATOM     31  C   UNL     1      -3.175  11.172  18.372  0.00  0.00    +0.000 A 
ENDBRANCH  25  26
ENDBRANCH   1  25
TORSDOF 5
ENDMDL
MODEL 7
REMARK VINA RESULT:      -7.3      4.350     10.828
REMARK  Name = 
REMARK  5 active torsions:
REMARK  status: ('A' for Active; 'I' for Inactive)
REMARK    1  A    between atoms: C_2  and  C_26
REMARK    2  A    between atoms: N_3  and  C_4
REMARK    3  A    between atoms: C_4  and  C_5
REMARK    4  A    between atoms: C_4  and  C_12
REMARK    5  A    between atoms: C_5  and  C_6
REMARK                            x       y       z     vdW  Elec       q    Type
REMARK                         _______ _______ _______ _____ _____    ______ ____
ROOT
ATOM      1  C   UNL     1      -0.731  12.350  21.163  0.00  0.00    +0.000 C 
ENDROOT
BRANCH   1   2
ATOM      2  C   UNL     1      -0.049  11.174  21.901  0.00  0.00    +0.000 C 
ATOM      3  O   UNL     1      -0.366  10.912  23.066  0.00  0.00    +0.000 OA
ATOM      4  N   UNL     1       0.871  10.390  21.209  0.00  0.00    +0.000 N 
ATOM      5  C   UNL     1       1.307   9.111  21.789  0.00  0.00    +0.000 C 
ATOM      6  C   UNL     1       1.065   7.922  20.827  0.00  0.00    +0.000 C 
ATOM      7  N   UNL     1       1.589   8.218  19.488  0.00  0.00    +0.000 N 
ATOM      8  C   UNL     1       2.414   7.359  18.798  0.00  0.00    +0.000 A 
ATOM      9  C   UNL     1       2.330   5.975  18.953  0.00  0.00    +0.000 A 
ATOM     10  C   UNL     1       3.198   5.131  18.257  0.00  0.00    +0.000 A 
ATOM     11  C   UNL     1       4.148   5.684  17.417  0.00  0.00    +0.000 A 
ATOM     12  C   UNL     1       4.171   7.059  17.299  0.00  0.00    +0.000 A 
ATOM     13  N   UNL     1       3.326   7.891  17.952  0.00  0.00    +0.000 NA
ATOM     14  C   UNL     1       1.202   9.501  18.898  0.00  0.00    +0.000 C 
ATOM     15  C   UNL     1       1.462  10.658  19.886  0.00  0.00    +0.000 C 
ENDBRANCH   1   2
BRANCH   1  18
ATOM     16  O   UNL     1      -0.805  12.986  18.474  0.00  0.00    +0.000 OA
ATOM     17  C   UNL     1      -1.672  12.209  18.881  0.00  0.00    +0.000 C 
ATOM     18  N   UNL     1      -1.719  11.840  20.205  0.00  0.00    +0.000 N 
ATOM     19  H   UNL     1      -2.441  11.207  20.535  0.00  0.00    +0.000 HD
BRANCH  17  20
ATOM     20  C   UNL     1      -2.669  11.645  17.997  0.00  0.00    +0.000 A 
ATOM     21  C   UNL     1      -4.031  11.505  18.200  0.00  0.00    +0.000 A 
ATOM     22  C   UNL     1      -4.559  10.877  17.052  0.00  0.00    +0.000 A 
ATOM     23  C   UNL     1      -3.490  10.670  16.211  0.00  0.00    +0.000 A 
ATOM     24  O   UNL     1      -2.338  11.138  16.769  0.00  0.00    +0.000 OA
ENDBRANCH  17  20
ENDBRANCH   1  18
BRANCH   1  25
ATOM     25  C   UNL     1      -1.307  13.444  22.080  0.00  0.00    +0.000 C 
BRANCH  25  26
ATOM     26  C   UNL     1      -2.761  13.292  22.469  0.00  0.00    +0.000 A 
ATOM     27  C   UNL     1      -3.113  12.735  23.706  0.00  0.00    +0.000 A 
ATOM     28  C   UNL     1      -4.456  12.576  24.056  0.00  0.00    +0.000 A 
ATOM     29  C   UNL     1      -5.461  12.975  23.178  0.00  0.00    +0.000 A 
ATOM     30  C   UNL     1      -5.125  13.554  21.956  0.00  0.00    +0.000 A 
ATOM     31  C   UNL     1      -3.783  13.718  21.606  0.00  0.00    +0.000 A 
ENDBRANCH  25  26
ENDBRANCH   1  25
TORSDOF 5
ENDMDL
MODEL 8
REMARK VINA RESULT:      -7.3      4.069      8.778
REMARK  Name = 
REMARK  5 active torsions:
REMARK  status: ('A' for Active; 'I' for Inactive)
REMARK    1  A    between atoms: C_2  and  C_26
REMARK    2  A    between atoms: N_3  and  C_4
REMARK    3  A    between atoms: C_4  and  C_5
REMARK    4  A    between atoms: C_4  and  C_12
REMARK    5  A    between atoms: C_5  and  C_6
REMARK                            x       y       z     vdW  Elec       q    Type
REMARK                         _______ _______ _______ _____ _____    ______ ____
ROOT
ATOM      1  C   UNL     1      -0.268  10.400  19.605  0.00  0.00    +0.000 C 
ENDROOT
BRANCH   1   2
ATOM      2  C   UNL     1       0.406   9.235  20.367  0.00  0.00    +0.000 C 
ATOM      3  O   UNL     1      -0.084   8.829  21.427  0.00  0.00    +0.000 OA
ATOM      4  N   UNL     1       1.522   8.623  19.806  0.00  0.00    +0.000 N 
ATOM      5  C   UNL     1       1.997   7.345  20.358  0.00  0.00    +0.000 C 
ATOM      6  C   UNL     1       2.078   6.237  19.279  0.00  0.00    +0.000 C 
ATOM      7  N   UNL     1       2.796   6.715  18.092  0.00  0.00    +0.000 N 
ATOM      8  C   UNL     1       3.830   6.018  17.508  0.00  0.00    +0.000 A 
ATOM      9  C   UNL     1       3.886   4.624  17.538  0.00  0.00    +0.000 A 
ATOM     10  C   UNL     1       4.960   3.947  16.957  0.00  0.00    +0.000 A 
ATOM     11  C   UNL     1       5.973   4.675  16.359  0.00  0.00    +0.000 A 
ATOM     12  C   UNL     1       5.852   6.050  16.354  0.00  0.00    +0.000 A 
ATOM     13  N   UNL     1       4.809   6.722  16.896  0.00  0.00    +0.000 NA
ATOM     14  C   UNL     1       2.371   8.003  17.539  0.00  0.00    +0.000 C 
ATOM     15  C   UNL     1       2.307   9.078  18.644  0.00  0.00    +0.000 C 
ENDBRANCH   1   2
BRANCH   1  18
ATOM     16  O   UNL     1      -0.500  12.155  21.727  0.00  0.00    +0.000 OA
ATOM     17  C   UNL     1       0.334  12.440  20.865  0.00  0.00    +0.000 C 
ATOM     18  N   UNL     1       0.515  11.631  19.768  0.00  0.00    +0.000 N 
ATOM     19  H   UNL     1       1.197  11.876  19.057  0.00  0.00    +0.000 HD
BRANCH  17  20
ATOM     20  C   UNL     1       1.161  13.623  20.962  0.00  0.00    +0.000 A 
ATOM     21  C   UNL     1       1.880  14.265  19.969  0.00  0.00    +0.000 A 
ATOM     22  C   UNL     1       2.540  15.357  20.574  0.00  0.00    +0.000 A 
ATOM     23  C   UNL     1       2.184  15.322  21.902  0.00  0.00    +0.000 A 
ATOM     24  O   UNL     1       1.342  14.279  22.151  0.00  0.00    +0.000 OA
ENDBRANCH  17  20
ENDBRANCH   1  18
BRANCH   1  25
ATOM     25  C   UNL     1      -0.602  10.104  18.131  0.00  0.00    +0.000 C 
BRANCH  25  26
ATOM     26  C   UNL     1      -1.969  10.545  17.654  0.00  0.00    +0.000 A 
ATOM     27  C   UNL     1      -2.825  11.254  18.508  0.00  0.00    +0.000 A 
ATOM     28  C   UNL     1      -4.095  11.644  18.075  0.00  0.00    +0.000 A 
ATOM     29  C   UNL     1      -4.521  11.335  16.785  0.00  0.00    +0.000 A 
ATOM     30  C   UNL     1      -3.670  10.653  15.918  0.00  0.00    +0.000 A 
ATOM     31  C   UNL     1      -2.398  10.266  16.347  0.00  0.00    +0.000 A 
ENDBRANCH  25  26
ENDBRANCH   1  25
TORSDOF 5
ENDMDL
MODEL 9
REMARK VINA RESULT:      -7.2      5.207      8.954
REMARK  Name = 
REMARK  5 active torsions:
REMARK  status: ('A' for Active; 'I' for Inactive)
REMARK    1  A    between atoms: C_2  and  C_26
REMARK    2  A    between atoms: N_3  and  C_4
REMARK    3  A    between atoms: C_4  and  C_5
REMARK    4  A    between atoms: C_4  and  C_12
REMARK    5  A    between atoms: C_5  and  C_6
REMARK                            x       y       z     vdW  Elec       q    Type
REMARK                         _______ _______ _______ _____ _____    ______ ____
ROOT
ATOM      1  C   UNL     1       1.051  10.846  18.679  0.00  0.00    +0.000 C 
ENDROOT
BRANCH   1   2
ATOM      2  C   UNL     1       1.735  12.186  19.039  0.00  0.00    +0.000 C 
ATOM      3  O   UNL     1       2.548  12.691  18.257  0.00  0.00    +0.000 OA
ATOM      4  N   UNL     1       1.370  12.830  20.217  0.00  0.00    +0.000 N 
ATOM      5  C   UNL     1       1.784  14.225  20.434  0.00  0.00    +0.000 C 
ATOM      6  C   UNL     1       0.579  15.154  20.719  0.00  0.00    +0.000 C 
ATOM      7  N   UNL     1      -0.286  14.585  21.759  0.00  0.00    +0.000 N 
ATOM      8  C   UNL     1      -0.708  15.299  22.858  0.00  0.00    +0.000 A 
ATOM      9  C   UNL     1      -0.917  16.678  22.803  0.00  0.00    +0.000 A 
ATOM     10  C   UNL     1      -1.322  17.378  23.941  0.00  0.00    +0.000 A 
ATOM     11  C   UNL     1      -1.507  16.690  25.127  0.00  0.00    +0.000 A 
ATOM     12  C   UNL     1      -1.295  15.326  25.111  0.00  0.00    +0.000 A 
ATOM     13  N   UNL     1      -0.920  14.628  24.013  0.00  0.00    +0.000 NA
ATOM     14  C   UNL     1      -0.686  13.187  21.591  0.00  0.00    +0.000 C 
ATOM     15  C   UNL     1       0.542  12.295  21.314  0.00  0.00    +0.000 C 
ENDBRANCH   1   2
BRANCH   1  18
ATOM     16  O   UNL     1      -1.457   9.903  19.356  0.00  0.00    +0.000 OA
ATOM     17  C   UNL     1      -1.384  10.588  18.333  0.00  0.00    +0.000 C 
ATOM     18  N   UNL     1      -0.176  11.095  17.913  0.00  0.00    +0.000 N 
ATOM     19  H   UNL     1      -0.121  11.650  17.065  0.00  0.00    +0.000 HD
BRANCH  17  20
ATOM     20  C   UNL     1      -2.549  10.898  17.534  0.00  0.00    +0.000 A 
ATOM     21  C   UNL     1      -3.729  11.510  17.919  0.00  0.00    +0.000 A 
ATOM     22  C   UNL     1      -4.560  11.563  16.780  0.00  0.00    +0.000 A 
ATOM     23  C   UNL     1      -3.841  10.982  15.762  0.00  0.00    +0.000 A 
ATOM     24  O   UNL     1      -2.616  10.580  16.203  0.00  0.00    +0.000 OA
ENDBRANCH  17  20
ENDBRANCH   1  18
BRANCH   1  25
ATOM     25  C   UNL     1       1.969   9.810  18.004  0.00  0.00    +0.000 C 
BRANCH  25  26
ATOM     26  C   UNL     1       2.070   8.463  18.686  0.00  0.00    +0.000 A 
ATOM     27  C   UNL     1       2.608   7.361  18.008  0.00  0.00    +0.000 A 
ATOM     28  C   UNL     1       2.683   6.112  18.631  0.00  0.00    +0.000 A 
ATOM     29  C   UNL     1       2.227   5.953  19.937  0.00  0.00    +0.000 A 
ATOM     30  C   UNL     1       1.714   7.046  20.631  0.00  0.00    +0.000 A 
ATOM     31  C   UNL     1       1.642   8.296  20.012  0.00  0.00    +0.000 A 
ENDBRANCH  25  26
ENDBRANCH   1  25
TORSDOF 5
ENDMDL
