MODEL 1
REMARK VINA RESULT:      -6.5      0.000      0.000
REMARK  Name = 
REMARK  6 active torsions:
REMARK  status: ('A' for Active; 'I' for Inactive)
REMARK    1  A    between atoms: O5*_1  and  C5*_2
REMARK    2  A    between atoms: C5*_2  and  C4*_3
REMARK    3  A    between atoms: C1*_5  and  N_6
REMARK    4  A    between atoms: N_11  and  C_12
REMARK    5  A    between atoms: C2*_28  and  O2*_29
REMARK    6  A    between atoms: C3*_30  and  O3*_31
REMARK                            x       y       z     vdW  Elec       q    Type
REMARK                         _______ _______ _______ _____ _____    ______ ____
ROOT
ATOM      1  N   UNL     1       7.162  12.922  24.019  0.00  0.00    +0.000 N 
ATOM      2  C   UNL     1       8.097  12.057  23.521  0.00  0.00    +0.000 A 
ATOM      3  N   UNL     1       8.699  12.541  22.451  0.00  0.00    +0.000 NA
ATOM      4  C   UNL     1       8.140  13.795  22.256  0.00  0.00    +0.000 A 
ATOM      5  C   UNL     1       8.317  14.791  21.251  0.00  0.00    +0.000 A 
ATOM      6  N   UNL     1       9.136  14.601  20.144  0.00  0.00    +0.000 N 
ATOM      7  N   UNL     1       7.610  15.941  21.381  0.00  0.00    +0.000 NA
ATOM      8  C   UNL     1       6.751  16.061  22.415  0.00  0.00    +0.000 A 
ATOM      9  N   UNL     1       6.488  15.182  23.404  0.00  0.00    +0.000 NA
ATOM     10  C   UNL     1       7.214  14.063  23.254  0.00  0.00    +0.000 A 
ATOM     11  H   UNL     1       9.646  13.728  20.183  0.00  0.00    +0.000 HD
ENDROOT
BRANCH   6  12
ATOM     12  C   UNL     1       9.731  15.666  19.361  0.00  0.00    +0.000 C 
ATOM     13  C   UNL     1      11.288  15.564  19.362  0.00  0.00    +0.000 C 
ATOM     14  C   UNL     1      11.911  14.244  18.861  0.00  0.00    +0.000 C 
ATOM     15  C   UNL     1      11.981  13.143  19.921  0.00  0.00    +0.000 C 
ATOM     16  C   UNL     1      11.950  11.708  19.367  0.00  0.00    +0.000 C 
ATOM     17  C   UNL     1      10.872  11.372  18.291  0.00  0.00    +0.000 C 
ATOM     18  C   UNL     1       9.425  11.399  18.816  0.00  0.00    +0.000 C 
ATOM     19  C   UNL     1       8.217  11.675  17.899  0.00  0.00    +0.000 C 
ATOM     20  C   UNL     1       7.904  12.969  17.113  0.00  0.00    +0.000 C 
ATOM     21  C   UNL     1       7.163  14.111  17.855  0.00  0.00    +0.000 C 
ATOM     22  C   UNL     1       7.734  15.529  17.662  0.00  0.00    +0.000 C 
ATOM     23  C   UNL     1       9.236  15.671  17.893  0.00  0.00    +0.000 C 
ENDBRANCH   6  12
BRANCH   1  26
ATOM     24  C4* UNL     1       6.146  12.561  27.428  0.00  0.00    +0.000 C 
ATOM     25  O4* UNL     1       6.533  13.386  26.292  0.00  0.00    +0.000 OA
ATOM     26  C1* UNL     1       6.194  12.673  25.073  0.00  0.00    +0.000 C 
ATOM     27  C2* UNL     1       6.095  11.197  25.459  0.00  0.00    +0.000 C 
ATOM     28  C3* UNL     1       5.518  11.285  26.863  0.00  0.00    +0.000 C 
BRANCH  27  29
ATOM     29  O2* UNL     1       5.255  10.425  24.604  0.00  0.00    +0.000 OA
ATOM     30  H2* UNL     1       5.210   9.529  24.991  0.00  0.00    +0.000 HD
ENDBRANCH  27  29
BRANCH  28  31
ATOM     31  O3* UNL     1       4.085  11.405  26.765  0.00  0.00    +0.000 OA
ATOM     32  H3* UNL     1       3.682  10.521  26.789  0.00  0.00    +0.000 HD
ENDBRANCH  28  31
BRANCH  24  33
ATOM     33  C5* UNL     1       7.353  12.288  28.332  0.00  0.00    +0.000 C 
BRANCH  33  34
ATOM     34  O5* UNL     1       7.459  10.904  28.642  0.00  0.00    +0.000 OA
ATOM     35  H5* UNL     1       8.405  10.713  28.780  0.00  0.00    +0.000 HD
ENDBRANCH  33  34
ENDBRANCH  24  33
ENDBRANCH   1  26
TORSDOF 6
ENDMDL
MODEL 2
REMARK VINA RESULT:      -6.3     10.791     13.247
REMARK  Name = 
REMARK  6 active torsions:
REMARK  status: ('A' for Active; 'I' for Inactive)
REMARK    1  A    between atoms: O5*_1  and  C5*_2
REMARK    2  A    between atoms: C5*_2  and  C4*_3
REMARK    3  A    between atoms: C1*_5  and  N_6
REMARK    4  A    between atoms: N_11  and  C_12
REMARK    5  A    between atoms: C2*_28  and  O2*_29
REMARK    6  A    between atoms: C3*_30  and  O3*_31
REMARK                            x       y       z     vdW  Elec       q    Type
REMARK                         _______ _______ _______ _____ _____    ______ ____
ROOT
ATOM      1  N   UNL     1      -1.175  11.877  21.046  0.00  0.00    +0.000 N 
ATOM      2  C   UNL     1      -1.970  11.915  19.934  0.00  0.00    +0.000 A 
ATOM      3  N   UNL     1      -3.039  12.666  20.115  0.00  0.00    +0.000 NA
ATOM      4  C   UNL     1      -2.922  13.159  21.407  0.00  0.00    +0.000 A 
ATOM      5  C   UNL     1      -3.767  13.974  22.215  0.00  0.00    +0.000 A 
ATOM      6  N   UNL     1      -5.022  14.400  21.795  0.00  0.00    +0.000 N 
ATOM      7  N   UNL     1      -3.325  14.293  23.456  0.00  0.00    +0.000 NA
ATOM      8  C   UNL     1      -2.145  13.789  23.874  0.00  0.00    +0.000 A 
ATOM      9  N   UNL     1      -1.280  12.995  23.209  0.00  0.00    +0.000 NA
ATOM     10  C   UNL     1      -1.740  12.711  21.980  0.00  0.00    +0.000 A 
ATOM     11  H   UNL     1      -5.220  14.141  20.837  0.00  0.00    +0.000 HD
ENDROOT
BRANCH   6  12
ATOM     12  C   UNL     1      -5.718  15.563  22.309  0.00  0.00    +0.000 C 
ATOM     13  C   UNL     1      -6.107  16.542  21.159  0.00  0.00    +0.000 C 
ATOM     14  C   UNL     1      -6.973  15.979  20.011  0.00  0.00    +0.000 C 
ATOM     15  C   UNL     1      -6.177  15.249  18.928  0.00  0.00    +0.000 C 
ATOM     16  C   UNL     1      -6.958  14.157  18.178  0.00  0.00    +0.000 C 
ATOM     17  C   UNL     1      -7.789  13.147  19.028  0.00  0.00    +0.000 C 
ATOM     18  C   UNL     1      -6.938  12.202  19.897  0.00  0.00    +0.000 C 
ATOM     19  C   UNL     1      -7.475  11.561  21.191  0.00  0.00    +0.000 C 
ATOM     20  C   UNL     1      -7.916  12.276  22.488  0.00  0.00    +0.000 C 
ATOM     21  C   UNL     1      -6.826  12.636  23.529  0.00  0.00    +0.000 C 
ATOM     22  C   UNL     1      -6.889  14.059  24.116  0.00  0.00    +0.000 C 
ATOM     23  C   UNL     1      -7.000  15.187  23.095  0.00  0.00    +0.000 C 
ENDBRANCH   6  12
BRANCH   1  26
ATOM     24  C4* UNL     1       1.484   9.715  20.025  0.00  0.00    +0.000 C 
ATOM     25  O4* UNL     1       0.890  11.039  20.143  0.00  0.00    +0.000 OA
ATOM     26  C1* UNL     1      -0.015  11.034  21.280  0.00  0.00    +0.000 C 
ATOM     27  C2* UNL     1      -0.379   9.569  21.525  0.00  0.00    +0.000 C 
ATOM     28  C3* UNL     1       0.921   8.867  21.167  0.00  0.00    +0.000 C 
BRANCH  27  29
ATOM     29  O2* UNL     1      -0.769   9.282  22.866  0.00  0.00    +0.000 OA
ATOM     30  H2* UNL     1      -0.604  10.093  23.385  0.00  0.00    +0.000 HD
ENDBRANCH  27  29
BRANCH  28  31
ATOM     31  O3* UNL     1       1.790   8.894  22.317  0.00  0.00    +0.000 OA
ATOM     32  H3* UNL     1       2.333   8.088  22.333  0.00  0.00    +0.000 HD
ENDBRANCH  28  31
BRANCH  24  33
ATOM     33  C5* UNL     1       1.203   9.120  18.640  0.00  0.00    +0.000 C 
BRANCH  33  34
ATOM     34  O5* UNL     1       0.505  10.046  17.816  0.00  0.00    +0.000 OA
ATOM     35  H5* UNL     1       0.267  10.805  18.377  0.00  0.00    +0.000 HD
ENDBRANCH  33  34
ENDBRANCH  24  33
ENDBRANCH   1  26
TORSDOF 6
ENDMDL
MODEL 3
REMARK VINA RESULT:      -6.3      6.683      9.602
REMARK  Name = 
REMARK  6 active torsions:
REMARK  status: ('A' for Active; 'I' for Inactive)
REMARK    1  A    between atoms: O5*_1  and  C5*_2
REMARK    2  A    between atoms: C5*_2  and  C4*_3
REMARK    3  A    between atoms: C1*_5  and  N_6
REMARK    4  A    between atoms: N_11  and  C_12
REMARK    5  A    between atoms: C2*_28  and  O2*_29
REMARK    6  A    between atoms: C3*_30  and  O3*_31
REMARK                            x       y       z     vdW  Elec       q    Type
REMARK                         _______ _______ _______ _____ _____    ______ ____
ROOT
ATOM      1  N   UNL     1       3.587  14.488  19.170  0.00  0.00    +0.000 N 
ATOM      2  C   UNL     1       3.151  13.363  18.525  0.00  0.00    +0.000 A 
ATOM      3  N   UNL     1       2.155  12.780  19.165  0.00  0.00    +0.000 NA
ATOM      4  C   UNL     1       1.919  13.579  20.274  0.00  0.00    +0.000 A 
ATOM      5  C   UNL     1       1.024  13.467  21.378  0.00  0.00    +0.000 A 
ATOM      6  N   UNL     1       0.190  12.369  21.559  0.00  0.00    +0.000 N 
ATOM      7  N   UNL     1       1.039  14.464  22.297  0.00  0.00    +0.000 NA
ATOM      8  C   UNL     1       1.923  15.472  22.147  0.00  0.00    +0.000 A 
ATOM      9  N   UNL     1       2.826  15.667  21.163  0.00  0.00    +0.000 NA
ATOM     10  C   UNL     1       2.774  14.672  20.263  0.00  0.00    +0.000 A 
ATOM     11  H   UNL     1       0.233  11.718  20.786  0.00  0.00    +0.000 HD
ENDROOT
BRANCH   6  12
ATOM     12  C   UNL     1      -1.034  12.376  22.335  0.00  0.00    +0.000 C 
ATOM     13  C   UNL     1      -2.216  12.980  21.517  0.00  0.00    +0.000 C 
ATOM     14  C   UNL     1      -2.553  12.318  20.164  0.00  0.00    +0.000 C 
ATOM     15  C   UNL     1      -1.688  12.801  18.998  0.00  0.00    +0.000 C 
ATOM     16  C   UNL     1      -1.505  11.780  17.862  0.00  0.00    +0.000 C 
ATOM     17  C   UNL     1      -1.135  10.318  18.256  0.00  0.00    +0.000 C 
ATOM     18  C   UNL     1       0.268  10.163  18.869  0.00  0.00    +0.000 C 
ATOM     19  C   UNL     1       0.630   9.013  19.829  0.00  0.00    +0.000 C 
ATOM     20  C   UNL     1       0.041   8.731  21.230  0.00  0.00    +0.000 C 
ATOM     21  C   UNL     1       0.655   9.475  22.443  0.00  0.00    +0.000 C 
ATOM     22  C   UNL     1      -0.344  10.095  23.437  0.00  0.00    +0.000 C 
ATOM     23  C   UNL     1      -1.438  10.960  22.818  0.00  0.00    +0.000 C 
ENDBRANCH   6  12
BRANCH   1  26
ATOM     24  C4* UNL     1       6.829  15.031  17.765  0.00  0.00    +0.000 C 
ATOM     25  O4* UNL     1       5.390  14.864  17.625  0.00  0.00    +0.000 OA
ATOM     26  C1* UNL     1       4.758  15.291  18.862  0.00  0.00    +0.000 C 
ATOM     27  C2* UNL     1       5.839  15.211  19.940  0.00  0.00    +0.000 C 
ATOM     28  C3* UNL     1       7.080  15.612  19.159  0.00  0.00    +0.000 C 
BRANCH  27  29
ATOM     29  O2* UNL     1       5.623  16.081  21.048  0.00  0.00    +0.000 OA
ATOM     30  H2* UNL     1       5.806  16.987  20.731  0.00  0.00    +0.000 HD
ENDBRANCH  27  29
BRANCH  28  31
ATOM     31  O3* UNL     1       7.155  17.051  19.121  0.00  0.00    +0.000 OA
ATOM     32  H3* UNL     1       7.476  17.382  19.977  0.00  0.00    +0.000 HD
ENDBRANCH  28  31
BRANCH  24  33
ATOM     33  C5* UNL     1       7.553  13.700  17.530  0.00  0.00    +0.000 C 
BRANCH  33  34
ATOM     34  O5* UNL     1       8.616  13.523  18.457  0.00  0.00    +0.000 OA
ATOM     35  H5* UNL     1       8.915  12.599  18.376  0.00  0.00    +0.000 HD
ENDBRANCH  33  34
ENDBRANCH  24  33
ENDBRANCH   1  26
TORSDOF 6
ENDMDL
MODEL 4
REMARK VINA RESULT:      -6.0     11.204     13.633
REMARK  Name = 
REMARK  6 active torsions:
REMARK  status: ('A' for Active; 'I' for Inactive)
REMARK    1  A    between atoms: O5*_1  and  C5*_2
REMARK    2  A    between atoms: C5*_2  and  C4*_3
REMARK    3  A    between atoms: C1*_5  and  N_6
REMARK    4  A    between atoms: N_11  and  C_12
REMARK    5  A    between atoms: C2*_28  and  O2*_29
REMARK    6  A    between atoms: C3*_30  and  O3*_31
REMARK                            x       y       z     vdW  Elec       q    Type
REMARK                         _______ _______ _______ _____ _____    ______ ____
ROOT
ATOM      1  N   UNL     1      -1.850  11.693  19.408  0.00  0.00    +0.000 N 
ATOM      2  C   UNL     1      -1.796  12.610  20.421  0.00  0.00    +0.000 A 
ATOM      3  N   UNL     1      -2.954  13.216  20.602  0.00  0.00    +0.000 NA
ATOM      4  C   UNL     1      -3.810  12.650  19.670  0.00  0.00    +0.000 A 
ATOM      5  C   UNL     1      -5.168  12.905  19.319  0.00  0.00    +0.000 A 
ATOM      6  N   UNL     1      -5.911  13.932  19.892  0.00  0.00    +0.000 N 
ATOM      7  N   UNL     1      -5.719  12.130  18.352  0.00  0.00    +0.000 NA
ATOM      8  C   UNL     1      -4.948  11.202  17.747  0.00  0.00    +0.000 A 
ATOM      9  N   UNL     1      -3.655  10.892  17.979  0.00  0.00    +0.000 NA
ATOM     10  C   UNL     1      -3.146  11.666  18.951  0.00  0.00    +0.000 A 
ATOM     11  H   UNL     1      -5.410  14.407  20.631  0.00  0.00    +0.000 HD
ENDROOT
BRANCH   6  12
ATOM     12  C   UNL     1      -7.358  13.970  19.958  0.00  0.00    +0.000 C 
ATOM     13  C   UNL     1      -7.880  13.297  21.264  0.00  0.00    +0.000 C 
ATOM     14  C   UNL     1      -7.360  13.854  22.607  0.00  0.00    +0.000 C 
ATOM     15  C   UNL     1      -6.001  13.295  23.031  0.00  0.00    +0.000 C 
ATOM     16  C   UNL     1      -5.166  14.230  23.922  0.00  0.00    +0.000 C 
ATOM     17  C   UNL     1      -5.037  15.722  23.484  0.00  0.00    +0.000 C 
ATOM     18  C   UNL     1      -4.232  15.933  22.189  0.00  0.00    +0.000 C 
ATOM     19  C   UNL     1      -4.444  17.154  21.273  0.00  0.00    +0.000 C 
ATOM     20  C   UNL     1      -5.719  17.534  20.484  0.00  0.00    +0.000 C 
ATOM     21  C   UNL     1      -5.935  16.887  19.093  0.00  0.00    +0.000 C 
ATOM     22  C   UNL     1      -7.344  16.333  18.813  0.00  0.00    +0.000 C 
ATOM     23  C   UNL     1      -7.917  15.414  19.888  0.00  0.00    +0.000 C 
ENDBRANCH   6  12
BRANCH   1  26
ATOM     24  C4* UNL     1       0.836   9.334  19.459  0.00  0.00    +0.000 C 
ATOM     25  O4* UNL     1      -0.585   9.649  19.419  0.00  0.00    +0.000 OA
ATOM     26  C1* UNL     1      -0.746  10.960  18.814  0.00  0.00    +0.000 C 
ATOM     27  C2* UNL     1       0.599  11.669  18.975  0.00  0.00    +0.000 C 
ATOM     28  C3* UNL     1       1.575  10.513  18.822  0.00  0.00    +0.000 C 
BRANCH  27  29
ATOM     29  O2* UNL     1       0.844  12.682  18.003  0.00  0.00    +0.000 OA
ATOM     30  H2* UNL     1       0.845  13.534  18.482  0.00  0.00    +0.000 HD
ENDBRANCH  27  29
BRANCH  28  31
ATOM     31  O3* UNL     1       1.806  10.288  17.417  0.00  0.00    +0.000 OA
ATOM     32  H3* UNL     1       1.212  10.853  16.896  0.00  0.00    +0.000 HD
ENDBRANCH  28  31
BRANCH  24  33
ATOM     33  C5* UNL     1       1.285   9.048  20.897  0.00  0.00    +0.000 C 
BRANCH  33  34
ATOM     34  O5* UNL     1       1.825   7.738  21.015  0.00  0.00    +0.000 OA
ATOM     35  H5* UNL     1       1.189   7.213  21.534  0.00  0.00    +0.000 HD
ENDBRANCH  33  34
ENDBRANCH  24  33
ENDBRANCH   1  26
TORSDOF 6
ENDMDL
MODEL 5
REMARK VINA RESULT:      -6.0     10.292     12.977
REMARK  Name = 
REMARK  6 active torsions:
REMARK  status: ('A' for Active; 'I' for Inactive)
REMARK    1  A    between atoms: O5*_1  and  C5*_2
REMARK    2  A    between atoms: C5*_2  and  C4*_3
REMARK    3  A    between atoms: C1*_5  and  N_6
REMARK    4  A    between atoms: N_11  and  C_12
REMARK    5  A    between atoms: C2*_28  and  O2*_29
REMARK    6  A    between atoms: C3*_30  and  O3*_31
REMARK                            x       y       z     vdW  Elec       q    Type
REMARK                         _______ _______ _______ _____ _____    ______ ____
ROOT
ATOM      1  N   UNL     1      -1.350  11.688  19.506  0.00  0.00    +0.000 N 
ATOM      2  C   UNL     1      -2.308  12.458  18.905  0.00  0.00    +0.000 A 
ATOM      3  N   UNL     1      -3.165  12.952  19.779  0.00  0.00    +0.000 NA
ATOM      4  C   UNL     1      -2.729  12.495  21.014  0.00  0.00    +0.000 A 
ATOM      5  C   UNL     1      -3.247  12.626  22.335  0.00  0.00    +0.000 A 
ATOM      6  N   UNL     1      -4.452  13.264  22.608  0.00  0.00    +0.000 N 
ATOM      7  N   UNL     1      -2.539  12.058  23.342  0.00  0.00    +0.000 NA
ATOM      8  C   UNL     1      -1.421  11.366  23.039  0.00  0.00    +0.000 A 
ATOM      9  N   UNL     1      -0.855  11.157  21.832  0.00  0.00    +0.000 NA
ATOM     10  C   UNL     1      -1.572  11.744  20.860  0.00  0.00    +0.000 A 
ATOM     11  H   UNL     1      -4.862  13.687  21.786  0.00  0.00    +0.000 HD
ENDROOT
BRANCH   6  12
ATOM     12  C   UNL     1      -4.811  13.846  23.887  0.00  0.00    +0.000 C 
ATOM     13  C   UNL     1      -4.258  15.298  24.020  0.00  0.00    +0.000 C 
ATOM     14  C   UNL     1      -4.673  16.317  22.937  0.00  0.00    +0.000 C 
ATOM     15  C   UNL     1      -3.821  16.262  21.667  0.00  0.00    +0.000 C 
ATOM     16  C   UNL     1      -4.539  16.720  20.386  0.00  0.00    +0.000 C 
ATOM     17  C   UNL     1      -5.968  16.157  20.117  0.00  0.00    +0.000 C 
ATOM     18  C   UNL     1      -6.008  14.647  19.821  0.00  0.00    +0.000 C 
ATOM     19  C   UNL     1      -7.254  13.783  20.094  0.00  0.00    +0.000 C 
ATOM     20  C   UNL     1      -7.916  13.482  21.458  0.00  0.00    +0.000 C 
ATOM     21  C   UNL     1      -7.347  12.314  22.303  0.00  0.00    +0.000 C 
ATOM     22  C   UNL     1      -7.123  12.602  23.799  0.00  0.00    +0.000 C 
ATOM     23  C   UNL     1      -6.344  13.876  24.114  0.00  0.00    +0.000 C 
ENDBRANCH   6  12
BRANCH   1  26
ATOM     24  C4* UNL     1       1.075   9.062  19.427  0.00  0.00    +0.000 C 
ATOM     25  O4* UNL     1      -0.306   9.524  19.444  0.00  0.00    +0.000 OA
ATOM     26  C1* UNL     1      -0.349  10.854  18.862  0.00  0.00    +0.000 C 
ATOM     27  C2* UNL     1       1.067  11.417  18.984  0.00  0.00    +0.000 C 
ATOM     28  C3* UNL     1       1.911  10.168  18.780  0.00  0.00    +0.000 C 
BRANCH  27  29
ATOM     29  O2* UNL     1       1.383  12.416  18.017  0.00  0.00    +0.000 OA
ATOM     30  H2* UNL     1       2.356  12.421  17.929  0.00  0.00    +0.000 HD
ENDBRANCH  27  29
BRANCH  28  31
ATOM     31  O3* UNL     1       2.068   9.945  17.364  0.00  0.00    +0.000 OA
ATOM     32  H3* UNL     1       2.065  10.798  16.899  0.00  0.00    +0.000 HD
ENDBRANCH  28  31
BRANCH  24  33
ATOM     33  C5* UNL     1       1.542   8.707  20.844  0.00  0.00    +0.000 C 
BRANCH  33  34
ATOM     34  O5* UNL     1       1.893   7.332  20.939  0.00  0.00    +0.000 OA
ATOM     35  H5* UNL     1       2.474   7.133  20.183  0.00  0.00    +0.000 HD
ENDBRANCH  33  34
ENDBRANCH  24  33
ENDBRANCH   1  26
TORSDOF 6
ENDMDL
MODEL 6
REMARK VINA RESULT:      -5.9     10.943     13.542
REMARK  Name = 
REMARK  6 active torsions:
REMARK  status: ('A' for Active; 'I' for Inactive)
REMARK    1  A    between atoms: O5*_1  and  C5*_2
REMARK    2  A    between atoms: C5*_2  and  C4*_3
REMARK    3  A    between atoms: C1*_5  and  N_6
REMARK    4  A    between atoms: N_11  and  C_12
REMARK    5  A    between atoms: C2*_28  and  O2*_29
REMARK    6  A    between atoms: C3*_30  and  O3*_31
REMARK                            x       y       z     vdW  Elec       q    Type
REMARK                         _______ _______ _______ _____ _____    ______ ____
ROOT
ATOM      1  N   UNL     1      -1.243  14.599  21.625  0.00  0.00    +0.000 N 
ATOM      2  C   UNL     1      -2.068  15.362  20.844  0.00  0.00    +0.000 A 
ATOM      3  N   UNL     1      -3.332  15.005  20.966  0.00  0.00    +0.000 NA
ATOM      4  C   UNL     1      -3.331  13.970  21.888  0.00  0.00    +0.000 A 
ATOM      5  C   UNL     1      -4.359  13.127  22.403  0.00  0.00    +0.000 A 
ATOM      6  N   UNL     1      -5.674  13.188  21.954  0.00  0.00    +0.000 N 
ATOM      7  N   UNL     1      -4.004  12.208  23.335  0.00  0.00    +0.000 NA
ATOM      8  C   UNL     1      -2.705  12.107  23.685  0.00  0.00    +0.000 A 
ATOM      9  N   UNL     1      -1.652  12.829  23.249  0.00  0.00    +0.000 NA
ATOM     10  C   UNL     1      -2.040  13.739  22.341  0.00  0.00    +0.000 A 
ATOM     11  H   UNL     1      -5.825  13.943  21.298  0.00  0.00    +0.000 HD
ENDROOT
BRANCH   6  12
ATOM     12  C   UNL     1      -6.829  12.742  22.708  0.00  0.00    +0.000 C 
ATOM     13  C   UNL     1      -7.469  13.917  23.508  0.00  0.00    +0.000 C 
ATOM     14  C   UNL     1      -7.915  15.160  22.708  0.00  0.00    +0.000 C 
ATOM     15  C   UNL     1      -6.790  16.156  22.420  0.00  0.00    +0.000 C 
ATOM     16  C   UNL     1      -6.982  17.000  21.149  0.00  0.00    +0.000 C 
ATOM     17  C   UNL     1      -7.408  16.258  19.846  0.00  0.00    +0.000 C 
ATOM     18  C   UNL     1      -6.336  15.310  19.278  0.00  0.00    +0.000 C 
ATOM     19  C   UNL     1      -6.688  14.091  18.404  0.00  0.00    +0.000 C 
ATOM     20  C   UNL     1      -7.505  12.842  18.809  0.00  0.00    +0.000 C 
ATOM     21  C   UNL     1      -6.762  11.683  19.521  0.00  0.00    +0.000 C 
ATOM     22  C   UNL     1      -7.455  11.093  20.763  0.00  0.00    +0.000 C 
ATOM     23  C   UNL     1      -7.917  12.107  21.804  0.00  0.00    +0.000 C 
ENDBRANCH   6  12
BRANCH   1  26
ATOM     24  C4* UNL     1       1.984  15.517  20.388  0.00  0.00    +0.000 C 
ATOM     25  O4* UNL     1       0.760  15.827  21.114  0.00  0.00    +0.000 OA
ATOM     26  C1* UNL     1       0.210  14.585  21.631  0.00  0.00    +0.000 C 
ATOM     27  C2* UNL     1       0.801  13.468  20.770  0.00  0.00    +0.000 C 
ATOM     28  C3* UNL     1       2.196  14.005  20.489  0.00  0.00    +0.000 C 
BRANCH  27  29
ATOM     29  O2* UNL     1       0.858  12.200  21.419  0.00  0.00    +0.000 OA
ATOM     30  H2* UNL     1       1.579  12.254  22.076  0.00  0.00    +0.000 HD
ENDBRANCH  27  29
BRANCH  28  31
ATOM     31  O3* UNL     1       3.051  13.669  21.599  0.00  0.00    +0.000 OA
ATOM     32  H3* UNL     1       3.646  14.413  21.787  0.00  0.00    +0.000 HD
ENDBRANCH  28  31
BRANCH  24  33
ATOM     33  C5* UNL     1       1.893  16.016  18.941  0.00  0.00    +0.000 C 
BRANCH  33  34
ATOM     34  O5* UNL     1       0.555  16.353  18.598  0.00  0.00    +0.000 OA
ATOM     35  H5* UNL     1      -0.029  15.762  19.108  0.00  0.00    +0.000 HD
ENDBRANCH  33  34
ENDBRANCH  24  33
ENDBRANCH   1  26
TORSDOF 6
ENDMDL
MODEL 7
REMARK VINA RESULT:      -5.9     11.027     13.421
REMARK  Name = 
REMARK  6 active torsions:
REMARK  status: ('A' for Active; 'I' for Inactive)
REMARK    1  A    between atoms: O5*_1  and  C5*_2
REMARK    2  A    between atoms: C5*_2  and  C4*_3
REMARK    3  A    between atoms: C1*_5  and  N_6
REMARK    4  A    between atoms: N_11  and  C_12
REMARK    5  A    between atoms: C2*_28  and  O2*_29
REMARK    6  A    between atoms: C3*_30  and  O3*_31
REMARK                            x       y       z     vdW  Elec       q    Type
REMARK                         _______ _______ _______ _____ _____    ______ ____
ROOT
ATOM      1  N   UNL     1      -1.210  12.138  21.311  0.00  0.00    +0.000 N 
ATOM      2  C   UNL     1      -1.566  12.885  20.221  0.00  0.00    +0.000 A 
ATOM      3  N   UNL     1      -2.761  13.425  20.360  0.00  0.00    +0.000 NA
ATOM      4  C   UNL     1      -3.197  13.024  21.615  0.00  0.00    +0.000 A 
ATOM      5  C   UNL     1      -4.416  13.223  22.328  0.00  0.00    +0.000 A 
ATOM      6  N   UNL     1      -5.509  13.880  21.776  0.00  0.00    +0.000 N 
ATOM      7  N   UNL     1      -4.500  12.698  23.576  0.00  0.00    +0.000 NA
ATOM      8  C   UNL     1      -3.459  11.984  24.052  0.00  0.00    +0.000 A 
ATOM      9  N   UNL     1      -2.277  11.715  23.461  0.00  0.00    +0.000 NA
ATOM     10  C   UNL     1      -2.219  12.260  22.235  0.00  0.00    +0.000 A 
ATOM     11  H   UNL     1      -5.309  14.267  20.863  0.00  0.00    +0.000 HD
ENDROOT
BRANCH   6  12
ATOM     12  C   UNL     1      -6.561  14.525  22.538  0.00  0.00    +0.000 C 
ATOM     13  C   UNL     1      -6.860  15.954  21.989  0.00  0.00    +0.000 C 
ATOM     14  C   UNL     1      -7.254  16.073  20.501  0.00  0.00    +0.000 C 
ATOM     15  C   UNL     1      -6.064  16.108  19.540  0.00  0.00    +0.000 C 
ATOM     16  C   UNL     1      -6.357  15.572  18.128  0.00  0.00    +0.000 C 
ATOM     17  C   UNL     1      -7.121  14.218  18.012  0.00  0.00    +0.000 C 
ATOM     18  C   UNL     1      -6.325  12.998  18.511  0.00  0.00    +0.000 C 
ATOM     19  C   UNL     1      -7.009  11.720  19.033  0.00  0.00    +0.000 C 
ATOM     20  C   UNL     1      -7.916  11.573  20.276  0.00  0.00    +0.000 C 
ATOM     21  C   UNL     1      -7.237  11.356  21.652  0.00  0.00    +0.000 C 
ATOM     22  C   UNL     1      -7.771  12.212  22.816  0.00  0.00    +0.000 C 
ATOM     23  C   UNL     1      -7.877  13.708  22.539  0.00  0.00    +0.000 C 
ENDBRANCH   6  12
BRANCH   1  26
ATOM     24  C4* UNL     1       1.418  10.060  20.062  0.00  0.00    +0.000 C 
ATOM     25  O4* UNL     1       0.837  11.373  20.310  0.00  0.00    +0.000 OA
ATOM     26  C1* UNL     1      -0.056  11.268  21.452  0.00  0.00    +0.000 C 
ATOM     27  C2* UNL     1      -0.430   9.790  21.564  0.00  0.00    +0.000 C 
ATOM     28  C3* UNL     1       0.860   9.113  21.127  0.00  0.00    +0.000 C 
BRANCH  27  29
ATOM     29  O2* UNL     1      -0.807   9.381  22.876  0.00  0.00    +0.000 OA
ATOM     30  H2* UNL     1      -0.524   8.452  22.972  0.00  0.00    +0.000 HD
ENDBRANCH  27  29
BRANCH  28  31
ATOM     31  O3* UNL     1       1.742   9.027  22.264  0.00  0.00    +0.000 OA
ATOM     32  H3* UNL     1       2.001   9.921  22.542  0.00  0.00    +0.000 HD
ENDBRANCH  28  31
BRANCH  24  33
ATOM     33  C5* UNL     1       1.117   9.600  18.631  0.00  0.00    +0.000 C 
BRANCH  33  34
ATOM     34  O5* UNL     1       0.139  10.431  18.019  0.00  0.00    +0.000 OA
ATOM     35  H5* UNL     1      -0.192  11.036  18.707  0.00  0.00    +0.000 HD
ENDBRANCH  33  34
ENDBRANCH  24  33
ENDBRANCH   1  26
TORSDOF 6
ENDMDL
MODEL 8
REMARK VINA RESULT:      -5.9      4.441      6.254
REMARK  Name = 
REMARK  6 active torsions:
REMARK  status: ('A' for Active; 'I' for Inactive)
REMARK    1  A    between atoms: O5*_1  and  C5*_2
REMARK    2  A    between atoms: C5*_2  and  C4*_3
REMARK    3  A    between atoms: C1*_5  and  N_6
REMARK    4  A    between atoms: N_11  and  C_12
REMARK    5  A    between atoms: C2*_28  and  O2*_29
REMARK    6  A    between atoms: C3*_30  and  O3*_31
REMARK                            x       y       z     vdW  Elec       q    Type
REMARK                         _______ _______ _______ _____ _____    ______ ____
ROOT
ATOM      1  N   UNL     1       3.073  14.245  20.081  0.00  0.00    +0.000 N 
ATOM      2  C   UNL     1       3.517  14.166  21.372  0.00  0.00    +0.000 A 
ATOM      3  N   UNL     1       4.799  14.461  21.473  0.00  0.00    +0.000 NA
ATOM      4  C   UNL     1       5.205  14.766  20.182  0.00  0.00    +0.000 A 
ATOM      5  C   UNL     1       6.468  15.105  19.616  0.00  0.00    +0.000 A 
ATOM      6  N   UNL     1       7.642  15.123  20.360  0.00  0.00    +0.000 N 
ATOM      7  N   UNL     1       6.505  15.371  18.287  0.00  0.00    +0.000 NA
ATOM      8  C   UNL     1       5.368  15.255  17.570  0.00  0.00    +0.000 A 
ATOM      9  N   UNL     1       4.131  14.921  17.993  0.00  0.00    +0.000 NA
ATOM     10  C   UNL     1       4.126  14.680  19.313  0.00  0.00    +0.000 A 
ATOM     11  H   UNL     1       7.481  14.956  21.345  0.00  0.00    +0.000 HD
ENDROOT
BRANCH   6  12
ATOM     12  C   UNL     1       8.830  15.880  20.016  0.00  0.00    +0.000 C 
ATOM     13  C   UNL     1       9.078  17.035  21.035  0.00  0.00    +0.000 C 
ATOM     14  C   UNL     1       9.212  16.650  22.524  0.00  0.00    +0.000 C 
ATOM     15  C   UNL     1       7.877  16.486  23.251  0.00  0.00    +0.000 C 
ATOM     16  C   UNL     1       7.903  15.514  24.443  0.00  0.00    +0.000 C 
ATOM     17  C   UNL     1       8.591  14.130  24.232  0.00  0.00    +0.000 C 
ATOM     18  C   UNL     1       7.852  13.200  23.252  0.00  0.00    +0.000 C 
ATOM     19  C   UNL     1       8.574  12.094  22.458  0.00  0.00    +0.000 C 
ATOM     20  C   UNL     1       9.677  12.265  21.388  0.00  0.00    +0.000 C 
ATOM     21  C   UNL     1       9.239  12.547  19.928  0.00  0.00    +0.000 C 
ATOM     22  C   UNL     1       9.994  13.673  19.198  0.00  0.00    +0.000 C 
ATOM     23  C   UNL     1      10.100  14.994  19.954  0.00  0.00    +0.000 C 
ENDBRANCH   6  12
BRANCH   1  26
ATOM     24  C4* UNL     1      -0.072  12.554  20.261  0.00  0.00    +0.000 C 
ATOM     25  O4* UNL     1       0.806  13.656  20.625  0.00  0.00    +0.000 OA
ATOM     26  C1* UNL     1       1.780  13.835  19.561  0.00  0.00    +0.000 C 
ATOM     27  C2* UNL     1       1.831  12.506  18.806  0.00  0.00    +0.000 C 
ATOM     28  C3* UNL     1       0.383  12.051  18.889  0.00  0.00    +0.000 C 
BRANCH  27  29
ATOM     29  O2* UNL     1       2.259  12.622  17.451  0.00  0.00    +0.000 OA
ATOM     30  H2* UNL     1       2.272  13.577  17.243  0.00  0.00    +0.000 HD
ENDBRANCH  27  29
BRANCH  28  31
ATOM     31  O3* UNL     1      -0.360  12.682  17.826  0.00  0.00    +0.000 OA
ATOM     32  H3* UNL     1      -1.259  12.883  18.135  0.00  0.00    +0.000 HD
ENDBRANCH  28  31
BRANCH  24  33
ATOM     33  C5* UNL     1      -0.046  11.464  21.339  0.00  0.00    +0.000 C 
BRANCH  33  34
ATOM     34  O5* UNL     1      -0.417  11.989  22.608  0.00  0.00    +0.000 OA
ATOM     35  H5* UNL     1      -0.293  11.276  23.259  0.00  0.00    +0.000 HD
ENDBRANCH  33  34
ENDBRANCH  24  33
ENDBRANCH   1  26
TORSDOF 6
ENDMDL
MODEL 9
REMARK VINA RESULT:      -5.9      8.214     10.421
REMARK  Name = 
REMARK  6 active torsions:
REMARK  status: ('A' for Active; 'I' for Inactive)
REMARK    1  A    between atoms: O5*_1  and  C5*_2
REMARK    2  A    between atoms: C5*_2  and  C4*_3
REMARK    3  A    between atoms: C1*_5  and  N_6
REMARK    4  A    between atoms: N_11  and  C_12
REMARK    5  A    between atoms: C2*_28  and  O2*_29
REMARK    6  A    between atoms: C3*_30  and  O3*_31
REMARK                            x       y       z     vdW  Elec       q    Type
REMARK                         _______ _______ _______ _____ _____    ______ ____
ROOT
ATOM      1  N   UNL     1      -1.370  12.111  18.911  0.00  0.00    +0.000 N 
ATOM      2  C   UNL     1      -0.649  12.848  18.012  0.00  0.00    +0.000 A 
ATOM      3  N   UNL     1       0.215  13.647  18.607  0.00  0.00    +0.000 NA
ATOM      4  C   UNL     1       0.061  13.403  19.964  0.00  0.00    +0.000 A 
ATOM      5  C   UNL     1       0.653  13.977  21.127  0.00  0.00    +0.000 A 
ATOM      6  N   UNL     1       1.542  15.045  21.066  0.00  0.00    +0.000 N 
ATOM      7  N   UNL     1       0.282  13.473  22.330  0.00  0.00    +0.000 NA
ATOM      8  C   UNL     1      -0.653  12.500  22.365  0.00  0.00    +0.000 A 
ATOM      9  N   UNL     1      -1.293  11.903  21.338  0.00  0.00    +0.000 NA
ATOM     10  C   UNL     1      -0.892  12.414  20.163  0.00  0.00    +0.000 A 
ATOM     11  H   UNL     1       1.778  15.300  20.116  0.00  0.00    +0.000 HD
ENDROOT
BRANCH   6  12
ATOM     12  C   UNL     1       2.518  15.370  22.088  0.00  0.00    +0.000 C 
ATOM     13  C   UNL     1       3.934  14.838  21.704  0.00  0.00    +0.000 C 
ATOM     14  C   UNL     1       4.527  15.308  20.358  0.00  0.00    +0.000 C 
ATOM     15  C   UNL     1       4.052  14.501  19.149  0.00  0.00    +0.000 C 
ATOM     16  C   UNL     1       4.049  15.270  17.818  0.00  0.00    +0.000 C 
ATOM     17  C   UNL     1       3.421  16.698  17.809  0.00  0.00    +0.000 C 
ATOM     18  C   UNL     1       1.899  16.721  18.039  0.00  0.00    +0.000 C 
ATOM     19  C   UNL     1       1.171  17.941  18.634  0.00  0.00    +0.000 C 
ATOM     20  C   UNL     1       1.343  18.549  20.045  0.00  0.00    +0.000 C 
ATOM     21  C   UNL     1       0.530  17.930  21.210  0.00  0.00    +0.000 C 
ATOM     22  C   UNL     1       1.306  17.660  22.513  0.00  0.00    +0.000 C 
ATOM     23  C   UNL     1       2.616  16.893  22.351  0.00  0.00    +0.000 C 
ENDBRANCH   6  12
BRANCH   1  26
ATOM     24  C4* UNL     1      -3.345   9.928  16.882  0.00  0.00    +0.000 C 
ATOM     25  O4* UNL     1      -2.181  10.188  17.718  0.00  0.00    +0.000 OA
ATOM     26  C1* UNL     1      -2.514  11.257  18.644  0.00  0.00    +0.000 C 
ATOM     27  C2* UNL     1      -3.690  12.008  18.020  0.00  0.00    +0.000 C 
ATOM     28  C3* UNL     1      -4.451  10.879  17.344  0.00  0.00    +0.000 C 
BRANCH  27  29
ATOM     29  O2* UNL     1      -4.512  12.692  18.963  0.00  0.00    +0.000 OA
ATOM     30  H2* UNL     1      -4.536  13.628  18.686  0.00  0.00    +0.000 HD
ENDBRANCH  27  29
BRANCH  28  31
ATOM     31  O3* UNL     1      -5.307  10.251  18.320  0.00  0.00    +0.000 OA
ATOM     32  H3* UNL     1      -5.798   9.525  17.902  0.00  0.00    +0.000 HD
ENDBRANCH  28  31
BRANCH  24  33
ATOM     33  C5* UNL     1      -2.992  10.092  15.399  0.00  0.00    +0.000 C 
BRANCH  33  34
ATOM     34  O5* UNL     1      -4.162  10.095  14.591  0.00  0.00    +0.000 OA
ATOM     35  H5* UNL     1      -3.899  10.415  13.709  0.00  0.00    +0.000 HD
ENDBRANCH  33  34
ENDBRANCH  24  33
ENDBRANCH   1  26
TORSDOF 6
ENDMDL
