MODEL 1
REMARK VINA RESULT:      -8.5      0.000      0.000
REMARK  Name = 
REMARK  2 active torsions:
REMARK  status: ('A' for Active; 'I' for Inactive)
REMARK    1  A    between atoms: C_2  and  C_12
REMARK    2  A    between atoms: N_3  and  C_4
REMARK                            x       y       z     vdW  Elec       q    Type
REMARK                         _______ _______ _______ _____ _____    ______ ____
ROOT
ATOM      1  C   UNL     1       1.154   8.746  19.808  0.00  0.00    +0.000 C 
ATOM      2  C   UNL     1       1.414   8.480  21.292  0.00  0.00    +0.000 C 
ATOM      3  C   UNL     1       0.152   8.901  22.042  0.00  0.00    +0.000 C 
ATOM      4  C   UNL     1      -0.163  10.385  21.825  0.00  0.00    +0.000 C 
ATOM      5  N   UNL     1      -0.117  10.764  20.400  0.00  0.00    +0.000 N 
ATOM      6  C   UNL     1      -1.291  11.130  19.755  0.00  0.00    +0.000 A 
ATOM      7  C   UNL     1      -2.121  12.238  20.367  0.00  0.00    +0.000 A 
ATOM      8  C   UNL     1      -3.289  12.577  19.809  0.00  0.00    +0.000 A 
ATOM      9  C   UNL     1      -3.708  11.879  18.667  0.00  0.00    +0.000 A 
ATOM     10  N   UNL     1      -4.801  11.944  17.930  0.00  0.00    +0.000 NA
ATOM     11  N   UNL     1      -4.680  11.006  16.926  0.00  0.00    +0.000 NA
ATOM     12  C   UNL     1      -3.516  10.406  17.081  0.00  0.00    +0.000 A 
ATOM     13  N   UNL     1      -2.863  10.915  18.163  0.00  0.00    +0.000 N 
ATOM     14  N   UNL     1      -1.650  10.516  18.656  0.00  0.00    +0.000 NA
ATOM     15  C   UNL     1       1.053  10.262  19.634  0.00  0.00    +0.000 C 
ENDROOT
BRANCH   1  17
ATOM     16  O   UNL     1       2.453   8.497  17.775  0.00  0.00    +0.000 OA
ATOM     17  C   UNL     1       2.125   8.045  18.865  0.00  0.00    +0.000 C 
ATOM     18  N   UNL     1       2.522   6.802  19.341  0.00  0.00    +0.000 N 
ATOM     19  H   UNL     1       2.299   6.564  20.299  0.00  0.00    +0.000 HD
BRANCH  18  20
ATOM     20  C   UNL     1       3.103   5.744  18.500  0.00  0.00    +0.000 C 
ATOM     21  C   UNL     1       4.111   4.903  19.292  0.00  0.00    +0.000 C 
ATOM     22  C   UNL     1       4.820   3.802  18.493  0.00  0.00    +0.000 C 
ATOM     23  C   UNL     1       4.036   2.559  18.050  0.00  0.00    +0.000 C 
ATOM     24  C   UNL     1       2.959   2.046  19.004  0.00  0.00    +0.000 C 
ATOM     25  C   UNL     1       1.534   2.502  18.678  0.00  0.00    +0.000 C 
ATOM     26  C   UNL     1       1.228   3.993  18.840  0.00  0.00    +0.000 C 
ATOM     27  C   UNL     1       1.966   4.921  17.865  0.00  0.00    +0.000 C 
ENDBRANCH  18  20
ENDBRANCH   1  17
TORSDOF 2
ENDMDL
MODEL 2
REMARK VINA RESULT:      -8.1      3.345      8.693
REMARK  Name = 
REMARK  2 active torsions:
REMARK  status: ('A' for Active; 'I' for Inactive)
REMARK    1  A    between atoms: C_2  and  C_12
REMARK    2  A    between atoms: N_3  and  C_4
REMARK                            x       y       z     vdW  Elec       q    Type
REMARK                         _______ _______ _______ _____ _____    ______ ____
ROOT
ATOM      1  C   UNL     1       1.963   6.105  20.133  0.00  0.00    +0.000 C 
ATOM      2  C   UNL     1       1.488   4.828  20.829  0.00  0.00    +0.000 C 
ATOM      3  C   UNL     1       2.517   3.745  20.511  0.00  0.00    +0.000 C 
ATOM      4  C   UNL     1       2.634   3.504  19.002  0.00  0.00    +0.000 C 
ATOM      5  N   UNL     1       2.784   4.761  18.246  0.00  0.00    +0.000 N 
ATOM      6  C   UNL     1       3.984   5.027  17.598  0.00  0.00    +0.000 A 
ATOM      7  C   UNL     1       4.512   3.990  16.630  0.00  0.00    +0.000 A 
ATOM      8  C   UNL     1       5.695   4.182  16.034  0.00  0.00    +0.000 A 
ATOM      9  C   UNL     1       6.411   5.348  16.338  0.00  0.00    +0.000 A 
ATOM     10  N   UNL     1       7.595   5.795  15.960  0.00  0.00    +0.000 NA
ATOM     11  N   UNL     1       7.799   7.006  16.587  0.00  0.00    +0.000 NA
ATOM     12  C   UNL     1       6.733   7.261  17.319  0.00  0.00    +0.000 A 
ATOM     13  N   UNL     1       5.828   6.249  17.201  0.00  0.00    +0.000 N 
ATOM     14  N   UNL     1       4.621   6.144  17.841  0.00  0.00    +0.000 NA
ATOM     15  C   UNL     1       1.859   5.861  18.626  0.00  0.00    +0.000 C 
ENDROOT
BRANCH   1  17
ATOM     16  O   UNL     1       0.530   7.409  21.591  0.00  0.00    +0.000 OA
ATOM     17  C   UNL     1       1.294   7.379  20.634  0.00  0.00    +0.000 C 
ATOM     18  N   UNL     1       1.578   8.477  19.833  0.00  0.00    +0.000 N 
ATOM     19  H   UNL     1       2.310   8.387  19.141  0.00  0.00    +0.000 HD
BRANCH  18  20
ATOM     20  C   UNL     1       0.779   9.712  19.814  0.00  0.00    +0.000 C 
ATOM     21  C   UNL     1       1.162  10.635  20.977  0.00  0.00    +0.000 C 
ATOM     22  C   UNL     1       0.350  11.932  21.084  0.00  0.00    +0.000 C 
ATOM     23  C   UNL     1       0.557  13.046  20.049  0.00  0.00    +0.000 C 
ATOM     24  C   UNL     1       1.976  13.238  19.517  0.00  0.00    +0.000 C 
ATOM     25  C   UNL     1       2.260  12.561  18.172  0.00  0.00    +0.000 C 
ATOM     26  C   UNL     1       2.262  11.031  18.153  0.00  0.00    +0.000 C 
ATOM     27  C   UNL     1       0.903  10.372  18.427  0.00  0.00    +0.000 C 
ENDBRANCH  18  20
ENDBRANCH   1  17
TORSDOF 2
ENDMDL
MODEL 3
REMARK VINA RESULT:      -8.1      2.930      8.542
REMARK  Name = 
REMARK  2 active torsions:
REMARK  status: ('A' for Active; 'I' for Inactive)
REMARK    1  A    between atoms: C_2  and  C_12
REMARK    2  A    between atoms: N_3  and  C_4
REMARK                            x       y       z     vdW  Elec       q    Type
REMARK                         _______ _______ _______ _____ _____    ______ ____
ROOT
ATOM      1  C   UNL     1       2.043   6.754  20.144  0.00  0.00    +0.000 C 
ATOM      2  C   UNL     1       1.351   5.572  20.825  0.00  0.00    +0.000 C 
ATOM      3  C   UNL     1       2.143   4.322  20.445  0.00  0.00    +0.000 C 
ATOM      4  C   UNL     1       2.166   4.109  18.928  0.00  0.00    +0.000 C 
ATOM      5  N   UNL     1       2.532   5.337  18.197  0.00  0.00    +0.000 N 
ATOM      6  C   UNL     1       3.742   5.388  17.514  0.00  0.00    +0.000 A 
ATOM      7  C   UNL     1       4.031   4.299  16.504  0.00  0.00    +0.000 A 
ATOM      8  C   UNL     1       5.210   4.279  15.871  0.00  0.00    +0.000 A 
ATOM      9  C   UNL     1       6.146   5.276  16.178  0.00  0.00    +0.000 A 
ATOM     10  N   UNL     1       7.382   5.499  15.770  0.00  0.00    +0.000 NA
ATOM     11  N   UNL     1       7.835   6.629  16.418  0.00  0.00    +0.000 NA
ATOM     12  C   UNL     1       6.860   7.061  17.193  0.00  0.00    +0.000 A 
ATOM     13  N   UNL     1       5.773   6.245  17.083  0.00  0.00    +0.000 N 
ATOM     14  N   UNL     1       4.589   6.353  17.762  0.00  0.00    +0.000 NA
ATOM     15  C   UNL     1       1.849   6.581  18.637  0.00  0.00    +0.000 C 
ENDROOT
BRANCH   1  17
ATOM     16  O   UNL     1       1.440   8.328  21.889  0.00  0.00    +0.000 OA
ATOM     17  C   UNL     1       1.647   8.118  20.700  0.00  0.00    +0.000 C 
ATOM     18  N   UNL     1       1.462   9.063  19.701  0.00  0.00    +0.000 N 
ATOM     19  H   UNL     1       1.771   8.836  18.764  0.00  0.00    +0.000 HD
BRANCH  18  20
ATOM     20  C   UNL     1       0.702  10.311  19.877  0.00  0.00    +0.000 C 
ATOM     21  C   UNL     1       1.129  11.365  18.848  0.00  0.00    +0.000 C 
ATOM     22  C   UNL     1       0.436  12.728  18.976  0.00  0.00    +0.000 C 
ATOM     23  C   UNL     1      -1.046  12.867  18.598  0.00  0.00    +0.000 C 
ATOM     24  C   UNL     1      -1.540  12.020  17.427  0.00  0.00    +0.000 C 
ATOM     25  C   UNL     1      -2.233  10.712  17.821  0.00  0.00    +0.000 C 
ATOM     26  C   UNL     1      -1.362   9.635  18.471  0.00  0.00    +0.000 C 
ATOM     27  C   UNL     1      -0.805   9.992  19.856  0.00  0.00    +0.000 C 
ENDBRANCH  18  20
ENDBRANCH   1  17
TORSDOF 2
ENDMDL
MODEL 4
REMARK VINA RESULT:      -7.8      1.556      2.405
REMARK  Name = 
REMARK  2 active torsions:
REMARK  status: ('A' for Active; 'I' for Inactive)
REMARK    1  A    between atoms: C_2  and  C_12
REMARK    2  A    between atoms: N_3  and  C_4
REMARK                            x       y       z     vdW  Elec       q    Type
REMARK                         _______ _______ _______ _____ _____    ______ ____
ROOT
ATOM      1  C   UNL     1       1.513   8.514  19.051  0.00  0.00    +0.000 C 
ATOM      2  C   UNL     1       1.694   8.095  20.510  0.00  0.00    +0.000 C 
ATOM      3  C   UNL     1       0.370   8.381  21.217  0.00  0.00    +0.000 C 
ATOM      4  C   UNL     1       0.001   9.866  21.143  0.00  0.00    +0.000 C 
ATOM      5  N   UNL     1       0.117  10.403  19.774  0.00  0.00    +0.000 N 
ATOM      6  C   UNL     1      -1.032  10.793  19.096  0.00  0.00    +0.000 A 
ATOM      7  C   UNL     1      -1.947  11.792  19.770  0.00  0.00    +0.000 A 
ATOM      8  C   UNL     1      -3.094  12.146  19.176  0.00  0.00    +0.000 A 
ATOM      9  C   UNL     1      -3.409  11.564  17.940  0.00  0.00    +0.000 A 
ATOM     10  N   UNL     1      -4.457  11.668  17.144  0.00  0.00    +0.000 NA
ATOM     11  N   UNL     1      -4.232  10.853  16.055  0.00  0.00    +0.000 NA
ATOM     12  C   UNL     1      -3.053  10.285  16.219  0.00  0.00    +0.000 A 
ATOM     13  N   UNL     1      -2.492  10.695  17.391  0.00  0.00    +0.000 N 
ATOM     14  N   UNL     1      -1.293  10.291  17.917  0.00  0.00    +0.000 NA
ATOM     15  C   UNL     1       1.353  10.036  19.036  0.00  0.00    +0.000 C 
ENDROOT
BRANCH   1  17
ATOM     16  O   UNL     1       2.896   8.512  17.058  0.00  0.00    +0.000 OA
ATOM     17  C   UNL     1       2.571   7.961  18.103  0.00  0.00    +0.000 C 
ATOM     18  N   UNL     1       3.055   6.726  18.512  0.00  0.00    +0.000 N 
ATOM     19  H   UNL     1       2.822   6.406  19.444  0.00  0.00    +0.000 HD
BRANCH  18  20
ATOM     20  C   UNL     1       3.752   5.779  17.629  0.00  0.00    +0.000 C 
ATOM     21  C   UNL     1       4.651   6.517  16.629  0.00  0.00    +0.000 C 
ATOM     22  C   UNL     1       5.385   5.624  15.620  0.00  0.00    +0.000 C 
ATOM     23  C   UNL     1       6.539   4.730  16.094  0.00  0.00    +0.000 C 
ATOM     24  C   UNL     1       7.430   5.286  17.204  0.00  0.00    +0.000 C 
ATOM     25  C   UNL     1       7.081   4.806  18.616  0.00  0.00    +0.000 C 
ATOM     26  C   UNL     1       5.747   5.277  19.199  0.00  0.00    +0.000 C 
ATOM     27  C   UNL     1       4.497   4.740  18.489  0.00  0.00    +0.000 C 
ENDBRANCH  18  20
ENDBRANCH   1  17
TORSDOF 2
ENDMDL
MODEL 5
REMARK VINA RESULT:      -7.7      3.100      9.110
REMARK  Name = 
REMARK  2 active torsions:
REMARK  status: ('A' for Active; 'I' for Inactive)
REMARK    1  A    between atoms: C_2  and  C_12
REMARK    2  A    between atoms: N_3  and  C_4
REMARK                            x       y       z     vdW  Elec       q    Type
REMARK                         _______ _______ _______ _____ _____    ______ ____
ROOT
ATOM      1  C   UNL     1      -0.268  10.156  20.871  0.00  0.00    +0.000 C 
ATOM      2  C   UNL     1      -1.013  10.911  19.770  0.00  0.00    +0.000 C 
ATOM      3  C   UNL     1      -0.895  10.068  18.501  0.00  0.00    +0.000 C 
ATOM      4  C   UNL     1       0.569   9.863  18.095  0.00  0.00    +0.000 C 
ATOM      5  N   UNL     1       1.407   9.426  19.228  0.00  0.00    +0.000 N 
ATOM      6  C   UNL     1       1.946   8.145  19.220  0.00  0.00    +0.000 A 
ATOM      7  C   UNL     1       2.765   7.728  18.018  0.00  0.00    +0.000 A 
ATOM      8  C   UNL     1       3.249   6.482  17.947  0.00  0.00    +0.000 A 
ATOM      9  C   UNL     1       2.970   5.599  18.998  0.00  0.00    +0.000 A 
ATOM     10  N   UNL     1       3.258   4.326  19.198  0.00  0.00    +0.000 NA
ATOM     11  N   UNL     1       2.715   3.964  20.413  0.00  0.00    +0.000 NA
ATOM     12  C   UNL     1       2.121   5.028  20.916  0.00  0.00    +0.000 A 
ATOM     13  N   UNL     1       2.249   6.085  20.066  0.00  0.00    +0.000 N 
ATOM     14  N   UNL     1       1.731   7.342  20.231  0.00  0.00    +0.000 NA
ATOM     15  C   UNL     1       1.216  10.169  20.501  0.00  0.00    +0.000 C 
ENDROOT
BRANCH   1  17
ATOM     16  O   UNL     1      -0.639   9.878  23.252  0.00  0.00    +0.000 OA
ATOM     17  C   UNL     1      -0.591  10.628  22.285  0.00  0.00    +0.000 C 
ATOM     18  N   UNL     1      -0.908  11.978  22.333  0.00  0.00    +0.000 N 
ATOM     19  H   UNL     1      -0.725  12.542  21.512  0.00  0.00    +0.000 HD
BRANCH  18  20
ATOM     20  C   UNL     1      -1.641  12.614  23.438  0.00  0.00    +0.000 C 
ATOM     21  C   UNL     1      -1.338  14.116  23.508  0.00  0.00    +0.000 C 
ATOM     22  C   UNL     1      -2.010  14.870  24.663  0.00  0.00    +0.000 C 
ATOM     23  C   UNL     1      -3.525  15.113  24.633  0.00  0.00    +0.000 C 
ATOM     24  C   UNL     1      -4.155  15.372  23.265  0.00  0.00    +0.000 C 
ATOM     25  C   UNL     1      -4.797  14.148  22.606  0.00  0.00    +0.000 C 
ATOM     26  C   UNL     1      -3.857  13.023  22.166  0.00  0.00    +0.000 C 
ATOM     27  C   UNL     1      -3.141  12.286  23.305  0.00  0.00    +0.000 C 
ENDBRANCH  18  20
ENDBRANCH   1  17
TORSDOF 2
ENDMDL
MODEL 6
REMARK VINA RESULT:      -7.7      1.477      2.345
REMARK  Name = 
REMARK  2 active torsions:
REMARK  status: ('A' for Active; 'I' for Inactive)
REMARK    1  A    between atoms: C_2  and  C_12
REMARK    2  A    between atoms: N_3  and  C_4
REMARK                            x       y       z     vdW  Elec       q    Type
REMARK                         _______ _______ _______ _____ _____    ______ ____
ROOT
ATOM      1  C   UNL     1       1.446   8.205  19.536  0.00  0.00    +0.000 C 
ATOM      2  C   UNL     1       1.471   7.999  21.051  0.00  0.00    +0.000 C 
ATOM      3  C   UNL     1       0.122   8.483  21.582  0.00  0.00    +0.000 C 
ATOM      4  C   UNL     1      -0.111   9.963  21.261  0.00  0.00    +0.000 C 
ATOM      5  N   UNL     1       0.163  10.278  19.846  0.00  0.00    +0.000 N 
ATOM      6  C   UNL     1      -0.889  10.643  19.014  0.00  0.00    +0.000 A 
ATOM      7  C   UNL     1      -1.768  11.796  19.448  0.00  0.00    +0.000 A 
ATOM      8  C   UNL     1      -2.827  12.138  18.705  0.00  0.00    +0.000 A 
ATOM      9  C   UNL     1      -3.089  11.401  17.542  0.00  0.00    +0.000 A 
ATOM     10  N   UNL     1      -4.055  11.459  16.644  0.00  0.00    +0.000 NA
ATOM     11  N   UNL     1      -3.812  10.475  15.709  0.00  0.00    +0.000 NA
ATOM     12  C   UNL     1      -2.703   9.855  16.063  0.00  0.00    +0.000 A 
ATOM     13  N   UNL     1      -2.207  10.395  17.211  0.00  0.00    +0.000 N 
ATOM     14  N   UNL     1      -1.095   9.989  17.900  0.00  0.00    +0.000 NA
ATOM     15  C   UNL     1       1.420   9.714  19.288  0.00  0.00    +0.000 C 
ENDROOT
BRANCH   1  17
ATOM     16  O   UNL     1       2.833   7.674  17.618  0.00  0.00    +0.000 OA
ATOM     17  C   UNL     1       2.528   7.440  18.781  0.00  0.00    +0.000 C 
ATOM     18  N   UNL     1       3.060   6.398  19.529  0.00  0.00    +0.000 N 
ATOM     19  H   UNL     1       2.837   6.356  20.515  0.00  0.00    +0.000 HD
BRANCH  18  20
ATOM     20  C   UNL     1       3.795   5.262  18.954  0.00  0.00    +0.000 C 
ATOM     21  C   UNL     1       3.216   4.863  17.591  0.00  0.00    +0.000 C 
ATOM     22  C   UNL     1       3.877   3.650  16.925  0.00  0.00    +0.000 C 
ATOM     23  C   UNL     1       5.297   3.773  16.355  0.00  0.00    +0.000 C 
ATOM     24  C   UNL     1       5.674   5.114  15.729  0.00  0.00    +0.000 C 
ATOM     25  C   UNL     1       6.450   6.063  16.647  0.00  0.00    +0.000 C 
ATOM     26  C   UNL     1       5.697   6.629  17.854  0.00  0.00    +0.000 C 
ATOM     27  C   UNL     1       5.299   5.599  18.919  0.00  0.00    +0.000 C 
ENDBRANCH  18  20
ENDBRANCH   1  17
TORSDOF 2
ENDMDL
MODEL 7
REMARK VINA RESULT:      -7.5      1.539      2.038
REMARK  Name = 
REMARK  2 active torsions:
REMARK  status: ('A' for Active; 'I' for Inactive)
REMARK    1  A    between atoms: C_2  and  C_12
REMARK    2  A    between atoms: N_3  and  C_4
REMARK                            x       y       z     vdW  Elec       q    Type
REMARK                         _______ _______ _______ _____ _____    ______ ____
ROOT
ATOM      1  C   UNL     1       0.565   9.653  20.098  0.00  0.00    +0.000 C 
ATOM      2  C   UNL     1       1.028   9.051  21.426  0.00  0.00    +0.000 C 
ATOM      3  C   UNL     1      -0.088   9.307  22.437  0.00  0.00    +0.000 C 
ATOM      4  C   UNL     1      -0.359  10.805  22.610  0.00  0.00    +0.000 C 
ATOM      5  N   UNL     1      -0.504  11.500  21.316  0.00  0.00    +0.000 N 
ATOM      6  C   UNL     1      -1.742  12.020  20.959  0.00  0.00    +0.000 A 
ATOM      7  C   UNL     1      -2.418  12.969  21.924  0.00  0.00    +0.000 A 
ATOM      8  C   UNL     1      -3.638  13.443  21.644  0.00  0.00    +0.000 A 
ATOM      9  C   UNL     1      -4.253  13.031  20.454  0.00  0.00    +0.000 A 
ATOM     10  N   UNL     1      -5.438  13.278  19.927  0.00  0.00    +0.000 NA
ATOM     11  N   UNL     1      -5.513  12.593  18.733  0.00  0.00    +0.000 NA
ATOM     12  C   UNL     1      -4.369  11.957  18.567  0.00  0.00    +0.000 A 
ATOM     13  N   UNL     1      -3.540  12.196  19.622  0.00  0.00    +0.000 N 
ATOM     14  N   UNL     1      -2.288  11.678  19.819  0.00  0.00    +0.000 NA
ATOM     15  C   UNL     1       0.514  11.170  20.285  0.00  0.00    +0.000 C 
ENDROOT
BRANCH   1  17
ATOM     16  O   UNL     1       1.307   9.723  17.789  0.00  0.00    +0.000 OA
ATOM     17  C   UNL     1       1.352   9.173  18.883  0.00  0.00    +0.000 C 
ATOM     18  N   UNL     1       2.048   7.998  19.133  0.00  0.00    +0.000 N 
ATOM     19  H   UNL     1       2.125   7.683  20.092  0.00  0.00    +0.000 HD
BRANCH  18  20
ATOM     20  C   UNL     1       2.546   7.095  18.085  0.00  0.00    +0.000 C 
ATOM     21  C   UNL     1       4.037   7.332  17.815  0.00  0.00    +0.000 C 
ATOM     22  C   UNL     1       4.647   6.478  16.697  0.00  0.00    +0.000 C 
ATOM     23  C   UNL     1       4.862   4.974  16.919  0.00  0.00    +0.000 C 
ATOM     24  C   UNL     1       5.255   4.535  18.329  0.00  0.00    +0.000 C 
ATOM     25  C   UNL     1       4.097   4.035  19.197  0.00  0.00    +0.000 C 
ATOM     26  C   UNL     1       3.046   5.068  19.613  0.00  0.00    +0.000 C 
ATOM     27  C   UNL     1       2.204   5.642  18.465  0.00  0.00    +0.000 C 
ENDBRANCH  18  20
ENDBRANCH   1  17
TORSDOF 2
ENDMDL
MODEL 8
REMARK VINA RESULT:      -7.5      1.917      2.580
REMARK  Name = 
REMARK  2 active torsions:
REMARK  status: ('A' for Active; 'I' for Inactive)
REMARK    1  A    between atoms: C_2  and  C_12
REMARK    2  A    between atoms: N_3  and  C_4
REMARK                            x       y       z     vdW  Elec       q    Type
REMARK                         _______ _______ _______ _____ _____    ______ ____
ROOT
ATOM      1  C   UNL     1       1.307   7.934  20.444  0.00  0.00    +0.000 C 
ATOM      2  C   UNL     1       1.546   8.393  21.883  0.00  0.00    +0.000 C 
ATOM      3  C   UNL     1       0.570   9.538  22.148  0.00  0.00    +0.000 C 
ATOM      4  C   UNL     1       0.797  10.706  21.182  0.00  0.00    +0.000 C 
ATOM      5  N   UNL     1       0.888  10.262  19.779  0.00  0.00    +0.000 N 
ATOM      6  C   UNL     1      -0.114  10.621  18.885  0.00  0.00    +0.000 A 
ATOM      7  C   UNL     1      -0.449  12.090  18.749  0.00  0.00    +0.000 A 
ATOM      8  C   UNL     1      -1.449  12.470  17.945  0.00  0.00    +0.000 A 
ATOM      9  C   UNL     1      -2.161  11.479  17.256  0.00  0.00    +0.000 A 
ATOM     10  N   UNL     1      -3.202  11.525  16.444  0.00  0.00    +0.000 NA
ATOM     11  N   UNL     1      -3.490  10.231  16.066  0.00  0.00    +0.000 NA
ATOM     12  C   UNL     1      -2.613   9.440  16.653  0.00  0.00    +0.000 A 
ATOM     13  N   UNL     1      -1.754  10.173  17.416  0.00  0.00    +0.000 N 
ATOM     14  N   UNL     1      -0.737   9.697  18.201  0.00  0.00    +0.000 NA
ATOM     15  C   UNL     1       1.748   9.076  19.528  0.00  0.00    +0.000 C 
ENDROOT
BRANCH   1  17
ATOM     16  O   UNL     1       1.754   5.580  20.824  0.00  0.00    +0.000 OA
ATOM     17  C   UNL     1       1.899   6.568  20.114  0.00  0.00    +0.000 C 
ATOM     18  N   UNL     1       2.690   6.595  18.974  0.00  0.00    +0.000 N 
ATOM     19  H   UNL     1       2.654   7.419  18.387  0.00  0.00    +0.000 HD
BRANCH  18  20
ATOM     20  C   UNL     1       3.696   5.574  18.643  0.00  0.00    +0.000 C 
ATOM     21  C   UNL     1       3.112   4.507  17.709  0.00  0.00    +0.000 C 
ATOM     22  C   UNL     1       4.063   3.361  17.343  0.00  0.00    +0.000 C 
ATOM     23  C   UNL     1       5.248   3.626  16.403  0.00  0.00    +0.000 C 
ATOM     24  C   UNL     1       5.023   4.637  15.280  0.00  0.00    +0.000 C 
ATOM     25  C   UNL     1       5.527   6.053  15.573  0.00  0.00    +0.000 C 
ATOM     26  C   UNL     1       4.800   6.834  16.671  0.00  0.00    +0.000 C 
ATOM     27  C   UNL     1       4.955   6.267  18.088  0.00  0.00    +0.000 C 
ENDBRANCH  18  20
ENDBRANCH   1  17
TORSDOF 2
ENDMDL
MODEL 9
REMARK VINA RESULT:      -7.4      2.535      8.891
REMARK  Name = 
REMARK  2 active torsions:
REMARK  status: ('A' for Active; 'I' for Inactive)
REMARK    1  A    between atoms: C_2  and  C_12
REMARK    2  A    between atoms: N_3  and  C_4
REMARK                            x       y       z     vdW  Elec       q    Type
REMARK                         _______ _______ _______ _____ _____    ______ ____
ROOT
ATOM      1  C   UNL     1       1.886   7.927  19.252  0.00  0.00    +0.000 C 
ATOM      2  C   UNL     1       1.244   7.258  20.468  0.00  0.00    +0.000 C 
ATOM      3  C   UNL     1       2.072   6.010  20.771  0.00  0.00    +0.000 C 
ATOM      4  C   UNL     1       2.082   5.039  19.585  0.00  0.00    +0.000 C 
ATOM      5  N   UNL     1       2.397   5.715  18.312  0.00  0.00    +0.000 N 
ATOM      6  C   UNL     1       3.595   5.429  17.669  0.00  0.00    +0.000 A 
ATOM      7  C   UNL     1       3.906   3.980  17.363  0.00  0.00    +0.000 A 
ATOM      8  C   UNL     1       5.077   3.659  16.799  0.00  0.00    +0.000 A 
ATOM      9  C   UNL     1       5.983   4.689  16.516  0.00  0.00    +0.000 A 
ATOM     10  N   UNL     1       7.205   4.694  16.016  0.00  0.00    +0.000 NA
ATOM     11  N   UNL     1       7.629   6.006  15.969  0.00  0.00    +0.000 NA
ATOM     12  C   UNL     1       6.650   6.757  16.434  0.00  0.00    +0.000 A 
ATOM     13  N   UNL     1       5.590   5.980  16.795  0.00  0.00    +0.000 N 
ATOM     14  N   UNL     1       4.412   6.400  17.353  0.00  0.00    +0.000 NA
ATOM     15  C   UNL     1       1.678   6.991  18.061  0.00  0.00    +0.000 C 
ENDROOT
BRANCH   1  17
ATOM     16  O   UNL     1       2.023  10.137  18.260  0.00  0.00    +0.000 OA
ATOM     17  C   UNL     1       1.453   9.372  19.029  0.00  0.00    +0.000 C 
ATOM     18  N   UNL     1       0.403   9.744  19.857  0.00  0.00    +0.000 N 
ATOM     19  H   UNL     1      -0.082   9.018  20.370  0.00  0.00    +0.000 HD
BRANCH  18  20
ATOM     20  C   UNL     1       0.048  11.138  20.164  0.00  0.00    +0.000 C 
ATOM     21  C   UNL     1      -1.358  11.475  19.653  0.00  0.00    +0.000 C 
ATOM     22  C   UNL     1      -1.809  12.924  19.873  0.00  0.00    +0.000 C 
ATOM     23  C   UNL     1      -2.139  13.412  21.290  0.00  0.00    +0.000 C 
ATOM     24  C   UNL     1      -2.795  12.402  22.231  0.00  0.00    +0.000 C 
ATOM     25  C   UNL     1      -1.835  11.692  23.190  0.00  0.00    +0.000 C 
ATOM     26  C   UNL     1      -0.819  10.730  22.568  0.00  0.00    +0.000 C 
ATOM     27  C   UNL     1       0.240  11.388  21.672  0.00  0.00    +0.000 C 
ENDBRANCH  18  20
ENDBRANCH   1  17
TORSDOF 2
ENDMDL
