MODEL 1
REMARK VINA RESULT:      -8.4      0.000      0.000
REMARK  Name = 
REMARK  8 active torsions:
REMARK  status: ('A' for Active; 'I' for Inactive)
REMARK    1  A    between atoms: C_1  and  C_2
REMARK    2  A    between atoms: C_2  and  C_3
REMARK    3  A    between atoms: C_3  and  N_4
REMARK    4  A    between atoms: C_3  and  C_25
REMARK    5  A    between atoms: C_5  and  C_7
REMARK    6  A    between atoms: C_9  and  C_10
REMARK    7  A    between atoms: C_16  and  C_17
REMARK    8  A    between atoms: C_17  and  C_18
REMARK                            x       y       z     vdW  Elec       q    Type
REMARK                         _______ _______ _______ _____ _____    ______ ____
ROOT
ATOM      1  C   UNL     1       1.154   9.233  19.243  0.00  0.00    +0.000 A 
ATOM      2  C   UNL     1       0.232   9.999  18.478  0.00  0.00    +0.000 A 
ATOM      3  C   UNL     1      -0.639  10.685  19.318  0.00  0.00    +0.000 A 
ATOM      4  N   UNL     1      -0.288  10.283  20.597  0.00  0.00    +0.000 N 
ATOM      5  C   UNL     1       0.823   9.463  20.567  0.00  0.00    +0.000 A 
ATOM      6  C   UNL     1       1.433   8.902  21.815  0.00  0.00    +0.000 C 
ATOM      7  O   UNL     1       0.978   9.648  22.952  0.00  0.00    +0.000 OA
ATOM      8  C   UNL     1      -0.448   9.728  22.980  0.00  0.00    +0.000 C 
ATOM      9  C   UNL     1      -0.932  10.640  21.856  0.00  0.00    +0.000 C 
ENDROOT
BRANCH   3  10
ATOM     10  C   UNL     1      -1.764  11.555  18.967  0.00  0.00    +0.000 C 
ATOM     11  O   UNL     1      -1.873  12.686  19.438  0.00  0.00    +0.000 OA
ATOM     12  N   UNL     1      -2.736  11.067  18.089  0.00  0.00    +0.000 N 
ATOM     13  C   UNL     1      -2.637   9.915  17.216  0.00  0.00    +0.000 C 
ATOM     14  C   UNL     1      -3.386  10.329  15.967  0.00  0.00    +0.000 C 
ATOM     15  C   UNL     1      -4.502  11.217  16.492  0.00  0.00    +0.000 C 
ATOM     16  C   UNL     1      -3.980  11.799  17.822  0.00  0.00    +0.000 C 
BRANCH  16  17
ATOM     17  C   UNL     1      -4.997  11.592  18.960  0.00  0.00    +0.000 C 
ATOM     18  C   UNL     1      -6.266  10.871  18.521  0.00  0.00    +0.000 C 
ENDBRANCH  16  17
ENDBRANCH   3  10
BRANCH   1  20
ATOM     19  N   UNL     1       2.181   7.088  19.386  0.00  0.00    +0.000 N 
ATOM     20  C   UNL     1       2.196   8.325  18.781  0.00  0.00    +0.000 C 
ATOM     21  O   UNL     1       3.012   8.648  17.918  0.00  0.00    +0.000 OA
ATOM     22  H   UNL     1       1.414   6.859  19.999  0.00  0.00    +0.000 HD
BRANCH  19  23
ATOM     23  C   UNL     1       3.156   6.054  19.088  0.00  0.00    +0.000 C 
BRANCH  23  24
ATOM     24  C   UNL     1       2.809   4.792  19.873  0.00  0.00    +0.000 A 
ATOM     25  C   UNL     1       3.713   3.720  19.925  0.00  0.00    +0.000 A 
ATOM     26  C   UNL     1       3.391   2.545  20.613  0.00  0.00    +0.000 A 
ATOM     27  C   UNL     1       2.166   2.430  21.265  0.00  0.00    +0.000 A 
ATOM     28  C   UNL     1       1.263   3.490  21.238  0.00  0.00    +0.000 A 
ATOM     29  C   UNL     1       1.582   4.662  20.550  0.00  0.00    +0.000 A 
ENDBRANCH  23  24
BRANCH  23  31
ATOM     30  C   UNL     1       4.666   5.709  17.019  0.00  0.00    +0.000 C 
ATOM     31  C   UNL     1       3.251   5.734  17.579  0.00  0.00    +0.000 C 
ENDBRANCH  23  31
ENDBRANCH  19  23
ENDBRANCH   1  20
TORSDOF 6
ENDMDL
MODEL 2
REMARK VINA RESULT:      -8.3      0.982      1.269
REMARK  Name = 
REMARK  8 active torsions:
REMARK  status: ('A' for Active; 'I' for Inactive)
REMARK    1  A    between atoms: C_1  and  C_2
REMARK    2  A    between atoms: C_2  and  C_3
REMARK    3  A    between atoms: C_3  and  N_4
REMARK    4  A    between atoms: C_3  and  C_25
REMARK    5  A    between atoms: C_5  and  C_7
REMARK    6  A    between atoms: C_9  and  C_10
REMARK    7  A    between atoms: C_16  and  C_17
REMARK    8  A    between atoms: C_17  and  C_18
REMARK                            x       y       z     vdW  Elec       q    Type
REMARK                         _______ _______ _______ _____ _____    ______ ____
ROOT
ATOM      1  C   UNL     1       1.316   9.042  19.089  0.00  0.00    +0.000 A 
ATOM      2  C   UNL     1       0.447   9.819  18.273  0.00  0.00    +0.000 A 
ATOM      3  C   UNL     1      -0.409  10.576  19.065  0.00  0.00    +0.000 A 
ATOM      4  N   UNL     1      -0.105  10.208  20.367  0.00  0.00    +0.000 N 
ATOM      5  C   UNL     1       0.967   9.338  20.395  0.00  0.00    +0.000 A 
ATOM      6  C   UNL     1       1.522   8.799  21.677  0.00  0.00    +0.000 C 
ATOM      7  O   UNL     1       1.077   9.608  22.774  0.00  0.00    +0.000 OA
ATOM      8  C   UNL     1      -0.344   9.754  22.765  0.00  0.00    +0.000 C 
ATOM      9  C   UNL     1      -0.760  10.643  21.596  0.00  0.00    +0.000 C 
ENDROOT
BRANCH   3  10
ATOM     10  C   UNL     1      -1.485  11.482  18.656  0.00  0.00    +0.000 C 
ATOM     11  O   UNL     1      -1.508  12.657  19.019  0.00  0.00    +0.000 OA
ATOM     12  N   UNL     1      -2.507  10.980  17.847  0.00  0.00    +0.000 N 
ATOM     13  C   UNL     1      -2.505   9.747  17.085  0.00  0.00    +0.000 C 
ATOM     14  C   UNL     1      -3.256  10.093  15.816  0.00  0.00    +0.000 C 
ATOM     15  C   UNL     1      -4.300  11.097  16.276  0.00  0.00    +0.000 C 
ATOM     16  C   UNL     1      -3.709  11.765  17.535  0.00  0.00    +0.000 C 
BRANCH  16  17
ATOM     17  C   UNL     1      -4.708  11.733  18.706  0.00  0.00    +0.000 C 
ATOM     18  C   UNL     1      -5.997  10.985  18.389  0.00  0.00    +0.000 C 
ENDBRANCH  16  17
ENDBRANCH   3  10
BRANCH   1  20
ATOM     19  N   UNL     1       2.328   6.913  19.432  0.00  0.00    +0.000 N 
ATOM     20  C   UNL     1       2.324   8.070  18.686  0.00  0.00    +0.000 C 
ATOM     21  O   UNL     1       3.099   8.278  17.753  0.00  0.00    +0.000 OA
ATOM     22  H   UNL     1       1.590   6.768  20.104  0.00  0.00    +0.000 HD
BRANCH  19  23
ATOM     23  C   UNL     1       3.276   5.836  19.210  0.00  0.00    +0.000 C 
BRANCH  23  24
ATOM     24  C   UNL     1       2.519   4.518  19.068  0.00  0.00    +0.000 A 
ATOM     25  C   UNL     1       1.464   4.210  19.940  0.00  0.00    +0.000 A 
ATOM     26  C   UNL     1       0.787   2.990  19.841  0.00  0.00    +0.000 A 
ATOM     27  C   UNL     1       1.148   2.067  18.863  0.00  0.00    +0.000 A 
ATOM     28  C   UNL     1       2.182   2.363  17.977  0.00  0.00    +0.000 A 
ATOM     29  C   UNL     1       2.860   3.579  18.076  0.00  0.00    +0.000 A 
ENDBRANCH  23  24
BRANCH  23  31
ATOM     30  C   UNL     1       5.663   5.871  18.220  0.00  0.00    +0.000 C 
ATOM     31  C   UNL     1       4.175   6.070  17.976  0.00  0.00    +0.000 C 
ENDBRANCH  23  31
ENDBRANCH  19  23
ENDBRANCH   1  20
TORSDOF 6
ENDMDL
MODEL 3
REMARK VINA RESULT:      -8.2      0.945      1.053
REMARK  Name = 
REMARK  8 active torsions:
REMARK  status: ('A' for Active; 'I' for Inactive)
REMARK    1  A    between atoms: C_1  and  C_2
REMARK    2  A    between atoms: C_2  and  C_3
REMARK    3  A    between atoms: C_3  and  N_4
REMARK    4  A    between atoms: C_3  and  C_25
REMARK    5  A    between atoms: C_5  and  C_7
REMARK    6  A    between atoms: C_9  and  C_10
REMARK    7  A    between atoms: C_16  and  C_17
REMARK    8  A    between atoms: C_17  and  C_18
REMARK                            x       y       z     vdW  Elec       q    Type
REMARK                         _______ _______ _______ _____ _____    ______ ____
ROOT
ATOM      1  C   UNL     1       1.129   9.348  19.278  0.00  0.00    +0.000 A 
ATOM      2  C   UNL     1       0.208  10.134  18.532  0.00  0.00    +0.000 A 
ATOM      3  C   UNL     1      -0.644  10.823  19.389  0.00  0.00    +0.000 A 
ATOM      4  N   UNL     1      -0.282  10.402  20.660  0.00  0.00    +0.000 N 
ATOM      5  C   UNL     1       0.817   9.569  20.608  0.00  0.00    +0.000 A 
ATOM      6  C   UNL     1       1.434   8.986  21.842  0.00  0.00    +0.000 C 
ATOM      7  O   UNL     1       1.003   9.726  22.993  0.00  0.00    +0.000 OA
ATOM      8  C   UNL     1      -0.422   9.824  23.039  0.00  0.00    +0.000 C 
ATOM      9  C   UNL     1      -0.907  10.754  21.930  0.00  0.00    +0.000 C 
ENDROOT
BRANCH   3  10
ATOM     10  C   UNL     1      -1.761  11.711  19.062  0.00  0.00    +0.000 C 
ATOM     11  O   UNL     1      -1.804  12.869  19.475  0.00  0.00    +0.000 OA
ATOM     12  N   UNL     1      -2.802  11.211  18.274  0.00  0.00    +0.000 N 
ATOM     13  C   UNL     1      -2.795  10.011  17.462  0.00  0.00    +0.000 C 
ATOM     14  C   UNL     1      -3.609  10.384  16.240  0.00  0.00    +0.000 C 
ATOM     15  C   UNL     1      -4.661  11.337  16.784  0.00  0.00    +0.000 C 
ATOM     16  C   UNL     1      -4.038  11.970  18.044  0.00  0.00    +0.000 C 
BRANCH  16  17
ATOM     17  C   UNL     1      -4.985  11.860  19.253  0.00  0.00    +0.000 C 
ATOM     18  C   UNL     1      -5.304  13.201  19.903  0.00  0.00    +0.000 C 
ENDBRANCH  16  17
ENDBRANCH   3  10
BRANCH   1  20
ATOM     19  N   UNL     1       2.117   7.183  19.372  0.00  0.00    +0.000 N 
ATOM     20  C   UNL     1       2.153   8.432  18.793  0.00  0.00    +0.000 C 
ATOM     21  O   UNL     1       2.973   8.759  17.936  0.00  0.00    +0.000 OA
ATOM     22  H   UNL     1       1.347   6.954  19.981  0.00  0.00    +0.000 HD
BRANCH  19  23
ATOM     23  C   UNL     1       3.073   6.138  19.049  0.00  0.00    +0.000 C 
BRANCH  23  24
ATOM     24  C   UNL     1       2.371   4.783  19.090  0.00  0.00    +0.000 A 
ATOM     25  C   UNL     1       2.502   3.885  18.019  0.00  0.00    +0.000 A 
ATOM     26  C   UNL     1       1.836   2.655  18.032  0.00  0.00    +0.000 A 
ATOM     27  C   UNL     1       1.038   2.302  19.117  0.00  0.00    +0.000 A 
ATOM     28  C   UNL     1       0.910   3.173  20.196  0.00  0.00    +0.000 A 
ATOM     29  C   UNL     1       1.572   4.402  20.185  0.00  0.00    +0.000 A 
ENDBRANCH  23  24
BRANCH  23  31
ATOM     30  C   UNL     1       5.265   6.203  17.682  0.00  0.00    +0.000 C 
ATOM     31  C   UNL     1       3.751   6.346  17.676  0.00  0.00    +0.000 C 
ENDBRANCH  23  31
ENDBRANCH  19  23
ENDBRANCH   1  20
TORSDOF 6
ENDMDL
MODEL 4
REMARK VINA RESULT:      -8.1      1.381      1.685
REMARK  Name = 
REMARK  8 active torsions:
REMARK  status: ('A' for Active; 'I' for Inactive)
REMARK    1  A    between atoms: C_1  and  C_2
REMARK    2  A    between atoms: C_2  and  C_3
REMARK    3  A    between atoms: C_3  and  N_4
REMARK    4  A    between atoms: C_3  and  C_25
REMARK    5  A    between atoms: C_5  and  C_7
REMARK    6  A    between atoms: C_9  and  C_10
REMARK    7  A    between atoms: C_16  and  C_17
REMARK    8  A    between atoms: C_17  and  C_18
REMARK                            x       y       z     vdW  Elec       q    Type
REMARK                         _______ _______ _______ _____ _____    ______ ____
ROOT
ATOM      1  C   UNL     1       0.685   9.284  20.328  0.00  0.00    +0.000 A 
ATOM      2  C   UNL     1       0.159   9.797  19.110  0.00  0.00    +0.000 A 
ATOM      3  C   UNL     1      -0.748  10.820  19.369  0.00  0.00    +0.000 A 
ATOM      4  N   UNL     1      -0.823  10.883  20.752  0.00  0.00    +0.000 N 
ATOM      5  C   UNL     1       0.076  10.013  21.335  0.00  0.00    +0.000 A 
ATOM      6  C   UNL     1       0.222   9.895  22.821  0.00  0.00    +0.000 C 
ATOM      7  O   UNL     1      -0.356  11.043  23.455  0.00  0.00    +0.000 OA
ATOM      8  C   UNL     1      -1.697  11.257  23.013  0.00  0.00    +0.000 C 
ATOM      9  C   UNL     1      -1.688  11.734  21.563  0.00  0.00    +0.000 C 
ENDROOT
BRANCH   3  10
ATOM     10  C   UNL     1      -1.553  11.599  18.426  0.00  0.00    +0.000 C 
ATOM     11  O   UNL     1      -1.465  12.825  18.366  0.00  0.00    +0.000 OA
ATOM     12  N   UNL     1      -2.447  10.921  17.594  0.00  0.00    +0.000 N 
ATOM     13  C   UNL     1      -2.479   9.502  17.304  0.00  0.00    +0.000 C 
ATOM     14  C   UNL     1      -2.879   9.428  15.845  0.00  0.00    +0.000 C 
ATOM     15  C   UNL     1      -3.823  10.607  15.669  0.00  0.00    +0.000 C 
ATOM     16  C   UNL     1      -3.413  11.632  16.747  0.00  0.00    +0.000 C 
BRANCH  16  17
ATOM     17  C   UNL     1      -4.630  12.095  17.569  0.00  0.00    +0.000 C 
ATOM     18  C   UNL     1      -5.674  11.005  17.782  0.00  0.00    +0.000 C 
ENDBRANCH  16  17
ENDBRANCH   3  10
BRANCH   1  20
ATOM     19  N   UNL     1       2.068   7.599  19.369  0.00  0.00    +0.000 N 
ATOM     20  C   UNL     1       1.613   8.179  20.531  0.00  0.00    +0.000 C 
ATOM     21  O   UNL     1       1.955   7.807  21.653  0.00  0.00    +0.000 OA
ATOM     22  H   UNL     1       1.833   8.031  18.488  0.00  0.00    +0.000 HD
BRANCH  19  23
ATOM     23  C   UNL     1       2.974   6.464  19.357  0.00  0.00    +0.000 C 
BRANCH  23  24
ATOM     24  C   UNL     1       2.163   5.171  19.373  0.00  0.00    +0.000 A 
ATOM     25  C   UNL     1       1.747   4.610  20.590  0.00  0.00    +0.000 A 
ATOM     26  C   UNL     1       1.033   3.408  20.617  0.00  0.00    +0.000 A 
ATOM     27  C   UNL     1       0.717   2.755  19.428  0.00  0.00    +0.000 A 
ATOM     28  C   UNL     1       1.106   3.305  18.210  0.00  0.00    +0.000 A 
ATOM     29  C   UNL     1       1.821   4.504  18.181  0.00  0.00    +0.000 A 
ENDBRANCH  23  24
BRANCH  23  31
ATOM     30  C   UNL     1       3.754   7.644  17.194  0.00  0.00    +0.000 C 
ATOM     31  C   UNL     1       3.937   6.474  18.150  0.00  0.00    +0.000 C 
ENDBRANCH  23  31
ENDBRANCH  19  23
ENDBRANCH   1  20
TORSDOF 6
ENDMDL
MODEL 5
REMARK VINA RESULT:      -8.0      1.292      1.609
REMARK  Name = 
REMARK  8 active torsions:
REMARK  status: ('A' for Active; 'I' for Inactive)
REMARK    1  A    between atoms: C_1  and  C_2
REMARK    2  A    between atoms: C_2  and  C_3
REMARK    3  A    between atoms: C_3  and  N_4
REMARK    4  A    between atoms: C_3  and  C_25
REMARK    5  A    between atoms: C_5  and  C_7
REMARK    6  A    between atoms: C_9  and  C_10
REMARK    7  A    between atoms: C_16  and  C_17
REMARK    8  A    between atoms: C_17  and  C_18
REMARK                            x       y       z     vdW  Elec       q    Type
REMARK                         _______ _______ _______ _____ _____    ______ ____
ROOT
ATOM      1  C   UNL     1       1.215   8.891  19.713  0.00  0.00    +0.000 A 
ATOM      2  C   UNL     1       0.521   9.582  18.681  0.00  0.00    +0.000 A 
ATOM      3  C   UNL     1      -0.354  10.514  19.228  0.00  0.00    +0.000 A 
ATOM      4  N   UNL     1      -0.241  10.343  20.600  0.00  0.00    +0.000 N 
ATOM      5  C   UNL     1       0.740   9.419  20.901  0.00  0.00    +0.000 A 
ATOM      6  C   UNL     1       1.089   9.059  22.312  0.00  0.00    +0.000 C 
ATOM      7  O   UNL     1       0.589  10.064  23.204  0.00  0.00    +0.000 OA
ATOM      8  C   UNL     1      -0.802  10.302  22.986  0.00  0.00    +0.000 C 
ATOM      9  C   UNL     1      -0.997  11.015  21.650  0.00  0.00    +0.000 C 
ENDROOT
BRANCH   3  10
ATOM     10  C   UNL     1      -1.289  11.412  18.547  0.00  0.00    +0.000 C 
ATOM     11  O   UNL     1      -1.240  12.632  18.705  0.00  0.00    +0.000 OA
ATOM     12  N   UNL     1      -2.263  10.854  17.715  0.00  0.00    +0.000 N 
ATOM     13  C   UNL     1      -2.296   9.510  17.175  0.00  0.00    +0.000 C 
ATOM     14  C   UNL     1      -2.873   9.682  15.785  0.00  0.00    +0.000 C 
ATOM     15  C   UNL     1      -3.860  10.828  15.942  0.00  0.00    +0.000 C 
ATOM     16  C   UNL     1      -3.345  11.659  17.134  0.00  0.00    +0.000 C 
BRANCH  16  17
ATOM     17  C   UNL     1      -4.461  11.909  18.166  0.00  0.00    +0.000 C 
ATOM     18  C   UNL     1      -5.715  11.079  17.921  0.00  0.00    +0.000 C 
ENDBRANCH  16  17
ENDBRANCH   3  10
BRANCH   1  20
ATOM     19  N   UNL     1       2.803   7.722  18.377  0.00  0.00    +0.000 N 
ATOM     20  C   UNL     1       2.175   7.801  19.599  0.00  0.00    +0.000 C 
ATOM     21  O   UNL     1       2.397   7.024  20.528  0.00  0.00    +0.000 OA
ATOM     22  H   UNL     1       2.653   8.461  17.708  0.00  0.00    +0.000 HD
BRANCH  19  23
ATOM     23  C   UNL     1       3.769   6.687  18.053  0.00  0.00    +0.000 C 
BRANCH  23  24
ATOM     24  C   UNL     1       3.122   5.317  18.236  0.00  0.00    +0.000 A 
ATOM     25  C   UNL     1       1.855   5.055  17.692  0.00  0.00    +0.000 A 
ATOM     26  C   UNL     1       1.237   3.815  17.883  0.00  0.00    +0.000 A 
ATOM     27  C   UNL     1       1.881   2.817  18.611  0.00  0.00    +0.000 A 
ATOM     28  C   UNL     1       3.145   3.054  19.144  0.00  0.00    +0.000 A 
ATOM     29  C   UNL     1       3.763   4.292  18.956  0.00  0.00    +0.000 A 
ENDBRANCH  23  24
BRANCH  23  31
ATOM     30  C   UNL     1       5.680   6.137  16.402  0.00  0.00    +0.000 C 
ATOM     31  C   UNL     1       4.339   6.821  16.624  0.00  0.00    +0.000 C 
ENDBRANCH  23  31
ENDBRANCH  19  23
ENDBRANCH   1  20
TORSDOF 6
ENDMDL
MODEL 6
REMARK VINA RESULT:      -7.9      2.446      4.277
REMARK  Name = 
REMARK  8 active torsions:
REMARK  status: ('A' for Active; 'I' for Inactive)
REMARK    1  A    between atoms: C_1  and  C_2
REMARK    2  A    between atoms: C_2  and  C_3
REMARK    3  A    between atoms: C_3  and  N_4
REMARK    4  A    between atoms: C_3  and  C_25
REMARK    5  A    between atoms: C_5  and  C_7
REMARK    6  A    between atoms: C_9  and  C_10
REMARK    7  A    between atoms: C_16  and  C_17
REMARK    8  A    between atoms: C_17  and  C_18
REMARK                            x       y       z     vdW  Elec       q    Type
REMARK                         _______ _______ _______ _____ _____    ______ ____
ROOT
ATOM      1  C   UNL     1       0.675   9.721  19.728  0.00  0.00    +0.000 A 
ATOM      2  C   UNL     1       0.700  10.270  21.040  0.00  0.00    +0.000 A 
ATOM      3  C   UNL     1      -0.406  11.089  21.241  0.00  0.00    +0.000 A 
ATOM      4  N   UNL     1      -1.070  11.092  20.025  0.00  0.00    +0.000 N 
ATOM      5  C   UNL     1      -0.467  10.227  19.133  0.00  0.00    +0.000 A 
ATOM      6  C   UNL     1      -0.994  10.017  17.747  0.00  0.00    +0.000 C 
ATOM      7  O   UNL     1      -2.348  10.481  17.670  0.00  0.00    +0.000 OA
ATOM      8  C   UNL     1      -2.461  11.824  18.143  0.00  0.00    +0.000 C 
ATOM      9  C   UNL     1      -2.258  11.853  19.655  0.00  0.00    +0.000 C 
ENDROOT
BRANCH   3  10
ATOM     10  C   UNL     1      -0.763  11.883  22.419  0.00  0.00    +0.000 C 
ATOM     11  O   UNL     1      -1.173  11.354  23.451  0.00  0.00    +0.000 OA
ATOM     12  N   UNL     1      -0.645  13.274  22.346  0.00  0.00    +0.000 N 
ATOM     13  C   UNL     1       0.083  14.047  21.360  0.00  0.00    +0.000 C 
ATOM     14  C   UNL     1       0.660  15.205  22.147  0.00  0.00    +0.000 C 
ATOM     15  C   UNL     1      -0.398  15.487  23.202  0.00  0.00    +0.000 C 
ATOM     16  C   UNL     1      -1.143  14.154  23.411  0.00  0.00    +0.000 C 
BRANCH  16  17
ATOM     17  C   UNL     1      -2.668  14.342  23.301  0.00  0.00    +0.000 C 
ATOM     18  C   UNL     1      -3.423  13.952  24.566  0.00  0.00    +0.000 C 
ENDBRANCH  16  17
ENDBRANCH   3  10
BRANCH   1  20
ATOM     19  N   UNL     1       1.846   7.647  19.691  0.00  0.00    +0.000 N 
ATOM     20  C   UNL     1       1.657   8.864  19.076  0.00  0.00    +0.000 C 
ATOM     21  O   UNL     1       2.257   9.210  18.059  0.00  0.00    +0.000 OA
ATOM     22  H   UNL     1       1.237   7.390  20.452  0.00  0.00    +0.000 HD
BRANCH  19  23
ATOM     23  C   UNL     1       2.804   6.665  19.215  0.00  0.00    +0.000 C 
BRANCH  23  24
ATOM     24  C   UNL     1       2.175   5.275  19.277  0.00  0.00    +0.000 A 
ATOM     25  C   UNL     1       1.646   4.791  20.483  0.00  0.00    +0.000 A 
ATOM     26  C   UNL     1       1.099   3.506  20.559  0.00  0.00    +0.000 A 
ATOM     27  C   UNL     1       1.064   2.692  19.430  0.00  0.00    +0.000 A 
ATOM     28  C   UNL     1       1.569   3.162  18.221  0.00  0.00    +0.000 A 
ATOM     29  C   UNL     1       2.118   4.444  18.143  0.00  0.00    +0.000 A 
ENDBRANCH  23  24
BRANCH  23  31
ATOM     30  C   UNL     1       4.799   6.752  17.575  0.00  0.00    +0.000 C 
ATOM     31  C   UNL     1       3.307   6.959  17.784  0.00  0.00    +0.000 C 
ENDBRANCH  23  31
ENDBRANCH  19  23
ENDBRANCH   1  20
TORSDOF 6
ENDMDL
MODEL 7
REMARK VINA RESULT:      -7.9      1.690      2.876
REMARK  Name = 
REMARK  8 active torsions:
REMARK  status: ('A' for Active; 'I' for Inactive)
REMARK    1  A    between atoms: C_1  and  C_2
REMARK    2  A    between atoms: C_2  and  C_3
REMARK    3  A    between atoms: C_3  and  N_4
REMARK    4  A    between atoms: C_3  and  C_25
REMARK    5  A    between atoms: C_5  and  C_7
REMARK    6  A    between atoms: C_9  and  C_10
REMARK    7  A    between atoms: C_16  and  C_17
REMARK    8  A    between atoms: C_17  and  C_18
REMARK                            x       y       z     vdW  Elec       q    Type
REMARK                         _______ _______ _______ _____ _____    ______ ____
ROOT
ATOM      1  C   UNL     1       1.573   8.389  19.367  0.00  0.00    +0.000 A 
ATOM      2  C   UNL     1       0.909   9.178  18.388  0.00  0.00    +0.000 A 
ATOM      3  C   UNL     1       0.151  10.170  19.000  0.00  0.00    +0.000 A 
ATOM      4  N   UNL     1       0.301   9.942  20.359  0.00  0.00    +0.000 N 
ATOM      5  C   UNL     1       1.199   8.919  20.590  0.00  0.00    +0.000 A 
ATOM      6  C   UNL     1       1.568   8.479  21.973  0.00  0.00    +0.000 C 
ATOM      7  O   UNL     1       1.204   9.495  22.916  0.00  0.00    +0.000 OA
ATOM      8  C   UNL     1      -0.166   9.873  22.766  0.00  0.00    +0.000 C 
ATOM      9  C   UNL     1      -0.344  10.646  21.462  0.00  0.00    +0.000 C 
ENDROOT
BRANCH   3  10
ATOM     10  C   UNL     1      -0.720  11.176  18.387  0.00  0.00    +0.000 C 
ATOM     11  O   UNL     1      -0.532  12.380  18.561  0.00  0.00    +0.000 OA
ATOM     12  N   UNL     1      -1.792  10.741  17.604  0.00  0.00    +0.000 N 
ATOM     13  C   UNL     1      -1.998   9.420  17.045  0.00  0.00    +0.000 C 
ATOM     14  C   UNL     1      -2.629   9.682  15.693  0.00  0.00    +0.000 C 
ATOM     15  C   UNL     1      -3.478  10.922  15.925  0.00  0.00    +0.000 C 
ATOM     16  C   UNL     1      -2.812  11.669  17.098  0.00  0.00    +0.000 C 
BRANCH  16  17
ATOM     17  C   UNL     1      -3.837  12.013  18.195  0.00  0.00    +0.000 C 
ATOM     18  C   UNL     1      -5.177  11.308  18.021  0.00  0.00    +0.000 C 
ENDBRANCH  16  17
ENDBRANCH   3  10
BRANCH   1  20
ATOM     19  N   UNL     1       2.782   6.982  17.873  0.00  0.00    +0.000 N 
ATOM     20  C   UNL     1       2.418   7.217  19.179  0.00  0.00    +0.000 C 
ATOM     21  O   UNL     1       2.771   6.506  20.120  0.00  0.00    +0.000 OA
ATOM     22  H   UNL     1       2.549   7.671  17.175  0.00  0.00    +0.000 HD
BRANCH  19  23
ATOM     23  C   UNL     1       3.594   5.846  17.473  0.00  0.00    +0.000 C 
BRANCH  23  24
ATOM     24  C   UNL     1       5.050   6.111  17.846  0.00  0.00    +0.000 A 
ATOM     25  C   UNL     1       5.803   7.056  17.133  0.00  0.00    +0.000 A 
ATOM     26  C   UNL     1       7.148   7.281  17.443  0.00  0.00    +0.000 A 
ATOM     27  C   UNL     1       7.756   6.572  18.476  0.00  0.00    +0.000 A 
ATOM     28  C   UNL     1       7.020   5.641  19.205  0.00  0.00    +0.000 A 
ATOM     29  C   UNL     1       5.678   5.414  18.895  0.00  0.00    +0.000 A 
ENDBRANCH  23  24
BRANCH  23  31
ATOM     30  C   UNL     1       1.729   4.068  17.665  0.00  0.00    +0.000 C 
ATOM     31  C   UNL     1       3.117   4.516  18.098  0.00  0.00    +0.000 C 
ENDBRANCH  23  31
ENDBRANCH  19  23
ENDBRANCH   1  20
TORSDOF 6
ENDMDL
MODEL 8
REMARK VINA RESULT:      -7.8      1.762      2.594
REMARK  Name = 
REMARK  8 active torsions:
REMARK  status: ('A' for Active; 'I' for Inactive)
REMARK    1  A    between atoms: C_1  and  C_2
REMARK    2  A    between atoms: C_2  and  C_3
REMARK    3  A    between atoms: C_3  and  N_4
REMARK    4  A    between atoms: C_3  and  C_25
REMARK    5  A    between atoms: C_5  and  C_7
REMARK    6  A    between atoms: C_9  and  C_10
REMARK    7  A    between atoms: C_16  and  C_17
REMARK    8  A    between atoms: C_17  and  C_18
REMARK                            x       y       z     vdW  Elec       q    Type
REMARK                         _______ _______ _______ _____ _____    ______ ____
ROOT
ATOM      1  C   UNL     1       0.644   9.867  19.460  0.00  0.00    +0.000 A 
ATOM      2  C   UNL     1      -0.763   9.935  19.657  0.00  0.00    +0.000 A 
ATOM      3  C   UNL     1      -1.248  11.173  19.249  0.00  0.00    +0.000 A 
ATOM      4  N   UNL     1      -0.122  11.885  18.865  0.00  0.00    +0.000 N 
ATOM      5  C   UNL     1       1.007  11.093  18.929  0.00  0.00    +0.000 A 
ATOM      6  C   UNL     1       2.362  11.603  18.546  0.00  0.00    +0.000 C 
ATOM      7  O   UNL     1       2.224  12.795  17.761  0.00  0.00    +0.000 OA
ATOM      8  C   UNL     1       1.399  13.757  18.422  0.00  0.00    +0.000 C 
ATOM      9  C   UNL     1      -0.049  13.274  18.424  0.00  0.00    +0.000 C 
ENDROOT
BRANCH   3  10
ATOM     10  C   UNL     1      -2.617  11.691  19.305  0.00  0.00    +0.000 C 
ATOM     11  O   UNL     1      -2.997  12.401  20.235  0.00  0.00    +0.000 OA
ATOM     12  N   UNL     1      -3.502  11.350  18.279  0.00  0.00    +0.000 N 
ATOM     13  C   UNL     1      -3.175  10.796  16.981  0.00  0.00    +0.000 C 
ATOM     14  C   UNL     1      -4.167  11.447  16.038  0.00  0.00    +0.000 C 
ATOM     15  C   UNL     1      -5.421  11.601  16.883  0.00  0.00    +0.000 C 
ATOM     16  C   UNL     1      -4.931  11.678  18.343  0.00  0.00    +0.000 C 
BRANCH  16  17
ATOM     17  C   UNL     1      -5.686  10.679  19.240  0.00  0.00    +0.000 C 
ATOM     18  C   UNL     1      -6.655  11.342  20.212  0.00  0.00    +0.000 C 
ENDBRANCH  16  17
ENDBRANCH   3  10
BRANCH   1  20
ATOM     19  N   UNL     1       2.100   8.137  18.712  0.00  0.00    +0.000 N 
ATOM     20  C   UNL     1       1.565   8.790  19.799  0.00  0.00    +0.000 C 
ATOM     21  O   UNL     1       1.835   8.501  20.964  0.00  0.00    +0.000 OA
ATOM     22  H   UNL     1       1.920   8.505  17.790  0.00  0.00    +0.000 HD
BRANCH  19  23
ATOM     23  C   UNL     1       3.013   7.015  18.838  0.00  0.00    +0.000 C 
BRANCH  23  24
ATOM     24  C   UNL     1       2.211   5.732  19.038  0.00  0.00    +0.000 A 
ATOM     25  C   UNL     1       1.817   5.337  20.326  0.00  0.00    +0.000 A 
ATOM     26  C   UNL     1       1.112   4.145  20.524  0.00  0.00    +0.000 A 
ATOM     27  C   UNL     1       0.782   3.338  19.438  0.00  0.00    +0.000 A 
ATOM     28  C   UNL     1       1.150   3.722  18.151  0.00  0.00    +0.000 A 
ATOM     29  C   UNL     1       1.856   4.910  17.951  0.00  0.00    +0.000 A 
ENDBRANCH  23  24
BRANCH  23  31
ATOM     30  C   UNL     1       5.235   6.088  17.899  0.00  0.00    +0.000 C 
ATOM     31  C   UNL     1       3.958   6.868  17.625  0.00  0.00    +0.000 C 
ENDBRANCH  23  31
ENDBRANCH  19  23
ENDBRANCH   1  20
TORSDOF 6
ENDMDL
MODEL 9
REMARK VINA RESULT:      -7.8      2.606      4.291
REMARK  Name = 
REMARK  8 active torsions:
REMARK  status: ('A' for Active; 'I' for Inactive)
REMARK    1  A    between atoms: C_1  and  C_2
REMARK    2  A    between atoms: C_2  and  C_3
REMARK    3  A    between atoms: C_3  and  N_4
REMARK    4  A    between atoms: C_3  and  C_25
REMARK    5  A    between atoms: C_5  and  C_7
REMARK    6  A    between atoms: C_9  and  C_10
REMARK    7  A    between atoms: C_16  and  C_17
REMARK    8  A    between atoms: C_17  and  C_18
REMARK                            x       y       z     vdW  Elec       q    Type
REMARK                         _______ _______ _______ _____ _____    ______ ____
ROOT
ATOM      1  C   UNL     1       0.663   9.843  19.592  0.00  0.00    +0.000 A 
ATOM      2  C   UNL     1       0.786  10.496  20.849  0.00  0.00    +0.000 A 
ATOM      3  C   UNL     1      -0.313  11.319  21.075  0.00  0.00    +0.000 A 
ATOM      4  N   UNL     1      -1.074  11.217  19.921  0.00  0.00    +0.000 N 
ATOM      5  C   UNL     1      -0.531  10.289  19.054  0.00  0.00    +0.000 A 
ATOM      6  C   UNL     1      -1.166   9.962  17.737  0.00  0.00    +0.000 C 
ATOM      7  O   UNL     1      -2.529  10.406  17.735  0.00  0.00    +0.000 OA
ATOM      8  C   UNL     1      -2.625  11.783  18.107  0.00  0.00    +0.000 C 
ATOM      9  C   UNL     1      -2.300  11.935  19.591  0.00  0.00    +0.000 C 
ENDROOT
BRANCH   3  10
ATOM     10  C   UNL     1      -0.585  12.202  22.211  0.00  0.00    +0.000 C 
ATOM     11  O   UNL     1      -1.065  11.771  23.259  0.00  0.00    +0.000 OA
ATOM     12  N   UNL     1      -0.303  13.564  22.079  0.00  0.00    +0.000 N 
ATOM     13  C   UNL     1       0.520  14.201  21.071  0.00  0.00    +0.000 C 
ATOM     14  C   UNL     1       1.222  15.318  21.815  0.00  0.00    +0.000 C 
ATOM     15  C   UNL     1       0.195  15.770  22.840  0.00  0.00    +0.000 C 
ATOM     16  C   UNL     1      -0.705  14.544  23.096  0.00  0.00    +0.000 C 
BRANCH  16  17
ATOM     17  C   UNL     1      -2.196  14.905  22.955  0.00  0.00    +0.000 C 
ATOM     18  C   UNL     1      -2.447  16.138  22.095  0.00  0.00    +0.000 C 
ENDBRANCH  16  17
ENDBRANCH   3  10
BRANCH   1  20
ATOM     19  N   UNL     1       1.885   7.799  19.639  0.00  0.00    +0.000 N 
ATOM     20  C   UNL     1       1.602   8.945  18.931  0.00  0.00    +0.000 C 
ATOM     21  O   UNL     1       2.089   9.200  17.830  0.00  0.00    +0.000 OA
ATOM     22  H   UNL     1       1.361   7.607  20.478  0.00  0.00    +0.000 HD
BRANCH  19  23
ATOM     23  C   UNL     1       2.821   6.793  19.167  0.00  0.00    +0.000 C 
BRANCH  23  24
ATOM     24  C   UNL     1       2.182   5.413  19.288  0.00  0.00    +0.000 A 
ATOM     25  C   UNL     1       1.982   4.623  18.146  0.00  0.00    +0.000 A 
ATOM     26  C   UNL     1       1.365   3.371  18.241  0.00  0.00    +0.000 A 
ATOM     27  C   UNL     1       0.949   2.888  19.479  0.00  0.00    +0.000 A 
ATOM     28  C   UNL     1       1.155   3.651  20.626  0.00  0.00    +0.000 A 
ATOM     29  C   UNL     1       1.768   4.902  20.533  0.00  0.00    +0.000 A 
ENDBRANCH  23  24
BRANCH  23  31
ATOM     30  C   UNL     1       4.754   6.729  17.453  0.00  0.00    +0.000 C 
ATOM     31  C   UNL     1       3.288   7.040  17.716  0.00  0.00    +0.000 C 
ENDBRANCH  23  31
ENDBRANCH  19  23
ENDBRANCH   1  20
TORSDOF 6
ENDMDL
