MODEL 1
REMARK VINA RESULT:      -8.7      0.000      0.000
REMARK  Name = 
REMARK  8 active torsions:
REMARK  status: ('A' for Active; 'I' for Inactive)
REMARK    1  A    between atoms: C_1  and  C_2
REMARK    2  A    between atoms: C_2  and  C_3
REMARK    3  A    between atoms: C_2  and  C_20
REMARK    4  A    between atoms: N_5  and  C_6
REMARK    5  A    between atoms: C_6  and  C_7
REMARK    6  A    between atoms: C_7  and  O_8
REMARK    7  A    between atoms: O_8  and  C_9
REMARK    8  A    between atoms: C_23  and  C_24
REMARK                            x       y       z     vdW  Elec       q    Type
REMARK                         _______ _______ _______ _____ _____    ______ ____
ROOT
ATOM      1  C   UNL     1      -0.563  11.626  18.347  0.00  0.00    +0.000 C 
ATOM      2  O   UNL     1      -0.981  12.770  18.183  0.00  0.00    +0.000 OA
ATOM      3  N   UNL     1      -1.098  10.542  17.676  0.00  0.00    +0.000 N 
ATOM      4  H   UNL     1      -0.906   9.616  18.037  0.00  0.00    +0.000 HD
ENDROOT
BRANCH   1   6
ATOM      5  C   UNL     1       1.692  12.343  19.138  0.00  0.00    +0.000 C 
ATOM      6  C   UNL     1       0.598  11.286  19.289  0.00  0.00    +0.000 C 
BRANCH   6   7
ATOM      7  C   UNL     1       1.185   9.899  19.075  0.00  0.00    +0.000 A 
ATOM      8  C   UNL     1       1.882   9.539  17.918  0.00  0.00    +0.000 A 
ATOM      9  C   UNL     1       2.460   8.267  17.787  0.00  0.00    +0.000 A 
ATOM     10  C   UNL     1       2.393   7.310  18.817  0.00  0.00    +0.000 A 
ATOM     11  C   UNL     1       1.710   7.701  19.980  0.00  0.00    +0.000 A 
ATOM     12  F   UNL     1       1.625   6.878  21.038  0.00  0.00    +0.000 F 
ATOM     13  C   UNL     1       1.110   8.957  20.109  0.00  0.00    +0.000 A 
BRANCH  10  14
ATOM     14  C   UNL     1       3.009   5.968  18.663  0.00  0.00    +0.000 A 
ATOM     15  C   UNL     1       4.230   5.639  19.290  0.00  0.00    +0.000 A 
ATOM     16  C   UNL     1       4.825   4.384  19.119  0.00  0.00    +0.000 A 
ATOM     17  C   UNL     1       4.206   3.417  18.335  0.00  0.00    +0.000 A 
ATOM     18  C   UNL     1       2.995   3.707  17.716  0.00  0.00    +0.000 A 
ATOM     19  C   UNL     1       2.413   4.969  17.874  0.00  0.00    +0.000 A 
ENDBRANCH  10  14
ENDBRANCH   6   7
ENDBRANCH   1   6
BRANCH   3  20
ATOM     20  C   UNL     1      -2.256  10.720  16.816  0.00  0.00    +0.000 C 
BRANCH  20  21
ATOM     21  C   UNL     1      -3.523  10.119  17.415  0.00  0.00    +0.000 C 
BRANCH  21  22
ATOM     22  O   UNL     1      -4.593  11.059  17.283  0.00  0.00    +0.000 OA
BRANCH  22  23
ATOM     23  C   UNL     1      -5.245  11.350  18.451  0.00  0.00    +0.000 A 
ATOM     24  C   UNL     1      -6.537  10.828  18.577  0.00  0.00    +0.000 A 
ATOM     25  C   UNL     1      -7.294  11.071  19.732  0.00  0.00    +0.000 A 
ATOM     26  C   UNL     1      -6.763  11.849  20.761  0.00  0.00    +0.000 A 
ATOM     27  C   UNL     1      -7.491  12.128  21.986  0.00  0.00    +0.000 A 
ATOM     28  C   UNL     1      -6.918  12.872  22.939  0.00  0.00    +0.000 A 
ATOM     29  C   UNL     1      -5.563  13.431  22.797  0.00  0.00    +0.000 A 
ATOM     30  O   UNL     1      -5.063  14.097  23.697  0.00  0.00    +0.000 OA
ATOM     31  O   UNL     1      -4.897  13.173  21.611  0.00  0.00    +0.000 OA
ATOM     32  C   UNL     1      -5.485  12.378  20.607  0.00  0.00    +0.000 A 
ATOM     33  C   UNL     1      -4.723  12.149  19.465  0.00  0.00    +0.000 A 
ENDBRANCH  22  23
ENDBRANCH  21  22
ENDBRANCH  20  21
ENDBRANCH   3  20
TORSDOF 7
ENDMDL
MODEL 2
REMARK VINA RESULT:      -8.6      5.027     10.496
REMARK  Name = 
REMARK  8 active torsions:
REMARK  status: ('A' for Active; 'I' for Inactive)
REMARK    1  A    between atoms: C_1  and  C_2
REMARK    2  A    between atoms: C_2  and  C_3
REMARK    3  A    between atoms: C_2  and  C_20
REMARK    4  A    between atoms: N_5  and  C_6
REMARK    5  A    between atoms: C_6  and  C_7
REMARK    6  A    between atoms: C_7  and  O_8
REMARK    7  A    between atoms: O_8  and  C_9
REMARK    8  A    between atoms: C_23  and  C_24
REMARK                            x       y       z     vdW  Elec       q    Type
REMARK                         _______ _______ _______ _____ _____    ______ ____
ROOT
ATOM      1  C   UNL     1       2.545   6.340  19.719  0.00  0.00    +0.000 C 
ATOM      2  O   UNL     1       3.758   6.165  19.809  0.00  0.00    +0.000 OA
ATOM      3  N   UNL     1       1.635   5.583  20.432  0.00  0.00    +0.000 N 
ATOM      4  H   UNL     1       0.670   5.585  20.127  0.00  0.00    +0.000 HD
ENDROOT
BRANCH   1   6
ATOM      5  C   UNL     1       2.969   7.923  17.837  0.00  0.00    +0.000 C 
ATOM      6  C   UNL     1       1.919   7.420  18.828  0.00  0.00    +0.000 C 
BRANCH   6   7
ATOM      7  C   UNL     1       1.328   8.593  19.595  0.00  0.00    +0.000 A 
ATOM      8  C   UNL     1       0.665   9.654  18.969  0.00  0.00    +0.000 A 
ATOM      9  C   UNL     1       0.082  10.686  19.720  0.00  0.00    +0.000 A 
ATOM     10  C   UNL     1       0.109  10.689  21.126  0.00  0.00    +0.000 A 
ATOM     11  C   UNL     1       0.758   9.602  21.735  0.00  0.00    +0.000 A 
ATOM     12  F   UNL     1       0.802   9.489  23.072  0.00  0.00    +0.000 F 
ATOM     13  C   UNL     1       1.363   8.582  20.994  0.00  0.00    +0.000 A 
BRANCH  10  14
ATOM     14  C   UNL     1      -0.512  11.790  21.906  0.00  0.00    +0.000 A 
ATOM     15  C   UNL     1       0.002  13.104  21.867  0.00  0.00    +0.000 A 
ATOM     16  C   UNL     1      -0.564  14.133  22.626  0.00  0.00    +0.000 A 
ATOM     17  C   UNL     1      -1.672  13.883  23.429  0.00  0.00    +0.000 A 
ATOM     18  C   UNL     1      -2.208  12.602  23.477  0.00  0.00    +0.000 A 
ATOM     19  C   UNL     1      -1.629  11.571  22.731  0.00  0.00    +0.000 A 
ENDBRANCH  10  14
ENDBRANCH   6   7
ENDBRANCH   1   6
BRANCH   3  20
ATOM     20  C   UNL     1       2.096   4.474  21.250  0.00  0.00    +0.000 C 
BRANCH  20  21
ATOM     21  C   UNL     1       1.293   3.201  21.009  0.00  0.00    +0.000 C 
BRANCH  21  22
ATOM     22  O   UNL     1       2.117   2.252  20.325  0.00  0.00    +0.000 OA
BRANCH  22  23
ATOM     23  C   UNL     1       2.834   2.767  19.280  0.00  0.00    +0.000 A 
ATOM     24  C   UNL     1       2.131   2.945  18.083  0.00  0.00    +0.000 A 
ATOM     25  C   UNL     1       2.773   3.463  16.949  0.00  0.00    +0.000 A 
ATOM     26  C   UNL     1       4.128   3.791  17.007  0.00  0.00    +0.000 A 
ATOM     27  C   UNL     1       4.848   4.340  15.871  0.00  0.00    +0.000 A 
ATOM     28  C   UNL     1       6.144   4.645  15.997  0.00  0.00    +0.000 A 
ATOM     29  C   UNL     1       6.885   4.444  17.254  0.00  0.00    +0.000 A 
ATOM     30  O   UNL     1       8.069   4.748  17.338  0.00  0.00    +0.000 OA
ATOM     31  O   UNL     1       6.184   3.896  18.316  0.00  0.00    +0.000 OA
ATOM     32  C   UNL     1       4.815   3.585  18.199  0.00  0.00    +0.000 A 
ATOM     33  C   UNL     1       4.192   3.069  19.331  0.00  0.00    +0.000 A 
ENDBRANCH  22  23
ENDBRANCH  21  22
ENDBRANCH  20  21
ENDBRANCH   3  20
TORSDOF 7
ENDMDL
MODEL 3
REMARK VINA RESULT:      -8.6      6.427     11.552
REMARK  Name = 
REMARK  8 active torsions:
REMARK  status: ('A' for Active; 'I' for Inactive)
REMARK    1  A    between atoms: C_1  and  C_2
REMARK    2  A    between atoms: C_2  and  C_3
REMARK    3  A    between atoms: C_2  and  C_20
REMARK    4  A    between atoms: N_5  and  C_6
REMARK    5  A    between atoms: C_6  and  C_7
REMARK    6  A    between atoms: C_7  and  O_8
REMARK    7  A    between atoms: O_8  and  C_9
REMARK    8  A    between atoms: C_23  and  C_24
REMARK                            x       y       z     vdW  Elec       q    Type
REMARK                         _______ _______ _______ _____ _____    ______ ____
ROOT
ATOM      1  C   UNL     1       5.920   5.876  17.405  0.00  0.00    +0.000 C 
ATOM      2  O   UNL     1       6.420   5.337  16.420  0.00  0.00    +0.000 OA
ATOM      3  N   UNL     1       6.503   6.965  18.025  0.00  0.00    +0.000 N 
ATOM      4  H   UNL     1       6.203   7.196  18.964  0.00  0.00    +0.000 HD
ENDROOT
BRANCH   1   6
ATOM      5  C   UNL     1       3.932   4.399  17.104  0.00  0.00    +0.000 C 
ATOM      6  C   UNL     1       4.599   5.415  18.031  0.00  0.00    +0.000 C 
BRANCH   6   7
ATOM      7  C   UNL     1       3.631   6.545  18.342  0.00  0.00    +0.000 A 
ATOM      8  C   UNL     1       3.283   7.527  17.408  0.00  0.00    +0.000 A 
ATOM      9  C   UNL     1       2.339   8.518  17.718  0.00  0.00    +0.000 A 
ATOM     10  C   UNL     1       1.679   8.555  18.960  0.00  0.00    +0.000 A 
ATOM     11  C   UNL     1       2.025   7.546  19.873  0.00  0.00    +0.000 A 
ATOM     12  F   UNL     1       1.422   7.466  21.071  0.00  0.00    +0.000 F 
ATOM     13  C   UNL     1       2.982   6.569  19.583  0.00  0.00    +0.000 A 
BRANCH  10  14
ATOM     14  C   UNL     1       0.684   9.611  19.272  0.00  0.00    +0.000 A 
ATOM     15  C   UNL     1       0.666  10.263  20.524  0.00  0.00    +0.000 A 
ATOM     16  C   UNL     1      -0.292  11.236  20.829  0.00  0.00    +0.000 A 
ATOM     17  C   UNL     1      -1.245  11.599  19.884  0.00  0.00    +0.000 A 
ATOM     18  C   UNL     1      -1.244  10.985  18.638  0.00  0.00    +0.000 A 
ATOM     19  C   UNL     1      -0.297   9.999  18.343  0.00  0.00    +0.000 A 
ENDBRANCH  10  14
ENDBRANCH   6   7
ENDBRANCH   1   6
BRANCH   3  20
ATOM     20  C   UNL     1       7.799   7.449  17.577  0.00  0.00    +0.000 C 
BRANCH  20  21
ATOM     21  C   UNL     1       8.008   8.926  17.892  0.00  0.00    +0.000 C 
BRANCH  21  22
ATOM     22  O   UNL     1       8.952   9.046  18.960  0.00  0.00    +0.000 OA
BRANCH  22  23
ATOM     23  C   UNL     1       9.388  10.322  19.197  0.00  0.00    +0.000 A 
ATOM     24  C   UNL     1       9.407  10.723  20.537  0.00  0.00    +0.000 A 
ATOM     25  C   UNL     1       9.832  12.012  20.889  0.00  0.00    +0.000 A 
ATOM     26  C   UNL     1      10.227  12.909  19.896  0.00  0.00    +0.000 A 
ATOM     27  C   UNL     1      10.686  14.254  20.195  0.00  0.00    +0.000 A 
ATOM     28  C   UNL     1      11.062  15.060  19.196  0.00  0.00    +0.000 A 
ATOM     29  C   UNL     1      11.028  14.639  17.785  0.00  0.00    +0.000 A 
ATOM     30  O   UNL     1      11.393  15.400  16.896  0.00  0.00    +0.000 OA
ATOM     31  O   UNL     1      10.562  13.362  17.522  0.00  0.00    +0.000 OA
ATOM     32  C   UNL     1      10.178  12.499  18.567  0.00  0.00    +0.000 A 
ATOM     33  C   UNL     1       9.756  11.224  18.203  0.00  0.00    +0.000 A 
ENDBRANCH  22  23
ENDBRANCH  21  22
ENDBRANCH  20  21
ENDBRANCH   3  20
TORSDOF 7
ENDMDL
MODEL 4
REMARK VINA RESULT:      -8.4      5.855     11.164
REMARK  Name = 
REMARK  8 active torsions:
REMARK  status: ('A' for Active; 'I' for Inactive)
REMARK    1  A    between atoms: C_1  and  C_2
REMARK    2  A    between atoms: C_2  and  C_3
REMARK    3  A    between atoms: C_2  and  C_20
REMARK    4  A    between atoms: N_5  and  C_6
REMARK    5  A    between atoms: C_6  and  C_7
REMARK    6  A    between atoms: C_7  and  O_8
REMARK    7  A    between atoms: O_8  and  C_9
REMARK    8  A    between atoms: C_23  and  C_24
REMARK                            x       y       z     vdW  Elec       q    Type
REMARK                         _______ _______ _______ _____ _____    ______ ____
ROOT
ATOM      1  C   UNL     1       4.756   5.788  17.411  0.00  0.00    +0.000 C 
ATOM      2  O   UNL     1       4.847   5.289  16.292  0.00  0.00    +0.000 OA
ATOM      3  N   UNL     1       5.737   6.609  17.935  0.00  0.00    +0.000 N 
ATOM      4  H   UNL     1       5.740   6.771  18.934  0.00  0.00    +0.000 HD
ENDROOT
BRANCH   1   6
ATOM      5  C   UNL     1       2.601   4.558  17.681  0.00  0.00    +0.000 C 
ATOM      6  C   UNL     1       3.547   5.571  18.328  0.00  0.00    +0.000 C 
BRANCH   6   7
ATOM      7  C   UNL     1       2.786   6.845  18.665  0.00  0.00    +0.000 A 
ATOM      8  C   UNL     1       2.486   7.826  17.713  0.00  0.00    +0.000 A 
ATOM      9  C   UNL     1       1.731   8.957  18.055  0.00  0.00    +0.000 A 
ATOM     10  C   UNL     1       1.216   9.146  19.351  0.00  0.00    +0.000 A 
ATOM     11  C   UNL     1       1.509   8.137  20.284  0.00  0.00    +0.000 A 
ATOM     12  F   UNL     1       1.029   8.200  21.537  0.00  0.00    +0.000 F 
ATOM     13  C   UNL     1       2.281   7.018  19.959  0.00  0.00    +0.000 A 
BRANCH  10  14
ATOM     14  C   UNL     1       0.419  10.349  19.697  0.00  0.00    +0.000 A 
ATOM     15  C   UNL     1      -0.849  10.586  19.124  0.00  0.00    +0.000 A 
ATOM     16  C   UNL     1      -1.586  11.736  19.426  0.00  0.00    +0.000 A 
ATOM     17  C   UNL     1      -1.085  12.671  20.325  0.00  0.00    +0.000 A 
ATOM     18  C   UNL     1       0.155  12.459  20.916  0.00  0.00    +0.000 A 
ATOM     19  C   UNL     1       0.897  11.317  20.597  0.00  0.00    +0.000 A 
ENDBRANCH  10  14
ENDBRANCH   6   7
ENDBRANCH   1   6
BRANCH   3  20
ATOM     20  C   UNL     1       6.971   6.828  17.198  0.00  0.00    +0.000 C 
BRANCH  20  21
ATOM     21  C   UNL     1       7.926   7.764  17.929  0.00  0.00    +0.000 C 
BRANCH  21  22
ATOM     22  O   UNL     1       7.784   9.084  17.398  0.00  0.00    +0.000 OA
BRANCH  22  23
ATOM     23  C   UNL     1       8.465  10.053  18.085  0.00  0.00    +0.000 A 
ATOM     24  C   UNL     1       9.048   9.652  19.293  0.00  0.00    +0.000 A 
ATOM     25  C   UNL     1       9.764  10.568  20.077  0.00  0.00    +0.000 A 
ATOM     26  C   UNL     1       9.888  11.893  19.659  0.00  0.00    +0.000 A 
ATOM     27  C   UNL     1      10.624  12.887  20.420  0.00  0.00    +0.000 A 
ATOM     28  C   UNL     1      10.715  14.138  19.956  0.00  0.00    +0.000 A 
ATOM     29  C   UNL     1      10.089  14.560  18.692  0.00  0.00    +0.000 A 
ATOM     30  O   UNL     1      10.204  15.712  18.290  0.00  0.00    +0.000 OA
ATOM     31  O   UNL     1       9.370  13.602  17.996  0.00  0.00    +0.000 OA
ATOM     32  C   UNL     1       9.282  12.278  18.467  0.00  0.00    +0.000 A 
ATOM     33  C   UNL     1       8.565  11.381  17.680  0.00  0.00    +0.000 A 
ENDBRANCH  22  23
ENDBRANCH  21  22
ENDBRANCH  20  21
ENDBRANCH   3  20
TORSDOF 7
ENDMDL
MODEL 5
REMARK VINA RESULT:      -8.3      5.163     11.379
REMARK  Name = 
REMARK  8 active torsions:
REMARK  status: ('A' for Active; 'I' for Inactive)
REMARK    1  A    between atoms: C_1  and  C_2
REMARK    2  A    between atoms: C_2  and  C_3
REMARK    3  A    between atoms: C_2  and  C_20
REMARK    4  A    between atoms: N_5  and  C_6
REMARK    5  A    between atoms: C_6  and  C_7
REMARK    6  A    between atoms: C_7  and  O_8
REMARK    7  A    between atoms: O_8  and  C_9
REMARK    8  A    between atoms: C_23  and  C_24
REMARK                            x       y       z     vdW  Elec       q    Type
REMARK                         _______ _______ _______ _____ _____    ______ ____
ROOT
ATOM      1  C   UNL     1       2.456   5.853  18.647  0.00  0.00    +0.000 C 
ATOM      2  O   UNL     1       1.711   4.923  18.344  0.00  0.00    +0.000 OA
ATOM      3  N   UNL     1       3.461   5.716  19.586  0.00  0.00    +0.000 N 
ATOM      4  H   UNL     1       3.859   6.558  19.984  0.00  0.00    +0.000 HD
ENDROOT
BRANCH   1   6
ATOM      5  C   UNL     1       3.761   7.701  17.595  0.00  0.00    +0.000 C 
ATOM      6  C   UNL     1       2.362   7.243  18.007  0.00  0.00    +0.000 C 
BRANCH   6   7
ATOM      7  C   UNL     1       1.715   8.294  18.897  0.00  0.00    +0.000 A 
ATOM      8  C   UNL     1       1.546   8.123  20.275  0.00  0.00    +0.000 A 
ATOM      9  C   UNL     1       0.999   9.143  21.068  0.00  0.00    +0.000 A 
ATOM     10  C   UNL     1       0.625  10.387  20.528  0.00  0.00    +0.000 A 
ATOM     11  C   UNL     1       0.827  10.546  19.146  0.00  0.00    +0.000 A 
ATOM     12  F   UNL     1       0.543  11.710  18.539  0.00  0.00    +0.000 F 
ATOM     13  C   UNL     1       1.348   9.527  18.344  0.00  0.00    +0.000 A 
BRANCH  10  14
ATOM     14  C   UNL     1       0.047  11.456  21.380  0.00  0.00    +0.000 A 
ATOM     15  C   UNL     1      -0.975  11.183  22.315  0.00  0.00    +0.000 A 
ATOM     16  C   UNL     1      -1.542  12.196  23.096  0.00  0.00    +0.000 A 
ATOM     17  C   UNL     1      -1.089  13.506  22.979  0.00  0.00    +0.000 A 
ATOM     18  C   UNL     1      -0.074  13.802  22.077  0.00  0.00    +0.000 A 
ATOM     19  C   UNL     1       0.478  12.791  21.285  0.00  0.00    +0.000 A 
ENDBRANCH  10  14
ENDBRANCH   6   7
ENDBRANCH   1   6
BRANCH   3  20
ATOM     20  C   UNL     1       3.602   4.472  20.323  0.00  0.00    +0.000 C 
BRANCH  20  21
ATOM     21  C   UNL     1       4.641   3.544  19.702  0.00  0.00    +0.000 C 
BRANCH  21  22
ATOM     22  O   UNL     1       5.694   4.332  19.141  0.00  0.00    +0.000 OA
BRANCH  22  23
ATOM     23  C   UNL     1       5.792   4.267  17.777  0.00  0.00    +0.000 A 
ATOM     24  C   UNL     1       4.832   3.478  17.131  0.00  0.00    +0.000 A 
ATOM     25  C   UNL     1       4.845   3.341  15.736  0.00  0.00    +0.000 A 
ATOM     26  C   UNL     1       5.827   3.984  14.983  0.00  0.00    +0.000 A 
ATOM     27  C   UNL     1       5.889   3.890  13.535  0.00  0.00    +0.000 A 
ATOM     28  C   UNL     1       6.850   4.542  12.872  0.00  0.00    +0.000 A 
ATOM     29  C   UNL     1       7.866   5.361  13.556  0.00  0.00    +0.000 A 
ATOM     30  O   UNL     1       8.725   5.956  12.915  0.00  0.00    +0.000 OA
ATOM     31  O   UNL     1       7.803   5.415  14.938  0.00  0.00    +0.000 OA
ATOM     32  C   UNL     1       6.786   4.745  15.645  0.00  0.00    +0.000 A 
ATOM     33  C   UNL     1       6.788   4.888  17.029  0.00  0.00    +0.000 A 
ENDBRANCH  22  23
ENDBRANCH  21  22
ENDBRANCH  20  21
ENDBRANCH   3  20
TORSDOF 7
ENDMDL
MODEL 6
REMARK VINA RESULT:      -8.3      6.280     11.468
REMARK  Name = 
REMARK  8 active torsions:
REMARK  status: ('A' for Active; 'I' for Inactive)
REMARK    1  A    between atoms: C_1  and  C_2
REMARK    2  A    between atoms: C_2  and  C_3
REMARK    3  A    between atoms: C_2  and  C_20
REMARK    4  A    between atoms: N_5  and  C_6
REMARK    5  A    between atoms: C_6  and  C_7
REMARK    6  A    between atoms: C_7  and  O_8
REMARK    7  A    between atoms: O_8  and  C_9
REMARK    8  A    between atoms: C_23  and  C_24
REMARK                            x       y       z     vdW  Elec       q    Type
REMARK                         _______ _______ _______ _____ _____    ______ ____
ROOT
ATOM      1  C   UNL     1       5.811   5.867  18.532  0.00  0.00    +0.000 C 
ATOM      2  O   UNL     1       6.404   5.535  19.556  0.00  0.00    +0.000 OA
ATOM      3  N   UNL     1       6.420   6.598  17.531  0.00  0.00    +0.000 N 
ATOM      4  H   UNL     1       5.829   7.063  16.853  0.00  0.00    +0.000 HD
ENDROOT
BRANCH   1   6
ATOM      5  C   UNL     1       4.193   5.163  16.767  0.00  0.00    +0.000 C 
ATOM      6  C   UNL     1       4.351   5.491  18.252  0.00  0.00    +0.000 C 
BRANCH   6   7
ATOM      7  C   UNL     1       3.346   6.558  18.655  0.00  0.00    +0.000 A 
ATOM      8  C   UNL     1       2.677   6.548  19.884  0.00  0.00    +0.000 A 
ATOM      9  C   UNL     1       1.802   7.586  20.239  0.00  0.00    +0.000 A 
ATOM     10  C   UNL     1       1.579   8.692  19.400  0.00  0.00    +0.000 A 
ATOM     11  C   UNL     1       2.279   8.695  18.182  0.00  0.00    +0.000 A 
ATOM     12  F   UNL     1       2.169   9.725  17.328  0.00  0.00    +0.000 F 
ATOM     13  C   UNL     1       3.134   7.653  17.808  0.00  0.00    +0.000 A 
BRANCH  10  14
ATOM     14  C   UNL     1       0.649   9.782  19.791  0.00  0.00    +0.000 A 
ATOM     15  C   UNL     1      -0.469  10.118  18.999  0.00  0.00    +0.000 A 
ATOM     16  C   UNL     1      -1.328  11.165  19.351  0.00  0.00    +0.000 A 
ATOM     17  C   UNL     1      -1.103  11.891  20.516  0.00  0.00    +0.000 A 
ATOM     18  C   UNL     1      -0.018  11.574  21.323  0.00  0.00    +0.000 A 
ATOM     19  C   UNL     1       0.849  10.539  20.958  0.00  0.00    +0.000 A 
ENDBRANCH  10  14
ENDBRANCH   6   7
ENDBRANCH   1   6
BRANCH   3  20
ATOM     20  C   UNL     1       7.778   7.086  17.711  0.00  0.00    +0.000 C 
BRANCH  20  21
ATOM     21  C   UNL     1       7.821   8.573  18.044  0.00  0.00    +0.000 C 
BRANCH  21  22
ATOM     22  O   UNL     1       8.929   8.825  18.913  0.00  0.00    +0.000 OA
BRANCH  22  23
ATOM     23  C   UNL     1       9.220  10.150  19.099  0.00  0.00    +0.000 A 
ATOM     24  C   UNL     1       9.043  10.639  20.398  0.00  0.00    +0.000 A 
ATOM     25  C   UNL     1       9.308  11.983  20.696  0.00  0.00    +0.000 A 
ATOM     26  C   UNL     1       9.739  12.846  19.689  0.00  0.00    +0.000 A 
ATOM     27  C   UNL     1      10.040  14.246  19.934  0.00  0.00    +0.000 A 
ATOM     28  C   UNL     1      10.462  15.016  18.925  0.00  0.00    +0.000 A 
ATOM     29  C   UNL     1      10.635  14.501  17.556  0.00  0.00    +0.000 A 
ATOM     30  O   UNL     1      11.037  15.233  16.659  0.00  0.00    +0.000 OA
ATOM     31  O   UNL     1      10.317  13.171  17.340  0.00  0.00    +0.000 OA
ATOM     32  C   UNL     1       9.887  12.347  18.398  0.00  0.00    +0.000 A 
ATOM     33  C   UNL     1       9.625  11.016  18.087  0.00  0.00    +0.000 A 
ENDBRANCH  22  23
ENDBRANCH  21  22
ENDBRANCH  20  21
ENDBRANCH   3  20
TORSDOF 7
ENDMDL
MODEL 7
REMARK VINA RESULT:      -8.3      6.284     11.340
REMARK  Name = 
REMARK  8 active torsions:
REMARK  status: ('A' for Active; 'I' for Inactive)
REMARK    1  A    between atoms: C_1  and  C_2
REMARK    2  A    between atoms: C_2  and  C_3
REMARK    3  A    between atoms: C_2  and  C_20
REMARK    4  A    between atoms: N_5  and  C_6
REMARK    5  A    between atoms: C_6  and  C_7
REMARK    6  A    between atoms: C_7  and  O_8
REMARK    7  A    between atoms: O_8  and  C_9
REMARK    8  A    between atoms: C_23  and  C_24
REMARK                            x       y       z     vdW  Elec       q    Type
REMARK                         _______ _______ _______ _____ _____    ______ ____
ROOT
ATOM      1  C   UNL     1       5.718   5.634  18.747  0.00  0.00    +0.000 C 
ATOM      2  O   UNL     1       6.346   5.405  19.778  0.00  0.00    +0.000 OA
ATOM      3  N   UNL     1       6.290   6.262  17.657  0.00  0.00    +0.000 N 
ATOM      4  H   UNL     1       5.675   6.657  16.957  0.00  0.00    +0.000 HD
ENDROOT
BRANCH   1   6
ATOM      5  C   UNL     1       4.044   4.756  17.117  0.00  0.00    +0.000 C 
ATOM      6  C   UNL     1       4.250   5.233  18.555  0.00  0.00    +0.000 C 
BRANCH   6   7
ATOM      7  C   UNL     1       3.256   6.336  18.882  0.00  0.00    +0.000 A 
ATOM      8  C   UNL     1       2.562   6.400  20.095  0.00  0.00    +0.000 A 
ATOM      9  C   UNL     1       1.699   7.469  20.379  0.00  0.00    +0.000 A 
ATOM     10  C   UNL     1       1.513   8.535  19.480  0.00  0.00    +0.000 A 
ATOM     11  C   UNL     1       2.239   8.464  18.279  0.00  0.00    +0.000 A 
ATOM     12  F   UNL     1       2.165   9.451  17.372  0.00  0.00    +0.000 F 
ATOM     13  C   UNL     1       3.082   7.391  17.977  0.00  0.00    +0.000 A 
BRANCH  10  14
ATOM     14  C   UNL     1       0.596   9.659  19.795  0.00  0.00    +0.000 A 
ATOM     15  C   UNL     1       0.673  10.355  21.020  0.00  0.00    +0.000 A 
ATOM     16  C   UNL     1      -0.212  11.393  21.329  0.00  0.00    +0.000 A 
ATOM     17  C   UNL     1      -1.186  11.777  20.415  0.00  0.00    +0.000 A 
ATOM     18  C   UNL     1      -1.278  11.119  19.194  0.00  0.00    +0.000 A 
ATOM     19  C   UNL     1      -0.404  10.070  18.896  0.00  0.00    +0.000 A 
ENDBRANCH  10  14
ENDBRANCH   6   7
ENDBRANCH   1   6
BRANCH   3  20
ATOM     20  C   UNL     1       7.652   6.765  17.742  0.00  0.00    +0.000 C 
BRANCH  20  21
ATOM     21  C   UNL     1       7.723   8.279  17.574  0.00  0.00    +0.000 C 
BRANCH  21  22
ATOM     22  O   UNL     1       8.561   8.823  18.598  0.00  0.00    +0.000 OA
BRANCH  22  23
ATOM     23  C   UNL     1       8.812  10.163  18.478  0.00  0.00    +0.000 A 
ATOM     24  C   UNL     1       7.910  10.887  17.690  0.00  0.00    +0.000 A 
ATOM     25  C   UNL     1       8.079  12.266  17.498  0.00  0.00    +0.000 A 
ATOM     26  C   UNL     1       9.160  12.922  18.087  0.00  0.00    +0.000 A 
ATOM     27  C   UNL     1       9.385  14.349  17.935  0.00  0.00    +0.000 A 
ATOM     28  C   UNL     1      10.435  14.919  18.537  0.00  0.00    +0.000 A 
ATOM     29  C   UNL     1      11.389  14.151  19.356  0.00  0.00    +0.000 A 
ATOM     30  O   UNL     1      12.333  14.709  19.904  0.00  0.00    +0.000 OA
ATOM     31  O   UNL     1      11.170  12.789  19.465  0.00  0.00    +0.000 OA
ATOM     32  C   UNL     1      10.058  12.181  18.848  0.00  0.00    +0.000 A 
ATOM     33  C   UNL     1       9.906  10.811  19.045  0.00  0.00    +0.000 A 
ENDBRANCH  22  23
ENDBRANCH  21  22
ENDBRANCH  20  21
ENDBRANCH   3  20
TORSDOF 7
ENDMDL
MODEL 8
REMARK VINA RESULT:      -8.3      6.336     11.339
REMARK  Name = 
REMARK  8 active torsions:
REMARK  status: ('A' for Active; 'I' for Inactive)
REMARK    1  A    between atoms: C_1  and  C_2
REMARK    2  A    between atoms: C_2  and  C_3
REMARK    3  A    between atoms: C_2  and  C_20
REMARK    4  A    between atoms: N_5  and  C_6
REMARK    5  A    between atoms: C_6  and  C_7
REMARK    6  A    between atoms: C_7  and  O_8
REMARK    7  A    between atoms: O_8  and  C_9
REMARK    8  A    between atoms: C_23  and  C_24
REMARK                            x       y       z     vdW  Elec       q    Type
REMARK                         _______ _______ _______ _____ _____    ______ ____
ROOT
ATOM      1  C   UNL     1       5.658   6.188  17.247  0.00  0.00    +0.000 C 
ATOM      2  O   UNL     1       5.795   6.286  16.030  0.00  0.00    +0.000 OA
ATOM      3  N   UNL     1       6.602   6.667  18.136  0.00  0.00    +0.000 N 
ATOM      4  H   UNL     1       6.571   6.331  19.091  0.00  0.00    +0.000 HD
ENDROOT
BRANCH   1   6
ATOM      5  C   UNL     1       3.766   4.596  16.906  0.00  0.00    +0.000 C 
ATOM      6  C   UNL     1       4.428   5.549  17.902  0.00  0.00    +0.000 C 
BRANCH   6   7
ATOM      7  C   UNL     1       3.405   6.552  18.415  0.00  0.00    +0.000 A 
ATOM      8  C   UNL     1       2.781   6.432  19.661  0.00  0.00    +0.000 A 
ATOM      9  C   UNL     1       1.888   7.412  20.120  0.00  0.00    +0.000 A 
ATOM     10  C   UNL     1       1.602   8.568  19.371  0.00  0.00    +0.000 A 
ATOM     11  C   UNL     1       2.258   8.680  18.133  0.00  0.00    +0.000 A 
ATOM     12  F   UNL     1       2.087   9.765  17.360  0.00  0.00    +0.000 F 
ATOM     13  C   UNL     1       3.131   7.697  17.657  0.00  0.00    +0.000 A 
BRANCH  10  14
ATOM     14  C   UNL     1       0.654   9.596  19.870  0.00  0.00    +0.000 A 
ATOM     15  C   UNL     1      -0.401  10.080  19.067  0.00  0.00    +0.000 A 
ATOM     16  C   UNL     1      -1.275  11.070  19.527  0.00  0.00    +0.000 A 
ATOM     17  C   UNL     1      -1.132  11.590  20.809  0.00  0.00    +0.000 A 
ATOM     18  C   UNL     1      -0.111  11.122  21.628  0.00  0.00    +0.000 A 
ATOM     19  C   UNL     1       0.773  10.145  21.159  0.00  0.00    +0.000 A 
ENDBRANCH  10  14
ENDBRANCH   6   7
ENDBRANCH   1   6
BRANCH   3  20
ATOM     20  C   UNL     1       7.851   7.222  17.641  0.00  0.00    +0.000 C 
BRANCH  20  21
ATOM     21  C   UNL     1       7.943   8.728  17.856  0.00  0.00    +0.000 C 
BRANCH  21  22
ATOM     22  O   UNL     1       8.804   8.989  18.968  0.00  0.00    +0.000 OA
BRANCH  22  23
ATOM     23  C   UNL     1       9.251  10.280  19.055  0.00  0.00    +0.000 A 
ATOM     24  C   UNL     1       9.723  10.845  17.865  0.00  0.00    +0.000 A 
ATOM     25  C   UNL     1      10.208  12.161  17.844  0.00  0.00    +0.000 A 
ATOM     26  C   UNL     1      10.234  12.911  19.020  0.00  0.00    +0.000 A 
ATOM     27  C   UNL     1      10.714  14.280  19.063  0.00  0.00    +0.000 A 
ATOM     28  C   UNL     1      10.699  14.948  20.222  0.00  0.00    +0.000 A 
ATOM     29  C   UNL     1      10.214  14.346  21.475  0.00  0.00    +0.000 A 
ATOM     30  O   UNL     1      10.203  14.992  22.517  0.00  0.00    +0.000 OA
ATOM     31  O   UNL     1       9.785  13.030  21.416  0.00  0.00    +0.000 OA
ATOM     32  C   UNL     1       9.781  12.323  20.197  0.00  0.00    +0.000 A 
ATOM     33  C   UNL     1       9.300  11.017  20.234  0.00  0.00    +0.000 A 
ENDBRANCH  22  23
ENDBRANCH  21  22
ENDBRANCH  20  21
ENDBRANCH   3  20
TORSDOF 7
ENDMDL
MODEL 9
REMARK VINA RESULT:      -8.3      5.669     11.059
REMARK  Name = 
REMARK  8 active torsions:
REMARK  status: ('A' for Active; 'I' for Inactive)
REMARK    1  A    between atoms: C_1  and  C_2
REMARK    2  A    between atoms: C_2  and  C_3
REMARK    3  A    between atoms: C_2  and  C_20
REMARK    4  A    between atoms: N_5  and  C_6
REMARK    5  A    between atoms: C_6  and  C_7
REMARK    6  A    between atoms: C_7  and  O_8
REMARK    7  A    between atoms: O_8  and  C_9
REMARK    8  A    between atoms: C_23  and  C_24
REMARK                            x       y       z     vdW  Elec       q    Type
REMARK                         _______ _______ _______ _____ _____    ______ ____
ROOT
ATOM      1  C   UNL     1       4.658   6.402  17.570  0.00  0.00    +0.000 C 
ATOM      2  O   UNL     1       4.567   6.790  16.407  0.00  0.00    +0.000 OA
ATOM      3  N   UNL     1       5.877   6.232  18.198  0.00  0.00    +0.000 N 
ATOM      4  H   UNL     1       5.905   5.670  19.040  0.00  0.00    +0.000 HD
ENDROOT
BRANCH   1   6
ATOM      5  C   UNL     1       2.571   5.043  17.740  0.00  0.00    +0.000 C 
ATOM      6  C   UNL     1       3.438   6.087  18.444  0.00  0.00    +0.000 C 
BRANCH   6   7
ATOM      7  C   UNL     1       2.596   7.304  18.797  0.00  0.00    +0.000 A 
ATOM      8  C   UNL     1       2.248   8.285  17.862  0.00  0.00    +0.000 A 
ATOM      9  C   UNL     1       1.420   9.360  18.217  0.00  0.00    +0.000 A 
ATOM     10  C   UNL     1       0.878   9.488  19.509  0.00  0.00    +0.000 A 
ATOM     11  C   UNL     1       1.221   8.480  20.425  0.00  0.00    +0.000 A 
ATOM     12  F   UNL     1       0.722   8.486  21.672  0.00  0.00    +0.000 F 
ATOM     13  C   UNL     1       2.065   7.418  20.088  0.00  0.00    +0.000 A 
BRANCH  10  14
ATOM     14  C   UNL     1       0.004  10.633  19.868  0.00  0.00    +0.000 A 
ATOM     15  C   UNL     1       0.346  11.527  20.905  0.00  0.00    +0.000 A 
ATOM     16  C   UNL     1      -0.493  12.587  21.264  0.00  0.00    +0.000 A 
ATOM     17  C   UNL     1      -1.687  12.795  20.584  0.00  0.00    +0.000 A 
ATOM     18  C   UNL     1      -2.044  11.940  19.548  0.00  0.00    +0.000 A 
ATOM     19  C   UNL     1      -1.212  10.870  19.204  0.00  0.00    +0.000 A 
ENDBRANCH  10  14
ENDBRANCH   6   7
ENDBRANCH   1   6
BRANCH   3  20
ATOM     20  C   UNL     1       7.111   6.419  17.453  0.00  0.00    +0.000 C 
BRANCH  20  21
ATOM     21  C   UNL     1       8.008   7.483  18.073  0.00  0.00    +0.000 C 
BRANCH  21  22
ATOM     22  O   UNL     1       7.727   8.745  17.461  0.00  0.00    +0.000 OA
BRANCH  22  23
ATOM     23  C   UNL     1       8.367   9.812  18.032  0.00  0.00    +0.000 A 
ATOM     24  C   UNL     1       9.079   9.543  19.206  0.00  0.00    +0.000 A 
ATOM     25  C   UNL     1       9.766  10.566  19.874  0.00  0.00    +0.000 A 
ATOM     26  C   UNL     1       9.731  11.868  19.374  0.00  0.00    +0.000 A 
ATOM     27  C   UNL     1      10.429  12.970  20.012  0.00  0.00    +0.000 A 
ATOM     28  C   UNL     1      10.366  14.192  19.473  0.00  0.00    +0.000 A 
ATOM     29  C   UNL     1       9.604  14.475  18.244  0.00  0.00    +0.000 A 
ATOM     30  O   UNL     1       9.579  15.605  17.770  0.00  0.00    +0.000 OA
ATOM     31  O   UNL     1       8.926  13.415  17.667  0.00  0.00    +0.000 OA
ATOM     32  C   UNL     1       8.999  12.121  18.217  0.00  0.00    +0.000 A 
ATOM     33  C   UNL     1       8.309  11.115  17.546  0.00  0.00    +0.000 A 
ENDBRANCH  22  23
ENDBRANCH  21  22
ENDBRANCH  20  21
ENDBRANCH   3  20
TORSDOF 7
ENDMDL
