MODEL 1
REMARK VINA RESULT:      -8.1      0.000      0.000
REMARK  Name = 
REMARK  6 active torsions:
REMARK  status: ('A' for Active; 'I' for Inactive)
REMARK    1  A    between atoms: C_1  and  N_2
REMARK    2  A    between atoms: N_2  and  C_3
REMARK    3  A    between atoms: C_15  and  C_17
REMARK    4  A    between atoms: C_17  and  N_18
REMARK    5  A    between atoms: C_17  and  C_19
REMARK    6  A    between atoms: C_19  and  C_20
REMARK                            x       y       z     vdW  Elec       q    Type
REMARK                         _______ _______ _______ _____ _____    ______ ____
ROOT
ATOM      1  C   UNL     1       6.206   6.620  17.018  0.00  0.00    +0.000 A 
ATOM      2  C   UNL     1       6.785   5.487  16.462  0.00  0.00    +0.000 A 
ATOM      3  C   UNL     1       6.159   4.235  16.575  0.00  0.00    +0.000 A 
ATOM      4  C   UNL     1       4.944   4.074  17.224  0.00  0.00    +0.000 A 
ATOM      5  N   UNL     1       4.406   2.850  17.312  0.00  0.00    +0.000 NA
ATOM      6  C   UNL     1       3.245   2.757  17.974  0.00  0.00    +0.000 A 
ATOM      7  N   UNL     1       2.551   3.764  18.516  0.00  0.00    +0.000 NA
ATOM      8  C   UNL     1       3.075   4.998  18.393  0.00  0.00    +0.000 A 
ATOM      9  N   UNL     1       2.354   6.054  18.917  0.00  0.00    +0.000 N 
ATOM     10  C   UNL     1       1.430   5.844  20.034  0.00  0.00    +0.000 C 
ATOM     11  C   UNL     1       1.598   7.043  20.996  0.00  0.00    +0.000 C 
ATOM     12  N   UNL     1       1.440   8.342  20.302  0.00  0.00    +0.000 N 
ATOM     13  C   UNL     1       0.833   9.388  20.980  0.00  0.00    +0.000 C 
ATOM     14  O   UNL     1       0.379   9.230  22.119  0.00  0.00    +0.000 OA
ATOM     15  C   UNL     1       2.234   8.485  19.070  0.00  0.00    +0.000 C 
ATOM     16  C   UNL     1       2.058   7.265  18.141  0.00  0.00    +0.000 C 
ATOM     17  C   UNL     1       4.335   5.197  17.786  0.00  0.00    +0.000 A 
ATOM     18  C   UNL     1       5.032   6.427  17.745  0.00  0.00    +0.000 A 
ENDROOT
BRANCH   1  20
ATOM     19  C   UNL     1       7.975   8.123  17.787  0.00  0.00    +0.000 C 
ATOM     20  N   UNL     1       6.776   7.895  17.001  0.00  0.00    +0.000 N 
ATOM     21  H   UNL     1       6.874   8.252  16.052  0.00  0.00    +0.000 HD
ENDBRANCH   1  20
BRANCH  13  22
ATOM     22  C   UNL     1       0.664  10.756  20.257  0.00  0.00    +0.000 C 
BRANCH  22  23
ATOM     23  N   UNL     1       1.475  11.807  20.921  0.00  0.00    +0.000 NA
ATOM     24  H   UNL     1       1.100  12.718  20.650  0.00  0.00    +0.000 HD
ATOM     25  H   UNL     1       2.413  11.780  20.517  0.00  0.00    +0.000 HD
ENDBRANCH  22  23
BRANCH  22  26
ATOM     26  C   UNL     1      -0.836  11.134  20.251  0.00  0.00    +0.000 C 
BRANCH  26  27
ATOM     27  C   UNL     1      -1.545  10.946  18.929  0.00  0.00    +0.000 A 
ATOM     28  C   UNL     1      -1.073  10.021  17.986  0.00  0.00    +0.000 A 
ATOM     29  C   UNL     1      -1.754   9.827  16.783  0.00  0.00    +0.000 A 
ATOM     30  C   UNL     1      -2.915  10.551  16.519  0.00  0.00    +0.000 A 
ATOM     31 CL   UNL     1      -3.758  10.306  15.039  0.00  0.00    +0.000 Cl
ATOM     32  C   UNL     1      -3.401  11.467  17.447  0.00  0.00    +0.000 A 
ATOM     33  C   UNL     1      -2.718  11.663  18.650  0.00  0.00    +0.000 A 
ENDBRANCH  26  27
ENDBRANCH  22  26
ENDBRANCH  13  22
TORSDOF 5
ENDMDL
MODEL 2
REMARK VINA RESULT:      -8.1      1.093      1.458
REMARK  Name = 
REMARK  6 active torsions:
REMARK  status: ('A' for Active; 'I' for Inactive)
REMARK    1  A    between atoms: C_1  and  N_2
REMARK    2  A    between atoms: N_2  and  C_3
REMARK    3  A    between atoms: C_15  and  C_17
REMARK    4  A    between atoms: C_17  and  N_18
REMARK    5  A    between atoms: C_17  and  C_19
REMARK    6  A    between atoms: C_19  and  C_20
REMARK                            x       y       z     vdW  Elec       q    Type
REMARK                         _______ _______ _______ _____ _____    ______ ____
ROOT
ATOM      1  C   UNL     1       6.361   6.670  17.484  0.00  0.00    +0.000 A 
ATOM      2  C   UNL     1       7.124   5.516  17.368  0.00  0.00    +0.000 A 
ATOM      3  C   UNL     1       6.684   4.309  17.933  0.00  0.00    +0.000 A 
ATOM      4  C   UNL     1       5.478   4.208  18.611  0.00  0.00    +0.000 A 
ATOM      5  N   UNL     1       5.123   3.030  19.143  0.00  0.00    +0.000 NA
ATOM      6  C   UNL     1       3.960   3.005  19.807  0.00  0.00    +0.000 A 
ATOM      7  N   UNL     1       3.103   4.021  19.958  0.00  0.00    +0.000 NA
ATOM      8  C   UNL     1       3.444   5.192  19.391  0.00  0.00    +0.000 A 
ATOM      9  N   UNL     1       2.554   6.243  19.507  0.00  0.00    +0.000 N 
ATOM     10  C   UNL     1       1.622   6.309  20.636  0.00  0.00    +0.000 C 
ATOM     11  C   UNL     1       1.570   7.784  21.097  0.00  0.00    +0.000 C 
ATOM     12  N   UNL     1       1.254   8.706  19.983  0.00  0.00    +0.000 N 
ATOM     13  C   UNL     1       0.470   9.821  20.245  0.00  0.00    +0.000 C 
ATOM     14  O   UNL     1      -0.005  10.014  21.370  0.00  0.00    +0.000 OA
ATOM     15  C   UNL     1       2.072   8.518  18.773  0.00  0.00    +0.000 C 
ATOM     16  C   UNL     1       2.117   7.034  18.350  0.00  0.00    +0.000 C 
ATOM     17  C   UNL     1       4.687   5.351  18.738  0.00  0.00    +0.000 A 
ATOM     18  C   UNL     1       5.196   6.574  18.246  0.00  0.00    +0.000 A 
ENDROOT
BRANCH   1  20
ATOM     19  C   UNL     1       7.838   8.612  17.652  0.00  0.00    +0.000 C 
ATOM     20  N   UNL     1       6.737   7.926  17.001  0.00  0.00    +0.000 N 
ATOM     21  H   UNL     1       6.841   7.924  15.988  0.00  0.00    +0.000 HD
ENDBRANCH   1  20
BRANCH  13  22
ATOM     22  C   UNL     1       0.135  10.795  19.079  0.00  0.00    +0.000 C 
BRANCH  22  23
ATOM     23  N   UNL     1       0.939  12.038  19.182  0.00  0.00    +0.000 NA
ATOM     24  H   UNL     1       1.722  11.967  18.529  0.00  0.00    +0.000 HD
ATOM     25  H   UNL     1       1.371  12.057  20.107  0.00  0.00    +0.000 HD
ENDBRANCH  22  23
BRANCH  22  26
ATOM     26  C   UNL     1      -1.380  11.110  19.114  0.00  0.00    +0.000 C 
BRANCH  26  27
ATOM     27  C   UNL     1      -2.133  10.802  17.840  0.00  0.00    +0.000 A 
ATOM     28  C   UNL     1      -3.308  11.494  17.514  0.00  0.00    +0.000 A 
ATOM     29  C   UNL     1      -3.977  11.230  16.318  0.00  0.00    +0.000 A 
ATOM     30  C   UNL     1      -3.472  10.275  15.437  0.00  0.00    +0.000 A 
ATOM     31 CL   UNL     1      -4.294   9.955  13.960  0.00  0.00    +0.000 Cl
ATOM     32  C   UNL     1      -2.303   9.584  15.742  0.00  0.00    +0.000 A 
ATOM     33  C   UNL     1      -1.635   9.847  16.940  0.00  0.00    +0.000 A 
ENDBRANCH  26  27
ENDBRANCH  22  26
ENDBRANCH  13  22
TORSDOF 5
ENDMDL
MODEL 3
REMARK VINA RESULT:      -7.9      2.985      8.447
REMARK  Name = 
REMARK  6 active torsions:
REMARK  status: ('A' for Active; 'I' for Inactive)
REMARK    1  A    between atoms: C_1  and  N_2
REMARK    2  A    between atoms: N_2  and  C_3
REMARK    3  A    between atoms: C_15  and  C_17
REMARK    4  A    between atoms: C_17  and  N_18
REMARK    5  A    between atoms: C_17  and  C_19
REMARK    6  A    between atoms: C_19  and  C_20
REMARK                            x       y       z     vdW  Elec       q    Type
REMARK                         _______ _______ _______ _____ _____    ______ ____
ROOT
ATOM      1  C   UNL     1      -1.742  10.258  17.148  0.00  0.00    +0.000 A 
ATOM      2  C   UNL     1      -2.265  11.501  17.479  0.00  0.00    +0.000 A 
ATOM      3  C   UNL     1      -1.838  12.171  18.637  0.00  0.00    +0.000 A 
ATOM      4  C   UNL     1      -0.878  11.640  19.485  0.00  0.00    +0.000 A 
ATOM      5  N   UNL     1      -0.526  12.322  20.583  0.00  0.00    +0.000 NA
ATOM      6  C   UNL     1       0.387  11.743  21.375  0.00  0.00    +0.000 A 
ATOM      7  N   UNL     1       1.009  10.579  21.159  0.00  0.00    +0.000 NA
ATOM      8  C   UNL     1       0.681   9.914  20.036  0.00  0.00    +0.000 A 
ATOM      9  N   UNL     1       1.340   8.727  19.779  0.00  0.00    +0.000 N 
ATOM     10  C   UNL     1       1.887   7.925  20.877  0.00  0.00    +0.000 C 
ATOM     11  C   UNL     1       1.592   6.444  20.550  0.00  0.00    +0.000 C 
ATOM     12  N   UNL     1       2.080   6.060  19.206  0.00  0.00    +0.000 N 
ATOM     13  C   UNL     1       2.587   4.782  19.022  0.00  0.00    +0.000 C 
ATOM     14  O   UNL     1       2.685   3.994  19.970  0.00  0.00    +0.000 OA
ATOM     15  C   UNL     1       1.682   6.971  18.120  0.00  0.00    +0.000 C 
ATOM     16  C   UNL     1       1.974   8.443  18.485  0.00  0.00    +0.000 C 
ATOM     17  C   UNL     1      -0.329  10.395  19.173  0.00  0.00    +0.000 A 
ATOM     18  C   UNL     1      -0.846   9.697  18.058  0.00  0.00    +0.000 A 
ENDROOT
BRANCH   1  20
ATOM     19  C   UNL     1      -2.898  10.145  14.997  0.00  0.00    +0.000 C 
ATOM     20  N   UNL     1      -2.139   9.494  16.048  0.00  0.00    +0.000 N 
ATOM     21  H   UNL     1      -1.367   8.946  15.672  0.00  0.00    +0.000 HD
ENDBRANCH   1  20
BRANCH  13  22
ATOM     22  C   UNL     1       3.101   4.372  17.612  0.00  0.00    +0.000 C 
BRANCH  22  23
ATOM     23  N   UNL     1       2.291   3.259  17.057  0.00  0.00    +0.000 NA
ATOM     24  H   UNL     1       2.813   2.836  16.288  0.00  0.00    +0.000 HD
ATOM     25  H   UNL     1       1.461   3.664  16.619  0.00  0.00    +0.000 HD
ENDBRANCH  22  23
BRANCH  22  26
ATOM     26  C   UNL     1       4.591   3.972  17.722  0.00  0.00    +0.000 C 
BRANCH  26  27
ATOM     27  C   UNL     1       5.570   5.124  17.746  0.00  0.00    +0.000 A 
ATOM     28  C   UNL     1       5.318   6.296  17.019  0.00  0.00    +0.000 A 
ATOM     29  C   UNL     1       6.209   7.369  17.076  0.00  0.00    +0.000 A 
ATOM     30  C   UNL     1       7.354   7.279  17.865  0.00  0.00    +0.000 A 
ATOM     31 CL   UNL     1       8.447   8.605  17.939  0.00  0.00    +0.000 Cl
ATOM     32  C   UNL     1       7.615   6.125  18.598  0.00  0.00    +0.000 A 
ATOM     33  C   UNL     1       6.725   5.051  18.540  0.00  0.00    +0.000 A 
ENDBRANCH  26  27
ENDBRANCH  22  26
ENDBRANCH  13  22
TORSDOF 5
ENDMDL
MODEL 4
REMARK VINA RESULT:      -7.7      1.495      1.682
REMARK  Name = 
REMARK  6 active torsions:
REMARK  status: ('A' for Active; 'I' for Inactive)
REMARK    1  A    between atoms: C_1  and  N_2
REMARK    2  A    between atoms: N_2  and  C_3
REMARK    3  A    between atoms: C_15  and  C_17
REMARK    4  A    between atoms: C_17  and  N_18
REMARK    5  A    between atoms: C_17  and  C_19
REMARK    6  A    between atoms: C_19  and  C_20
REMARK                            x       y       z     vdW  Elec       q    Type
REMARK                         _______ _______ _______ _____ _____    ______ ____
ROOT
ATOM      1  C   UNL     1       6.554   6.740  17.523  0.00  0.00    +0.000 A 
ATOM      2  C   UNL     1       7.301   5.570  17.485  0.00  0.00    +0.000 A 
ATOM      3  C   UNL     1       6.805   4.387  18.057  0.00  0.00    +0.000 A 
ATOM      4  C   UNL     1       5.560   4.327  18.665  0.00  0.00    +0.000 A 
ATOM      5  N   UNL     1       5.151   3.172  19.207  0.00  0.00    +0.000 NA
ATOM      6  C   UNL     1       3.950   3.186  19.801  0.00  0.00    +0.000 A 
ATOM      7  N   UNL     1       3.105   4.221  19.871  0.00  0.00    +0.000 NA
ATOM      8  C   UNL     1       3.502   5.369  19.293  0.00  0.00    +0.000 A 
ATOM      9  N   UNL     1       2.627   6.438  19.326  0.00  0.00    +0.000 N 
ATOM     10  C   UNL     1       1.631   6.554  20.395  0.00  0.00    +0.000 C 
ATOM     11  C   UNL     1       1.580   8.042  20.810  0.00  0.00    +0.000 C 
ATOM     12  N   UNL     1       1.349   8.937  19.653  0.00  0.00    +0.000 N 
ATOM     13  C   UNL     1       0.572  10.072  19.836  0.00  0.00    +0.000 C 
ATOM     14  O   UNL     1       0.035  10.307  20.925  0.00  0.00    +0.000 OA
ATOM     15  C   UNL     1       2.233   8.699  18.500  0.00  0.00    +0.000 C 
ATOM     16  C   UNL     1       2.275   7.202  18.123  0.00  0.00    +0.000 C 
ATOM     17  C   UNL     1       4.784   5.487  18.711  0.00  0.00    +0.000 A 
ATOM     18  C   UNL     1       5.345   6.686  18.217  0.00  0.00    +0.000 A 
ENDROOT
BRANCH   1  20
ATOM     19  C   UNL     1       8.000   8.696  17.769  0.00  0.00    +0.000 C 
ATOM     20  N   UNL     1       6.983   7.974  17.028  0.00  0.00    +0.000 N 
ATOM     21  H   UNL     1       7.203   7.926  16.035  0.00  0.00    +0.000 HD
ENDBRANCH   1  20
BRANCH  13  22
ATOM     22  C   UNL     1       0.325  11.017  18.625  0.00  0.00    +0.000 C 
BRANCH  22  23
ATOM     23  N   UNL     1       1.607  11.546  18.097  0.00  0.00    +0.000 NA
ATOM     24  H   UNL     1       1.409  12.399  17.572  0.00  0.00    +0.000 HD
ATOM     25  H   UNL     1       1.955  10.885  17.400  0.00  0.00    +0.000 HD
ENDBRANCH  22  23
BRANCH  22  26
ATOM     26  C   UNL     1      -0.606  12.168  19.074  0.00  0.00    +0.000 C 
BRANCH  26  27
ATOM     27  C   UNL     1      -2.074  11.966  18.775  0.00  0.00    +0.000 A 
ATOM     28  C   UNL     1      -2.486  11.316  17.603  0.00  0.00    +0.000 A 
ATOM     29  C   UNL     1      -3.842  11.101  17.352  0.00  0.00    +0.000 A 
ATOM     30  C   UNL     1      -4.795  11.529  18.275  0.00  0.00    +0.000 A 
ATOM     31 CL   UNL     1      -6.465  11.257  17.968  0.00  0.00    +0.000 Cl
ATOM     32  C   UNL     1      -4.402  12.169  19.447  0.00  0.00    +0.000 A 
ATOM     33  C   UNL     1      -3.046  12.386  19.697  0.00  0.00    +0.000 A 
ENDBRANCH  26  27
ENDBRANCH  22  26
ENDBRANCH  13  22
TORSDOF 5
ENDMDL
MODEL 5
REMARK VINA RESULT:      -7.6      2.787      4.407
REMARK  Name = 
REMARK  6 active torsions:
REMARK  status: ('A' for Active; 'I' for Inactive)
REMARK    1  A    between atoms: C_1  and  N_2
REMARK    2  A    between atoms: N_2  and  C_3
REMARK    3  A    between atoms: C_15  and  C_17
REMARK    4  A    between atoms: C_17  and  N_18
REMARK    5  A    between atoms: C_17  and  C_19
REMARK    6  A    between atoms: C_19  and  C_20
REMARK                            x       y       z     vdW  Elec       q    Type
REMARK                         _______ _______ _______ _____ _____    ______ ____
ROOT
ATOM      1  C   UNL     1       1.888   2.968  19.415  0.00  0.00    +0.000 A 
ATOM      2  C   UNL     1       2.566   1.912  18.820  0.00  0.00    +0.000 A 
ATOM      3  C   UNL     1       3.554   2.153  17.852  0.00  0.00    +0.000 A 
ATOM      4  C   UNL     1       3.906   3.435  17.459  0.00  0.00    +0.000 A 
ATOM      5  N   UNL     1       4.845   3.597  16.518  0.00  0.00    +0.000 NA
ATOM      6  C   UNL     1       5.121   4.860  16.164  0.00  0.00    +0.000 A 
ATOM      7  N   UNL     1       4.585   5.970  16.683  0.00  0.00    +0.000 NA
ATOM      8  C   UNL     1       3.669   5.806  17.655  0.00  0.00    +0.000 A 
ATOM      9  N   UNL     1       3.131   6.943  18.226  0.00  0.00    +0.000 N 
ATOM     10  C   UNL     1       3.065   8.197  17.471  0.00  0.00    +0.000 C 
ATOM     11  C   UNL     1       1.696   8.844  17.780  0.00  0.00    +0.000 C 
ATOM     12  N   UNL     1       1.462   8.988  19.235  0.00  0.00    +0.000 N 
ATOM     13  C   UNL     1       0.774  10.104  19.690  0.00  0.00    +0.000 C 
ATOM     14  O   UNL     1       0.410  10.990  18.908  0.00  0.00    +0.000 OA
ATOM     15  C   UNL     1       1.706   7.771  20.025  0.00  0.00    +0.000 C 
ATOM     16  C   UNL     1       3.073   7.141  19.680  0.00  0.00    +0.000 C 
ATOM     17  C   UNL     1       3.245   4.516  18.046  0.00  0.00    +0.000 A 
ATOM     18  C   UNL     1       2.188   4.246  18.945  0.00  0.00    +0.000 A 
ENDROOT
BRANCH   1  20
ATOM     19  C   UNL     1       1.212   2.693  21.749  0.00  0.00    +0.000 C 
ATOM     20  N   UNL     1       0.858   2.828  20.348  0.00  0.00    +0.000 N 
ATOM     21  H   UNL     1       0.127   3.524  20.210  0.00  0.00    +0.000 HD
ENDBRANCH   1  20
BRANCH  13  22
ATOM     22  C   UNL     1       0.524  10.262  21.217  0.00  0.00    +0.000 C 
BRANCH  22  23
ATOM     23  N   UNL     1      -0.578   9.374  21.668  0.00  0.00    +0.000 NA
ATOM     24  H   UNL     1      -0.732   8.667  20.947  0.00  0.00    +0.000 HD
ATOM     25  H   UNL     1      -1.438   9.925  21.682  0.00  0.00    +0.000 HD
ENDBRANCH  22  23
BRANCH  22  26
ATOM     26  C   UNL     1       0.199  11.745  21.517  0.00  0.00    +0.000 C 
BRANCH  26  27
ATOM     27  C   UNL     1      -1.253  12.040  21.819  0.00  0.00    +0.000 A 
ATOM     28  C   UNL     1      -1.743  11.973  23.131  0.00  0.00    +0.000 A 
ATOM     29  C   UNL     1      -3.076  12.284  23.405  0.00  0.00    +0.000 A 
ATOM     30  C   UNL     1      -3.926  12.669  22.370  0.00  0.00    +0.000 A 
ATOM     31 CL   UNL     1      -5.566  13.057  22.710  0.00  0.00    +0.000 Cl
ATOM     32  C   UNL     1      -3.453  12.747  21.063  0.00  0.00    +0.000 A 
ATOM     33  C   UNL     1      -2.120  12.435  20.788  0.00  0.00    +0.000 A 
ENDBRANCH  26  27
ENDBRANCH  22  26
ENDBRANCH  13  22
TORSDOF 5
ENDMDL
MODEL 6
REMARK VINA RESULT:      -7.5      3.053      8.672
REMARK  Name = 
REMARK  6 active torsions:
REMARK  status: ('A' for Active; 'I' for Inactive)
REMARK    1  A    between atoms: C_1  and  N_2
REMARK    2  A    between atoms: N_2  and  C_3
REMARK    3  A    between atoms: C_15  and  C_17
REMARK    4  A    between atoms: C_17  and  N_18
REMARK    5  A    between atoms: C_17  and  C_19
REMARK    6  A    between atoms: C_19  and  C_20
REMARK                            x       y       z     vdW  Elec       q    Type
REMARK                         _______ _______ _______ _____ _____    ______ ____
ROOT
ATOM      1  C   UNL     1      -1.807  10.375  17.318  0.00  0.00    +0.000 A 
ATOM      2  C   UNL     1      -2.341  11.608  17.667  0.00  0.00    +0.000 A 
ATOM      3  C   UNL     1      -1.923  12.262  18.837  0.00  0.00    +0.000 A 
ATOM      4  C   UNL     1      -0.960  11.726  19.679  0.00  0.00    +0.000 A 
ATOM      5  N   UNL     1      -0.616  12.393  20.789  0.00  0.00    +0.000 NA
ATOM      6  C   UNL     1       0.300  11.809  21.573  0.00  0.00    +0.000 A 
ATOM      7  N   UNL     1       0.932  10.653  21.340  0.00  0.00    +0.000 NA
ATOM      8  C   UNL     1       0.612  10.004  20.206  0.00  0.00    +0.000 A 
ATOM      9  N   UNL     1       1.281   8.827  19.932  0.00  0.00    +0.000 N 
ATOM     10  C   UNL     1       1.832   8.012  21.018  0.00  0.00    +0.000 C 
ATOM     11  C   UNL     1       1.550   6.533  20.667  0.00  0.00    +0.000 C 
ATOM     12  N   UNL     1       2.044   6.176  19.318  0.00  0.00    +0.000 N 
ATOM     13  C   UNL     1       2.562   4.905  19.115  0.00  0.00    +0.000 C 
ATOM     14  O   UNL     1       2.664   4.103  20.051  0.00  0.00    +0.000 OA
ATOM     15  C   UNL     1       1.641   7.100  18.246  0.00  0.00    +0.000 C 
ATOM     16  C   UNL     1       1.920   8.569  18.635  0.00  0.00    +0.000 C 
ATOM     17  C   UNL     1      -0.400  10.490  19.349  0.00  0.00    +0.000 A 
ATOM     18  C   UNL     1      -0.908   9.806  18.221  0.00  0.00    +0.000 A 
ENDROOT
BRANCH   1  20
ATOM     19  C   UNL     1      -3.045  10.256  15.213  0.00  0.00    +0.000 C 
ATOM     20  N   UNL     1      -2.195   9.625  16.205  0.00  0.00    +0.000 N 
ATOM     21  H   UNL     1      -1.403   9.151  15.775  0.00  0.00    +0.000 HD
ENDBRANCH   1  20
BRANCH  13  22
ATOM     22  C   UNL     1       3.083   4.521  17.700  0.00  0.00    +0.000 C 
BRANCH  22  23
ATOM     23  N   UNL     1       2.208   3.498  17.075  0.00  0.00    +0.000 NA
ATOM     24  H   UNL     1       1.900   2.853  17.804  0.00  0.00    +0.000 HD
ATOM     25  H   UNL     1       2.785   2.932  16.450  0.00  0.00    +0.000 HD
ENDBRANCH  22  23
BRANCH  22  26
ATOM     26  C   UNL     1       4.536   4.005  17.828  0.00  0.00    +0.000 C 
BRANCH  26  27
ATOM     27  C   UNL     1       5.434   4.305  16.648  0.00  0.00    +0.000 A 
ATOM     28  C   UNL     1       5.209   3.701  15.403  0.00  0.00    +0.000 A 
ATOM     29  C   UNL     1       6.020   4.012  14.310  0.00  0.00    +0.000 A 
ATOM     30  C   UNL     1       7.056   4.933  14.454  0.00  0.00    +0.000 A 
ATOM     31 CL   UNL     1       8.050   5.319  13.105  0.00  0.00    +0.000 Cl
ATOM     32  C   UNL     1       7.288   5.546  15.682  0.00  0.00    +0.000 A 
ATOM     33  C   UNL     1       6.477   5.234  16.776  0.00  0.00    +0.000 A 
ENDBRANCH  26  27
ENDBRANCH  22  26
ENDBRANCH  13  22
TORSDOF 5
ENDMDL
MODEL 7
REMARK VINA RESULT:      -7.3      3.000      8.560
REMARK  Name = 
REMARK  6 active torsions:
REMARK  status: ('A' for Active; 'I' for Inactive)
REMARK    1  A    between atoms: C_1  and  N_2
REMARK    2  A    between atoms: N_2  and  C_3
REMARK    3  A    between atoms: C_15  and  C_17
REMARK    4  A    between atoms: C_17  and  N_18
REMARK    5  A    between atoms: C_17  and  C_19
REMARK    6  A    between atoms: C_19  and  C_20
REMARK                            x       y       z     vdW  Elec       q    Type
REMARK                         _______ _______ _______ _____ _____    ______ ____
ROOT
ATOM      1  C   UNL     1      -1.909  10.513  17.451  0.00  0.00    +0.000 A 
ATOM      2  C   UNL     1      -2.537  11.735  17.649  0.00  0.00    +0.000 A 
ATOM      3  C   UNL     1      -2.291  12.486  18.810  0.00  0.00    +0.000 A 
ATOM      4  C   UNL     1      -1.412  12.057  19.793  0.00  0.00    +0.000 A 
ATOM      5  N   UNL     1      -1.234  12.812  20.885  0.00  0.00    +0.000 NA
ATOM      6  C   UNL     1      -0.392  12.329  21.810  0.00  0.00    +0.000 A 
ATOM      7  N   UNL     1       0.315  11.197  21.734  0.00  0.00    +0.000 NA
ATOM      8  C   UNL     1       0.163  10.460  20.619  0.00  0.00    +0.000 A 
ATOM      9  N   UNL     1       0.913   9.304  20.508  0.00  0.00    +0.000 N 
ATOM     10  C   UNL     1       1.367   8.592  21.705  0.00  0.00    +0.000 C 
ATOM     11  C   UNL     1       1.196   7.081  21.429  0.00  0.00    +0.000 C 
ATOM     12  N   UNL     1       1.864   6.664  20.175  0.00  0.00    +0.000 N 
ATOM     13  C   UNL     1       2.459   5.412  20.123  0.00  0.00    +0.000 C 
ATOM     14  O   UNL     1       2.485   4.679  21.119  0.00  0.00    +0.000 OA
ATOM     15  C   UNL     1       1.550   7.495  19.001  0.00  0.00    +0.000 C 
ATOM     16  C   UNL     1       1.713   8.998  19.315  0.00  0.00    +0.000 C 
ATOM     17  C   UNL     1      -0.761  10.834  19.618  0.00  0.00    +0.000 A 
ATOM     18  C   UNL     1      -1.099  10.052  18.490  0.00  0.00    +0.000 A 
ENDROOT
BRANCH   1  20
ATOM     19  C   UNL     1      -2.928  10.173  15.255  0.00  0.00    +0.000 C 
ATOM     20  N   UNL     1      -2.127   9.673  16.357  0.00  0.00    +0.000 N 
ATOM     21  H   UNL     1      -1.262   9.247  16.030  0.00  0.00    +0.000 HD
ENDBRANCH   1  20
BRANCH  13  22
ATOM     22  C   UNL     1       3.162   4.967  18.809  0.00  0.00    +0.000 C 
BRANCH  22  23
ATOM     23  N   UNL     1       3.107   3.491  18.654  0.00  0.00    +0.000 NA
ATOM     24  H   UNL     1       3.845   3.210  18.006  0.00  0.00    +0.000 HD
ATOM     25  H   UNL     1       2.235   3.259  18.176  0.00  0.00    +0.000 HD
ENDBRANCH  22  23
BRANCH  22  26
ATOM     26  C   UNL     1       4.626   5.468  18.832  0.00  0.00    +0.000 C 
BRANCH  26  27
ATOM     27  C   UNL     1       5.366   5.362  17.518  0.00  0.00    +0.000 A 
ATOM     28  C   UNL     1       6.547   4.614  17.417  0.00  0.00    +0.000 A 
ATOM     29  C   UNL     1       7.204   4.491  16.191  0.00  0.00    +0.000 A 
ATOM     30  C   UNL     1       6.680   5.111  15.058  0.00  0.00    +0.000 A 
ATOM     31 CL   UNL     1       7.487   4.954  13.547  0.00  0.00    +0.000 Cl
ATOM     32  C   UNL     1       5.504   5.852  15.140  0.00  0.00    +0.000 A 
ATOM     33  C   UNL     1       4.848   5.975  16.367  0.00  0.00    +0.000 A 
ENDBRANCH  26  27
ENDBRANCH  22  26
ENDBRANCH  13  22
TORSDOF 5
ENDMDL
MODEL 8
REMARK VINA RESULT:      -7.2      1.604      2.018
REMARK  Name = 
REMARK  6 active torsions:
REMARK  status: ('A' for Active; 'I' for Inactive)
REMARK    1  A    between atoms: C_1  and  N_2
REMARK    2  A    between atoms: N_2  and  C_3
REMARK    3  A    between atoms: C_15  and  C_17
REMARK    4  A    between atoms: C_17  and  N_18
REMARK    5  A    between atoms: C_17  and  C_19
REMARK    6  A    between atoms: C_19  and  C_20
REMARK                            x       y       z     vdW  Elec       q    Type
REMARK                         _______ _______ _______ _____ _____    ______ ____
ROOT
ATOM      1  C   UNL     1       5.748   6.039  17.555  0.00  0.00    +0.000 A 
ATOM      2  C   UNL     1       6.266   4.752  17.604  0.00  0.00    +0.000 A 
ATOM      3  C   UNL     1       5.640   3.759  18.374  0.00  0.00    +0.000 A 
ATOM      4  C   UNL     1       4.485   4.007  19.099  0.00  0.00    +0.000 A 
ATOM      5  N   UNL     1       3.945   3.020  19.828  0.00  0.00    +0.000 NA
ATOM      6  C   UNL     1       2.844   3.331  20.526  0.00  0.00    +0.000 A 
ATOM      7  N   UNL     1       2.210   4.508  20.537  0.00  0.00    +0.000 NA
ATOM      8  C   UNL     1       2.733   5.486  19.775  0.00  0.00    +0.000 A 
ATOM      9  N   UNL     1       2.071   6.699  19.746  0.00  0.00    +0.000 N 
ATOM     10  C   UNL     1       1.245   7.124  20.880  0.00  0.00    +0.000 C 
ATOM     11  C   UNL     1       1.507   8.632  21.094  0.00  0.00    +0.000 C 
ATOM     12  N   UNL     1       1.302   9.416  19.855  0.00  0.00    +0.000 N 
ATOM     13  C   UNL     1       0.766  10.691  19.957  0.00  0.00    +0.000 C 
ATOM     14  O   UNL     1       0.411  11.147  21.050  0.00  0.00    +0.000 OA
ATOM     15  C   UNL     1       1.988   8.884  18.666  0.00  0.00    +0.000 C 
ATOM     16  C   UNL     1       1.720   7.374  18.490  0.00  0.00    +0.000 C 
ATOM     17  C   UNL     1       3.937   5.291  19.063  0.00  0.00    +0.000 A 
ATOM     18  C   UNL     1       4.640   6.297  18.361  0.00  0.00    +0.000 A 
ENDROOT
BRANCH   1  20
ATOM     19  C   UNL     1       7.499   7.743  17.431  0.00  0.00    +0.000 C 
ATOM     20  N   UNL     1       6.327   7.105  16.860  0.00  0.00    +0.000 N 
ATOM     21  H   UNL     1       6.461   6.884  15.875  0.00  0.00    +0.000 HD
ENDBRANCH   1  20
BRANCH  13  22
ATOM     22  C   UNL     1       0.548  11.522  18.659  0.00  0.00    +0.000 C 
BRANCH  22  23
ATOM     23  N   UNL     1       1.825  12.119  18.194  0.00  0.00    +0.000 NA
ATOM     24  H   UNL     1       1.895  11.978  17.185  0.00  0.00    +0.000 HD
ATOM     25  H   UNL     1       2.590  11.570  18.589  0.00  0.00    +0.000 HD
ENDBRANCH  22  23
BRANCH  22  26
ATOM     26  C   UNL     1      -0.507  12.617  18.940  0.00  0.00    +0.000 C 
BRANCH  26  27
ATOM     27  C   UNL     1      -1.945  12.200  18.729  0.00  0.00    +0.000 A 
ATOM     28  C   UNL     1      -2.919  12.459  19.703  0.00  0.00    +0.000 A 
ATOM     29  C   UNL     1      -4.251  12.104  19.483  0.00  0.00    +0.000 A 
ATOM     30  C   UNL     1      -4.618  11.492  18.286  0.00  0.00    +0.000 A 
ATOM     31 CL   UNL     1      -6.260  11.060  18.014  0.00  0.00    +0.000 Cl
ATOM     32  C   UNL     1      -3.664  11.234  17.306  0.00  0.00    +0.000 A 
ATOM     33  C   UNL     1      -2.331  11.588  17.526  0.00  0.00    +0.000 A 
ENDBRANCH  26  27
ENDBRANCH  22  26
ENDBRANCH  13  22
TORSDOF 5
ENDMDL
MODEL 9
REMARK VINA RESULT:      -7.1      2.956      3.474
REMARK  Name = 
REMARK  6 active torsions:
REMARK  status: ('A' for Active; 'I' for Inactive)
REMARK    1  A    between atoms: C_1  and  N_2
REMARK    2  A    between atoms: N_2  and  C_3
REMARK    3  A    between atoms: C_15  and  C_17
REMARK    4  A    between atoms: C_17  and  N_18
REMARK    5  A    between atoms: C_17  and  C_19
REMARK    6  A    between atoms: C_19  and  C_20
REMARK                            x       y       z     vdW  Elec       q    Type
REMARK                         _______ _______ _______ _____ _____    ______ ____
ROOT
ATOM      1  C   UNL     1       6.540   6.767  17.509  0.00  0.00    +0.000 A 
ATOM      2  C   UNL     1       7.290   5.601  17.431  0.00  0.00    +0.000 A 
ATOM      3  C   UNL     1       6.806   4.402  17.979  0.00  0.00    +0.000 A 
ATOM      4  C   UNL     1       5.569   4.322  18.600  0.00  0.00    +0.000 A 
ATOM      5  N   UNL     1       5.171   3.151  19.118  0.00  0.00    +0.000 NA
ATOM      6  C   UNL     1       3.978   3.146  19.728  0.00  0.00    +0.000 A 
ATOM      7  N   UNL     1       3.131   4.175  19.835  0.00  0.00    +0.000 NA
ATOM      8  C   UNL     1       3.516   5.339  19.282  0.00  0.00    +0.000 A 
ATOM      9  N   UNL     1       2.637   6.404  19.353  0.00  0.00    +0.000 N 
ATOM     10  C   UNL     1       1.655   6.488  20.438  0.00  0.00    +0.000 C 
ATOM     11  C   UNL     1       1.604   7.965  20.892  0.00  0.00    +0.000 C 
ATOM     12  N   UNL     1       1.355   8.889  19.761  0.00  0.00    +0.000 N 
ATOM     13  C   UNL     1       0.577  10.015  19.983  0.00  0.00    +0.000 C 
ATOM     14  O   UNL     1       0.053  10.220  21.084  0.00  0.00    +0.000 OA
ATOM     15  C   UNL     1       2.224   8.684  18.592  0.00  0.00    +0.000 C 
ATOM     16  C   UNL     1       2.267   7.198  18.175  0.00  0.00    +0.000 C 
ATOM     17  C   UNL     1       4.790   5.477  18.687  0.00  0.00    +0.000 A 
ATOM     18  C   UNL     1       5.340   6.691  18.216  0.00  0.00    +0.000 A 
ENDROOT
BRANCH   1  20
ATOM     19  C   UNL     1       7.996   8.713  17.775  0.00  0.00    +0.000 C 
ATOM     20  N   UNL     1       6.957   8.015  17.040  0.00  0.00    +0.000 N 
ATOM     21  H   UNL     1       7.151   7.997  16.040  0.00  0.00    +0.000 HD
ENDBRANCH   1  20
BRANCH  13  22
ATOM     22  C   UNL     1       0.310  10.991  18.800  0.00  0.00    +0.000 C 
BRANCH  22  23
ATOM     23  N   UNL     1      -0.216  10.259  17.621  0.00  0.00    +0.000 NA
ATOM     24  H   UNL     1       0.577   9.945  17.060  0.00  0.00    +0.000 HD
ATOM     25  H   UNL     1      -0.706  10.932  17.028  0.00  0.00    +0.000 HD
ENDBRANCH  22  23
BRANCH  22  26
ATOM     26  C   UNL     1       1.627  11.726  18.455  0.00  0.00    +0.000 C 
BRANCH  26  27
ATOM     27  C   UNL     1       1.554  13.235  18.493  0.00  0.00    +0.000 A 
ATOM     28  C   UNL     1       0.364  13.888  18.846  0.00  0.00    +0.000 A 
ATOM     29  C   UNL     1       0.315  15.282  18.915  0.00  0.00    +0.000 A 
ATOM     30  C   UNL     1       1.458  16.030  18.638  0.00  0.00    +0.000 A 
ATOM     31 CL   UNL     1       1.398  17.747  18.730  0.00  0.00    +0.000 Cl
ATOM     32  C   UNL     1       2.649  15.397  18.294  0.00  0.00    +0.000 A 
ATOM     33  C   UNL     1       2.697  14.003  18.223  0.00  0.00    +0.000 A 
ENDBRANCH  26  27
ENDBRANCH  22  26
ENDBRANCH  13  22
TORSDOF 5
ENDMDL
