MODEL 1
REMARK VINA RESULT:      -8.2      0.000      0.000
REMARK  Name = 
REMARK  8 active torsions:
REMARK  status: ('A' for Active; 'I' for Inactive)
REMARK    1  A    between atoms: C_1  and  C_2
REMARK    2  A    between atoms: C_5  and  O_6
REMARK    3  A    between atoms: O_6  and  C_7
REMARK    4  A    between atoms: C_7  and  C_8
REMARK    5  A    between atoms: N_16  and  C_17
REMARK    6  A    between atoms: C_17  and  C_18
REMARK    7  A    between atoms: C_18  and  O_19
REMARK    8  A    between atoms: O_19  and  C_20
REMARK                            x       y       z     vdW  Elec       q    Type
REMARK                         _______ _______ _______ _____ _____    ______ ____
ROOT
ATOM      1  C   UNL     1       3.976   4.138  17.256  0.00  0.00    +0.000 A 
ATOM      2  N   UNL     1       3.588   2.933  17.630  0.00  0.00    +0.000 NA
ATOM      3  C   UNL     1       2.738   3.117  18.684  0.00  0.00    +0.000 A 
ATOM      4  C   UNL     1       2.048   2.146  19.433  0.00  0.00    +0.000 A 
ATOM      5  C   UNL     1       1.228   2.546  20.493  0.00  0.00    +0.000 A 
ATOM      6  C   UNL     1       1.097   3.891  20.801  0.00  0.00    +0.000 A 
ATOM      7  C   UNL     1       1.772   4.872  20.063  0.00  0.00    +0.000 A 
ATOM      8  C   UNL     1       2.598   4.472  18.992  0.00  0.00    +0.000 A 
ATOM      9  N   UNL     1       3.399   5.116  18.060  0.00  0.00    +0.000 N 
ENDROOT
BRANCH   1  10
ATOM     10  C   UNL     1       4.941   4.412  16.142  0.00  0.00    +0.000 C 
BRANCH  10  11
ATOM     11  O   UNL     1       6.252   4.143  16.643  0.00  0.00    +0.000 OA
BRANCH  11  16
ATOM     12  C   UNL     1       8.672   8.836  18.745  0.00  0.00    +0.000 C 
ATOM     13  C   UNL     1       8.069   7.582  18.186  0.00  0.00    +0.000 A 
ATOM     14  C   UNL     1       7.503   7.555  16.907  0.00  0.00    +0.000 A 
ATOM     15  C   UNL     1       6.918   6.381  16.418  0.00  0.00    +0.000 A 
ATOM     16  C   UNL     1       6.903   5.217  17.190  0.00  0.00    +0.000 A 
ATOM     17  C   UNL     1       7.470   5.240  18.464  0.00  0.00    +0.000 A 
ATOM     18  C   UNL     1       8.050   6.414  18.956  0.00  0.00    +0.000 A 
ENDBRANCH  11  16
ENDBRANCH  10  11
ENDBRANCH   1  10
BRANCH   9  19
ATOM     19  C   UNL     1       3.666   6.547  17.905  0.00  0.00    +0.000 C 
BRANCH  19  20
ATOM     20  C   UNL     1       2.445   7.445  18.039  0.00  0.00    +0.000 C 
BRANCH  20  21
ATOM     21  O   UNL     1       2.324   8.095  19.308  0.00  0.00    +0.000 OA
BRANCH  21  22
ATOM     22  C   UNL     1       1.255   8.969  19.338  0.00  0.00    +0.000 A 
ATOM     23  C   UNL     1       0.648   9.444  20.511  0.00  0.00    +0.000 A 
ATOM     24  C   UNL     1      -0.457  10.296  20.449  0.00  0.00    +0.000 A 
ATOM     25  C   UNL     1      -0.947  10.695  19.211  0.00  0.00    +0.000 A 
ATOM     26 CL   UNL     1      -2.316  11.735  19.138  0.00  0.00    +0.000 Cl
ATOM     27  C   UNL     1      -0.334  10.258  18.039  0.00  0.00    +0.000 A 
ATOM     28  C   UNL     1       0.771   9.401  18.102  0.00  0.00    +0.000 A 
ENDBRANCH  21  22
ENDBRANCH  20  21
ENDBRANCH  19  20
ENDBRANCH   9  19
TORSDOF 7
ENDMDL
MODEL 2
REMARK VINA RESULT:      -8.2      1.234      1.823
REMARK  Name = 
REMARK  8 active torsions:
REMARK  status: ('A' for Active; 'I' for Inactive)
REMARK    1  A    between atoms: C_1  and  C_2
REMARK    2  A    between atoms: C_5  and  O_6
REMARK    3  A    between atoms: O_6  and  C_7
REMARK    4  A    between atoms: C_7  and  C_8
REMARK    5  A    between atoms: N_16  and  C_17
REMARK    6  A    between atoms: C_17  and  C_18
REMARK    7  A    between atoms: C_18  and  O_19
REMARK    8  A    between atoms: O_19  and  C_20
REMARK                            x       y       z     vdW  Elec       q    Type
REMARK                         _______ _______ _______ _____ _____    ______ ____
ROOT
ATOM      1  C   UNL     1       3.935   3.938  17.746  0.00  0.00    +0.000 A 
ATOM      2  N   UNL     1       4.172   2.894  18.519  0.00  0.00    +0.000 NA
ATOM      3  C   UNL     1       3.325   3.010  19.585  0.00  0.00    +0.000 A 
ATOM      4  C   UNL     1       3.180   2.147  20.687  0.00  0.00    +0.000 A 
ATOM      5  C   UNL     1       2.256   2.458  21.690  0.00  0.00    +0.000 A 
ATOM      6  C   UNL     1       1.489   3.608  21.597  0.00  0.00    +0.000 A 
ATOM      7  C   UNL     1       1.616   4.476  20.505  0.00  0.00    +0.000 A 
ATOM      8  C   UNL     1       2.546   4.165  19.490  0.00  0.00    +0.000 A 
ATOM      9  N   UNL     1       2.949   4.749  18.298  0.00  0.00    +0.000 N 
ENDROOT
BRANCH   1  10
ATOM     10  C   UNL     1       4.662   4.231  16.468  0.00  0.00    +0.000 C 
BRANCH  10  11
ATOM     11  O   UNL     1       6.061   4.187  16.758  0.00  0.00    +0.000 OA
BRANCH  11  16
ATOM     12  C   UNL     1       8.641   8.841  18.753  0.00  0.00    +0.000 C 
ATOM     13  C   UNL     1       7.926   7.626  18.243  0.00  0.00    +0.000 A 
ATOM     14  C   UNL     1       8.146   6.363  18.805  0.00  0.00    +0.000 A 
ATOM     15  C   UNL     1       7.491   5.238  18.292  0.00  0.00    +0.000 A 
ATOM     16  C   UNL     1       6.600   5.357  17.223  0.00  0.00    +0.000 A 
ATOM     17  C   UNL     1       6.376   6.614  16.663  0.00  0.00    +0.000 A 
ATOM     18  C   UNL     1       7.035   7.740  17.171  0.00  0.00    +0.000 A 
ENDBRANCH  11  16
ENDBRANCH  10  11
ENDBRANCH   1  10
BRANCH   9  19
ATOM     19  C   UNL     1       2.494   5.997  17.683  0.00  0.00    +0.000 C 
BRANCH  19  20
ATOM     20  C   UNL     1       3.017   7.266  18.341  0.00  0.00    +0.000 C 
BRANCH  20  21
ATOM     21  O   UNL     1       2.237   8.435  18.076  0.00  0.00    +0.000 OA
BRANCH  21  22
ATOM     22  C   UNL     1       1.512   8.831  19.183  0.00  0.00    +0.000 A 
ATOM     23  C   UNL     1       0.567   9.868  19.186  0.00  0.00    +0.000 A 
ATOM     24  C   UNL     1      -0.092  10.230  20.363  0.00  0.00    +0.000 A 
ATOM     25  C   UNL     1       0.174   9.539  21.540  0.00  0.00    +0.000 A 
ATOM     26 CL   UNL     1      -0.631   9.996  22.990  0.00  0.00    +0.000 Cl
ATOM     27  C   UNL     1       1.085   8.486  21.544  0.00  0.00    +0.000 A 
ATOM     28  C   UNL     1       1.749   8.127  20.365  0.00  0.00    +0.000 A 
ENDBRANCH  21  22
ENDBRANCH  20  21
ENDBRANCH  19  20
ENDBRANCH   9  19
TORSDOF 7
ENDMDL
MODEL 3
REMARK VINA RESULT:      -8.0      0.938      1.132
REMARK  Name = 
REMARK  8 active torsions:
REMARK  status: ('A' for Active; 'I' for Inactive)
REMARK    1  A    between atoms: C_1  and  C_2
REMARK    2  A    between atoms: C_5  and  O_6
REMARK    3  A    between atoms: O_6  and  C_7
REMARK    4  A    between atoms: C_7  and  C_8
REMARK    5  A    between atoms: N_16  and  C_17
REMARK    6  A    between atoms: C_17  and  C_18
REMARK    7  A    between atoms: C_18  and  O_19
REMARK    8  A    between atoms: O_19  and  C_20
REMARK                            x       y       z     vdW  Elec       q    Type
REMARK                         _______ _______ _______ _____ _____    ______ ____
ROOT
ATOM      1  C   UNL     1       3.933   4.210  17.314  0.00  0.00    +0.000 A 
ATOM      2  N   UNL     1       3.571   2.988  17.656  0.00  0.00    +0.000 NA
ATOM      3  C   UNL     1       2.762   3.123  18.749  0.00  0.00    +0.000 A 
ATOM      4  C   UNL     1       2.111   2.117  19.488  0.00  0.00    +0.000 A 
ATOM      5  C   UNL     1       1.332   2.469  20.594  0.00  0.00    +0.000 A 
ATOM      6  C   UNL     1       1.202   3.800  20.959  0.00  0.00    +0.000 A 
ATOM      7  C   UNL     1       1.839   4.814  20.234  0.00  0.00    +0.000 A 
ATOM      8  C   UNL     1       2.624   4.463  19.115  0.00  0.00    +0.000 A 
ATOM      9  N   UNL     1       3.382   5.151  18.178  0.00  0.00    +0.000 N 
ENDROOT
BRANCH   1  10
ATOM     10  C   UNL     1       4.850   4.536  16.173  0.00  0.00    +0.000 C 
BRANCH  10  11
ATOM     11  O   UNL     1       6.180   4.232  16.600  0.00  0.00    +0.000 OA
BRANCH  11  16
ATOM     12  C   UNL     1       8.735   8.784  18.845  0.00  0.00    +0.000 C 
ATOM     13  C   UNL     1       8.097   7.566  18.248  0.00  0.00    +0.000 A 
ATOM     14  C   UNL     1       7.537   7.593  16.966  0.00  0.00    +0.000 A 
ATOM     15  C   UNL     1       6.918   6.453  16.441  0.00  0.00    +0.000 A 
ATOM     16  C   UNL     1       6.861   5.269  17.180  0.00  0.00    +0.000 A 
ATOM     17  C   UNL     1       7.421   5.237  18.457  0.00  0.00    +0.000 A 
ATOM     18  C   UNL     1       8.035   6.379  18.986  0.00  0.00    +0.000 A 
ENDBRANCH  11  16
ENDBRANCH  10  11
ENDBRANCH   1  10
BRANCH   9  19
ATOM     19  C   UNL     1       3.630   6.589  18.068  0.00  0.00    +0.000 C 
BRANCH  19  20
ATOM     20  C   UNL     1       2.385   7.443  17.876  0.00  0.00    +0.000 C 
BRANCH  20  21
ATOM     21  O   UNL     1       2.627   8.715  17.268  0.00  0.00    +0.000 OA
BRANCH  21  22
ATOM     22  C   UNL     1       1.864   9.713  17.842  0.00  0.00    +0.000 A 
ATOM     23  C   UNL     1       2.300  11.031  18.041  0.00  0.00    +0.000 A 
ATOM     24  C   UNL     1       1.476  11.969  18.668  0.00  0.00    +0.000 A 
ATOM     25  C   UNL     1       0.201  11.596  19.081  0.00  0.00    +0.000 A 
ATOM     26 CL   UNL     1      -0.806  12.749  19.864  0.00  0.00    +0.000 Cl
ATOM     27  C   UNL     1      -0.256  10.299  18.860  0.00  0.00    +0.000 A 
ATOM     28  C   UNL     1       0.573   9.359  18.235  0.00  0.00    +0.000 A 
ENDBRANCH  21  22
ENDBRANCH  20  21
ENDBRANCH  19  20
ENDBRANCH   9  19
TORSDOF 7
ENDMDL
MODEL 4
REMARK VINA RESULT:      -8.0      0.912      1.295
REMARK  Name = 
REMARK  8 active torsions:
REMARK  status: ('A' for Active; 'I' for Inactive)
REMARK    1  A    between atoms: C_1  and  C_2
REMARK    2  A    between atoms: C_5  and  O_6
REMARK    3  A    between atoms: O_6  and  C_7
REMARK    4  A    between atoms: C_7  and  C_8
REMARK    5  A    between atoms: N_16  and  C_17
REMARK    6  A    between atoms: C_17  and  C_18
REMARK    7  A    between atoms: C_18  and  O_19
REMARK    8  A    between atoms: O_19  and  C_20
REMARK                            x       y       z     vdW  Elec       q    Type
REMARK                         _______ _______ _______ _____ _____    ______ ____
ROOT
ATOM      1  C   UNL     1       3.962   4.076  17.847  0.00  0.00    +0.000 A 
ATOM      2  N   UNL     1       4.297   3.074  18.640  0.00  0.00    +0.000 NA
ATOM      3  C   UNL     1       3.399   3.087  19.670  0.00  0.00    +0.000 A 
ATOM      4  C   UNL     1       3.318   2.218  20.774  0.00  0.00    +0.000 A 
ATOM      5  C   UNL     1       2.322   2.414  21.734  0.00  0.00    +0.000 A 
ATOM      6  C   UNL     1       1.419   3.457  21.598  0.00  0.00    +0.000 A 
ATOM      7  C   UNL     1       1.481   4.329  20.505  0.00  0.00    +0.000 A 
ATOM      8  C   UNL     1       2.484   4.133  19.531  0.00  0.00    +0.000 A 
ATOM      9  N   UNL     1       2.859   4.758  18.351  0.00  0.00    +0.000 N 
ENDROOT
BRANCH   1  10
ATOM     10  C   UNL     1       4.698   4.452  16.597  0.00  0.00    +0.000 C 
BRANCH  10  11
ATOM     11  O   UNL     1       6.089   4.231  16.843  0.00  0.00    +0.000 OA
BRANCH  11  16
ATOM     12  C   UNL     1       8.651   8.963  18.669  0.00  0.00    +0.000 C 
ATOM     13  C   UNL     1       8.010   7.701  18.176  0.00  0.00    +0.000 A 
ATOM     14  C   UNL     1       7.227   7.688  17.017  0.00  0.00    +0.000 A 
ATOM     15  C   UNL     1       6.612   6.504  16.593  0.00  0.00    +0.000 A 
ATOM     16  C   UNL     1       6.782   5.317  17.309  0.00  0.00    +0.000 A 
ATOM     17  C   UNL     1       7.565   5.325  18.462  0.00  0.00    +0.000 A 
ATOM     18  C   UNL     1       8.175   6.510  18.891  0.00  0.00    +0.000 A 
ENDBRANCH  11  16
ENDBRANCH  10  11
ENDBRANCH   1  10
BRANCH   9  19
ATOM     19  C   UNL     1       2.276   5.935  17.705  0.00  0.00    +0.000 C 
BRANCH  19  20
ATOM     20  C   UNL     1       2.764   7.272  18.244  0.00  0.00    +0.000 C 
BRANCH  20  21
ATOM     21  O   UNL     1       2.468   7.497  19.625  0.00  0.00    +0.000 OA
BRANCH  21  22
ATOM     22  C   UNL     1       1.533   8.498  19.794  0.00  0.00    +0.000 A 
ATOM     23  C   UNL     1       1.185   9.436  18.810  0.00  0.00    +0.000 A 
ATOM     24  C   UNL     1       0.255  10.444  19.080  0.00  0.00    +0.000 A 
ATOM     25  C   UNL     1      -0.348  10.503  20.332  0.00  0.00    +0.000 A 
ATOM     26 CL   UNL     1      -1.483  11.752  20.665  0.00  0.00    +0.000 Cl
ATOM     27  C   UNL     1      -0.037   9.559  21.307  0.00  0.00    +0.000 A 
ATOM     28  C   UNL     1       0.899   8.553  21.037  0.00  0.00    +0.000 A 
ENDBRANCH  21  22
ENDBRANCH  20  21
ENDBRANCH  19  20
ENDBRANCH   9  19
TORSDOF 7
ENDMDL
MODEL 5
REMARK VINA RESULT:      -7.8      3.344      7.364
REMARK  Name = 
REMARK  8 active torsions:
REMARK  status: ('A' for Active; 'I' for Inactive)
REMARK    1  A    between atoms: C_1  and  C_2
REMARK    2  A    between atoms: C_5  and  O_6
REMARK    3  A    between atoms: O_6  and  C_7
REMARK    4  A    between atoms: C_7  and  C_8
REMARK    5  A    between atoms: N_16  and  C_17
REMARK    6  A    between atoms: C_17  and  C_18
REMARK    7  A    between atoms: C_18  and  O_19
REMARK    8  A    between atoms: O_19  and  C_20
REMARK                            x       y       z     vdW  Elec       q    Type
REMARK                         _______ _______ _______ _____ _____    ______ ____
ROOT
ATOM      1  C   UNL     1       1.847   6.336  20.293  0.00  0.00    +0.000 A 
ATOM      2  N   UNL     1       1.536   5.243  20.966  0.00  0.00    +0.000 NA
ATOM      3  C   UNL     1       1.671   4.204  20.089  0.00  0.00    +0.000 A 
ATOM      4  C   UNL     1       1.463   2.831  20.317  0.00  0.00    +0.000 A 
ATOM      5  C   UNL     1       1.644   1.923  19.270  0.00  0.00    +0.000 A 
ATOM      6  C   UNL     1       2.025   2.373  18.016  0.00  0.00    +0.000 A 
ATOM      7  C   UNL     1       2.240   3.735  17.771  0.00  0.00    +0.000 A 
ATOM      8  C   UNL     1       2.061   4.655  18.826  0.00  0.00    +0.000 A 
ATOM      9  N   UNL     1       2.174   6.029  18.976  0.00  0.00    +0.000 N 
ENDROOT
BRANCH   1  10
ATOM     10  C   UNL     1       1.811   7.723  20.861  0.00  0.00    +0.000 C 
BRANCH  10  11
ATOM     11  O   UNL     1       0.598   8.331  20.411  0.00  0.00    +0.000 OA
BRANCH  11  16
ATOM     12  C   UNL     1      -1.413  12.841  23.224  0.00  0.00    +0.000 C 
ATOM     13  C   UNL     1      -0.851  11.651  22.506  0.00  0.00    +0.000 A 
ATOM     14  C   UNL     1      -0.322  11.763  21.215  0.00  0.00    +0.000 A 
ATOM     15  C   UNL     1       0.169  10.633  20.552  0.00  0.00    +0.000 A 
ATOM     16  C   UNL     1       0.152   9.381  21.170  0.00  0.00    +0.000 A 
ATOM     17  C   UNL     1      -0.371   9.265  22.457  0.00  0.00    +0.000 A 
ATOM     18  C   UNL     1      -0.868  10.394  23.120  0.00  0.00    +0.000 A 
ENDBRANCH  11  16
ENDBRANCH  10  11
ENDBRANCH   1  10
BRANCH   9  19
ATOM     19  C   UNL     1       2.534   7.040  17.979  0.00  0.00    +0.000 C 
BRANCH  19  20
ATOM     20  C   UNL     1       4.022   7.336  17.874  0.00  0.00    +0.000 C 
BRANCH  20  21
ATOM     21  O   UNL     1       4.868   6.195  18.048  0.00  0.00    +0.000 OA
BRANCH  21  22
ATOM     22  C   UNL     1       5.216   5.624  16.840  0.00  0.00    +0.000 A 
ATOM     23  C   UNL     1       5.230   6.304  15.613  0.00  0.00    +0.000 A 
ATOM     24  C   UNL     1       5.556   5.637  14.430  0.00  0.00    +0.000 A 
ATOM     25  C   UNL     1       5.893   4.288  14.473  0.00  0.00    +0.000 A 
ATOM     26 CL   UNL     1       6.282   3.467  13.013  0.00  0.00    +0.000 Cl
ATOM     27  C   UNL     1       5.915   3.609  15.688  0.00  0.00    +0.000 A 
ATOM     28  C   UNL     1       5.583   4.278  16.873  0.00  0.00    +0.000 A 
ENDBRANCH  21  22
ENDBRANCH  20  21
ENDBRANCH  19  20
ENDBRANCH   9  19
TORSDOF 7
ENDMDL
MODEL 6
REMARK VINA RESULT:      -7.8      1.908      3.047
REMARK  Name = 
REMARK  8 active torsions:
REMARK  status: ('A' for Active; 'I' for Inactive)
REMARK    1  A    between atoms: C_1  and  C_2
REMARK    2  A    between atoms: C_5  and  O_6
REMARK    3  A    between atoms: O_6  and  C_7
REMARK    4  A    between atoms: C_7  and  C_8
REMARK    5  A    between atoms: N_16  and  C_17
REMARK    6  A    between atoms: C_17  and  C_18
REMARK    7  A    between atoms: C_18  and  O_19
REMARK    8  A    between atoms: O_19  and  C_20
REMARK                            x       y       z     vdW  Elec       q    Type
REMARK                         _______ _______ _______ _____ _____    ______ ____
ROOT
ATOM      1  C   UNL     1       4.503   5.308  18.875  0.00  0.00    +0.000 A 
ATOM      2  N   UNL     1       4.746   4.269  19.655  0.00  0.00    +0.000 NA
ATOM      3  C   UNL     1       3.529   3.833  20.097  0.00  0.00    +0.000 A 
ATOM      4  C   UNL     1       3.242   2.749  20.948  0.00  0.00    +0.000 A 
ATOM      5  C   UNL     1       1.916   2.476  21.295  0.00  0.00    +0.000 A 
ATOM      6  C   UNL     1       0.891   3.269  20.802  0.00  0.00    +0.000 A 
ATOM      7  C   UNL     1       1.156   4.348  19.951  0.00  0.00    +0.000 A 
ATOM      8  C   UNL     1       2.494   4.626  19.597  0.00  0.00    +0.000 A 
ATOM      9  N   UNL     1       3.138   5.568  18.809  0.00  0.00    +0.000 N 
ENDROOT
BRANCH   1  10
ATOM     10  C   UNL     1       5.560   6.121  18.190  0.00  0.00    +0.000 C 
BRANCH  10  11
ATOM     11  O   UNL     1       6.539   5.206  17.693  0.00  0.00    +0.000 OA
BRANCH  11  16
ATOM     12  C   UNL     1       6.203   3.494  12.285  0.00  0.00    +0.000 C 
ATOM     13  C   UNL     1       6.261   3.970  13.706  0.00  0.00    +0.000 A 
ATOM     14  C   UNL     1       7.297   4.797  14.153  0.00  0.00    +0.000 A 
ATOM     15  C   UNL     1       7.348   5.204  15.491  0.00  0.00    +0.000 A 
ATOM     16  C   UNL     1       6.362   4.804  16.396  0.00  0.00    +0.000 A 
ATOM     17  C   UNL     1       5.326   3.982  15.953  0.00  0.00    +0.000 A 
ATOM     18  C   UNL     1       5.277   3.570  14.616  0.00  0.00    +0.000 A 
ENDBRANCH  11  16
ENDBRANCH  10  11
ENDBRANCH   1  10
BRANCH   9  19
ATOM     19  C   UNL     1       2.566   6.678  18.045  0.00  0.00    +0.000 C 
BRANCH  19  20
ATOM     20  C   UNL     1       2.206   7.906  18.868  0.00  0.00    +0.000 C 
BRANCH  20  21
ATOM     21  O   UNL     1       2.140   7.676  20.278  0.00  0.00    +0.000 OA
BRANCH  21  22
ATOM     22  C   UNL     1       1.330   8.598  20.912  0.00  0.00    +0.000 A 
ATOM     23  C   UNL     1       1.113   8.647  22.297  0.00  0.00    +0.000 A 
ATOM     24  C   UNL     1       0.244   9.589  22.851  0.00  0.00    +0.000 A 
ATOM     25  C   UNL     1      -0.397  10.504  22.022  0.00  0.00    +0.000 A 
ATOM     26 CL   UNL     1      -1.476  11.655  22.707  0.00  0.00    +0.000 Cl
ATOM     27  C   UNL     1      -0.166  10.487  20.649  0.00  0.00    +0.000 A 
ATOM     28  C   UNL     1       0.702   9.539  20.094  0.00  0.00    +0.000 A 
ENDBRANCH  21  22
ENDBRANCH  20  21
ENDBRANCH  19  20
ENDBRANCH   9  19
TORSDOF 7
ENDMDL
MODEL 7
REMARK VINA RESULT:      -7.8      1.286      1.866
REMARK  Name = 
REMARK  8 active torsions:
REMARK  status: ('A' for Active; 'I' for Inactive)
REMARK    1  A    between atoms: C_1  and  C_2
REMARK    2  A    between atoms: C_5  and  O_6
REMARK    3  A    between atoms: O_6  and  C_7
REMARK    4  A    between atoms: C_7  and  C_8
REMARK    5  A    between atoms: N_16  and  C_17
REMARK    6  A    between atoms: C_17  and  C_18
REMARK    7  A    between atoms: C_18  and  O_19
REMARK    8  A    between atoms: O_19  and  C_20
REMARK                            x       y       z     vdW  Elec       q    Type
REMARK                         _______ _______ _______ _____ _____    ______ ____
ROOT
ATOM      1  C   UNL     1       4.598   4.003  17.064  0.00  0.00    +0.000 A 
ATOM      2  N   UNL     1       4.286   2.763  17.394  0.00  0.00    +0.000 NA
ATOM      3  C   UNL     1       3.116   2.839  18.096  0.00  0.00    +0.000 A 
ATOM      4  C   UNL     1       2.365   1.793  18.662  0.00  0.00    +0.000 A 
ATOM      5  C   UNL     1       1.190   2.087  19.361  0.00  0.00    +0.000 A 
ATOM      6  C   UNL     1       0.770   3.402  19.494  0.00  0.00    +0.000 A 
ATOM      7  C   UNL     1       1.503   4.455  18.933  0.00  0.00    +0.000 A 
ATOM      8  C   UNL     1       2.688   4.162  18.225  0.00  0.00    +0.000 A 
ATOM      9  N   UNL     1       3.651   4.898  17.552  0.00  0.00    +0.000 N 
ENDROOT
BRANCH   1  10
ATOM     10  C   UNL     1       5.829   4.396  16.303  0.00  0.00    +0.000 C 
BRANCH  10  11
ATOM     11  O   UNL     1       6.901   4.473  17.245  0.00  0.00    +0.000 OA
BRANCH  11  16
ATOM     12  C   UNL     1       8.854   9.573  18.816  0.00  0.00    +0.000 C 
ATOM     13  C   UNL     1       8.302   8.239  18.410  0.00  0.00    +0.000 A 
ATOM     14  C   UNL     1       8.491   7.102  19.202  0.00  0.00    +0.000 A 
ATOM     15  C   UNL     1       7.994   5.861  18.788  0.00  0.00    +0.000 A 
ATOM     16  C   UNL     1       7.290   5.741  17.587  0.00  0.00    +0.000 A 
ATOM     17  C   UNL     1       7.097   6.873  16.796  0.00  0.00    +0.000 A 
ATOM     18  C   UNL     1       7.599   8.113  17.207  0.00  0.00    +0.000 A 
ENDBRANCH  11  16
ENDBRANCH  10  11
ENDBRANCH   1  10
BRANCH   9  19
ATOM     19  C   UNL     1       3.744   6.348  17.369  0.00  0.00    +0.000 C 
BRANCH  19  20
ATOM     20  C   UNL     1       3.241   7.176  18.542  0.00  0.00    +0.000 C 
BRANCH  20  21
ATOM     21  O   UNL     1       2.354   8.239  18.179  0.00  0.00    +0.000 OA
BRANCH  21  22
ATOM     22  C   UNL     1       1.611   8.679  19.257  0.00  0.00    +0.000 A 
ATOM     23  C   UNL     1       0.859   9.863  19.275  0.00  0.00    +0.000 A 
ATOM     24  C   UNL     1       0.168  10.254  20.424  0.00  0.00    +0.000 A 
ATOM     25  C   UNL     1       0.210   9.448  21.557  0.00  0.00    +0.000 A 
ATOM     26 CL   UNL     1      -0.632   9.939  22.975  0.00  0.00    +0.000 Cl
ATOM     27  C   UNL     1       0.926   8.254  21.543  0.00  0.00    +0.000 A 
ATOM     28  C   UNL     1       1.621   7.866  20.392  0.00  0.00    +0.000 A 
ENDBRANCH  21  22
ENDBRANCH  20  21
ENDBRANCH  19  20
ENDBRANCH   9  19
TORSDOF 7
ENDMDL
MODEL 8
REMARK VINA RESULT:      -7.7      0.614      1.400
REMARK  Name = 
REMARK  8 active torsions:
REMARK  status: ('A' for Active; 'I' for Inactive)
REMARK    1  A    between atoms: C_1  and  C_2
REMARK    2  A    between atoms: C_5  and  O_6
REMARK    3  A    between atoms: O_6  and  C_7
REMARK    4  A    between atoms: C_7  and  C_8
REMARK    5  A    between atoms: N_16  and  C_17
REMARK    6  A    between atoms: C_17  and  C_18
REMARK    7  A    between atoms: C_18  and  O_19
REMARK    8  A    between atoms: O_19  and  C_20
REMARK                            x       y       z     vdW  Elec       q    Type
REMARK                         _______ _______ _______ _____ _____    ______ ____
ROOT
ATOM      1  C   UNL     1       4.110   3.917  17.362  0.00  0.00    +0.000 A 
ATOM      2  N   UNL     1       3.877   2.744  17.922  0.00  0.00    +0.000 NA
ATOM      3  C   UNL     1       2.957   2.968  18.907  0.00  0.00    +0.000 A 
ATOM      4  C   UNL     1       2.374   2.040  19.789  0.00  0.00    +0.000 A 
ATOM      5  C   UNL     1       1.454   2.480  20.745  0.00  0.00    +0.000 A 
ATOM      6  C   UNL     1       1.119   3.824  20.822  0.00  0.00    +0.000 A 
ATOM      7  C   UNL     1       1.685   4.761  19.949  0.00  0.00    +0.000 A 
ATOM      8  C   UNL     1       2.613   4.319  18.981  0.00  0.00    +0.000 A 
ATOM      9  N   UNL     1       3.361   4.916  17.977  0.00  0.00    +0.000 N 
ENDROOT
BRANCH   1  10
ATOM     10  C   UNL     1       5.081   4.147  16.244  0.00  0.00    +0.000 C 
BRANCH  10  11
ATOM     11  O   UNL     1       6.393   4.116  16.812  0.00  0.00    +0.000 OA
BRANCH  11  16
ATOM     12  C   UNL     1       8.716   8.932  18.734  0.00  0.00    +0.000 C 
ATOM     13  C   UNL     1       8.067   7.676  18.235  0.00  0.00    +0.000 A 
ATOM     14  C   UNL     1       8.159   6.477  18.951  0.00  0.00    +0.000 A 
ATOM     15  C   UNL     1       7.572   5.309  18.451  0.00  0.00    +0.000 A 
ATOM     16  C   UNL     1       6.875   5.324  17.241  0.00  0.00    +0.000 A 
ATOM     17  C   UNL     1       6.779   6.517  16.527  0.00  0.00    +0.000 A 
ATOM     18  C   UNL     1       7.370   7.685  17.023  0.00  0.00    +0.000 A 
ENDBRANCH  11  16
ENDBRANCH  10  11
ENDBRANCH   1  10
BRANCH   9  19
ATOM     19  C   UNL     1       3.431   6.327  17.593  0.00  0.00    +0.000 C 
BRANCH  19  20
ATOM     20  C   UNL     1       2.568   7.263  18.427  0.00  0.00    +0.000 C 
BRANCH  20  21
ATOM     21  O   UNL     1       2.278   8.516  17.801  0.00  0.00    +0.000 OA
BRANCH  21  22
ATOM     22  C   UNL     1       1.327   9.232  18.501  0.00  0.00    +0.000 A 
ATOM     23  C   UNL     1       0.262   9.928  17.910  0.00  0.00    +0.000 A 
ATOM     24  C   UNL     1      -0.633  10.662  18.692  0.00  0.00    +0.000 A 
ATOM     25  C   UNL     1      -0.479  10.685  20.074  0.00  0.00    +0.000 A 
ATOM     26 CL   UNL     1      -1.575  11.599  21.033  0.00  0.00    +0.000 Cl
ATOM     27  C   UNL     1       0.555   9.972  20.676  0.00  0.00    +0.000 A 
ATOM     28  C   UNL     1       1.454   9.240  19.891  0.00  0.00    +0.000 A 
ENDBRANCH  21  22
ENDBRANCH  20  21
ENDBRANCH  19  20
ENDBRANCH   9  19
TORSDOF 7
ENDMDL
MODEL 9
REMARK VINA RESULT:      -7.7      1.881      3.184
REMARK  Name = 
REMARK  8 active torsions:
REMARK  status: ('A' for Active; 'I' for Inactive)
REMARK    1  A    between atoms: C_1  and  C_2
REMARK    2  A    between atoms: C_5  and  O_6
REMARK    3  A    between atoms: O_6  and  C_7
REMARK    4  A    between atoms: C_7  and  C_8
REMARK    5  A    between atoms: N_16  and  C_17
REMARK    6  A    between atoms: C_17  and  C_18
REMARK    7  A    between atoms: C_18  and  O_19
REMARK    8  A    between atoms: O_19  and  C_20
REMARK                            x       y       z     vdW  Elec       q    Type
REMARK                         _______ _______ _______ _____ _____    ______ ____
ROOT
ATOM      1  C   UNL     1       4.784   5.187  18.819  0.00  0.00    +0.000 A 
ATOM      2  N   UNL     1       4.992   4.028  19.417  0.00  0.00    +0.000 NA
ATOM      3  C   UNL     1       3.808   3.685  20.006  0.00  0.00    +0.000 A 
ATOM      4  C   UNL     1       3.503   2.536  20.758  0.00  0.00    +0.000 A 
ATOM      5  C   UNL     1       2.220   2.381  21.291  0.00  0.00    +0.000 A 
ATOM      6  C   UNL     1       1.255   3.353  21.078  0.00  0.00    +0.000 A 
ATOM      7  C   UNL     1       1.539   4.501  20.328  0.00  0.00    +0.000 A 
ATOM      8  C   UNL     1       2.832   4.660  19.786  0.00  0.00    +0.000 A 
ATOM      9  N   UNL     1       3.477   5.618  19.017  0.00  0.00    +0.000 N 
ENDROOT
BRANCH   1  10
ATOM     10  C   UNL     1       5.829   5.953  18.064  0.00  0.00    +0.000 C 
BRANCH  10  11
ATOM     11  O   UNL     1       6.791   5.005  17.596  0.00  0.00    +0.000 OA
BRANCH  11  16
ATOM     12  C   UNL     1       5.922   3.565  12.168  0.00  0.00    +0.000 C 
ATOM     13  C   UNL     1       6.184   3.923  13.601  0.00  0.00    +0.000 A 
ATOM     14  C   UNL     1       5.391   3.413  14.634  0.00  0.00    +0.000 A 
ATOM     15  C   UNL     1       5.634   3.785  15.961  0.00  0.00    +0.000 A 
ATOM     16  C   UNL     1       6.678   4.657  16.276  0.00  0.00    +0.000 A 
ATOM     17  C   UNL     1       7.473   5.165  15.250  0.00  0.00    +0.000 A 
ATOM     18  C   UNL     1       7.227   4.799  13.921  0.00  0.00    +0.000 A 
ENDBRANCH  11  16
ENDBRANCH  10  11
ENDBRANCH   1  10
BRANCH   9  19
ATOM     19  C   UNL     1       2.959   6.886  18.498  0.00  0.00    +0.000 C 
BRANCH  19  20
ATOM     20  C   UNL     1       2.178   7.720  19.503  0.00  0.00    +0.000 C 
BRANCH  20  21
ATOM     21  O   UNL     1       1.540   8.873  18.946  0.00  0.00    +0.000 OA
BRANCH  21  22
ATOM     22  C   UNL     1       0.778   9.541  19.884  0.00  0.00    +0.000 A 
ATOM     23  C   UNL     1       0.093  10.742  19.643  0.00  0.00    +0.000 A 
ATOM     24  C   UNL     1      -0.623  11.373  20.663  0.00  0.00    +0.000 A 
ATOM     25  C   UNL     1      -0.676  10.792  21.926  0.00  0.00    +0.000 A 
ATOM     26 CL   UNL     1      -1.549  11.578  23.182  0.00  0.00    +0.000 Cl
ATOM     27  C   UNL     1      -0.028   9.584  22.170  0.00  0.00    +0.000 A 
ATOM     28  C   UNL     1       0.693   8.955  21.148  0.00  0.00    +0.000 A 
ENDBRANCH  21  22
ENDBRANCH  20  21
ENDBRANCH  19  20
ENDBRANCH   9  19
TORSDOF 7
ENDMDL
