MODEL 1
REMARK VINA RESULT:     -10.1      0.000      0.000
REMARK  Name = 
REMARK  6 active torsions:
REMARK  status: ('A' for Active; 'I' for Inactive)
REMARK    1  A    between atoms: O_1  and  N_2
REMARK    2  A    between atoms: C_3  and  C_12
REMARK    3  A    between atoms: N_4  and  C_5
REMARK    4  A    between atoms: C_5  and  C_6
REMARK    5  A    between atoms: C_17  and  O_18
REMARK    6  A    between atoms: O_18  and  C_19
REMARK                            x       y       z     vdW  Elec       q    Type
REMARK                         _______ _______ _______ _____ _____    ______ ____
ROOT
ATOM      1  C   UNL     1       3.966   4.040  18.163  0.00  0.00    +0.000 A 
ATOM      2  C   UNL     1       3.586   2.830  17.546  0.00  0.00    +0.000 A 
ATOM      3  C   UNL     1       2.315   2.306  17.742  0.00  0.00    +0.000 A 
ATOM      4  C   UNL     1       1.437   3.017  18.533  0.00  0.00    +0.000 A 
ATOM      5  N   UNL     1       1.754   4.178  19.140  0.00  0.00    +0.000 NA
ATOM      6  C   UNL     1       3.023   4.657  18.986  0.00  0.00    +0.000 A 
ENDROOT
BRANCH   1   8
ATOM      7  N   UNL     1       6.213   4.291  18.835  0.00  0.00    +0.000 NA
ATOM      8  C   UNL     1       5.354   4.561  17.888  0.00  0.00    +0.000 C 
ATOM      9  N   UNL     1       5.560   5.276  16.719  0.00  0.00    +0.000 N 
ATOM     10  H   UNL     1       4.796   5.243  16.048  0.00  0.00    +0.000 HD
BRANCH   7  11
ATOM     11  O   UNL     1       7.482   4.827  18.640  0.00  0.00    +0.000 OA
ATOM     12  H   UNL     1       8.024   4.028  18.500  0.00  0.00    +0.000 HD
ENDBRANCH   7  11
BRANCH   9  13
ATOM     13  C   UNL     1       6.846   5.438  16.072  0.00  0.00    +0.000 C 
BRANCH  13  14
ATOM     14  C   UNL     1       6.802   4.859  14.686  0.00  0.00    +0.000 A 
ATOM     15  C   UNL     1       5.825   3.924  14.324  0.00  0.00    +0.000 A 
ATOM     16  C   UNL     1       5.770   3.452  13.017  0.00  0.00    +0.000 A 
ATOM     17  C   UNL     1       6.700   3.929  12.109  0.00  0.00    +0.000 A 
ATOM     18  N   UNL     1       7.663   4.827  12.423  0.00  0.00    +0.000 NA
ATOM     19  C   UNL     1       7.690   5.271  13.700  0.00  0.00    +0.000 A 
ENDBRANCH  13  14
ENDBRANCH   9  13
ENDBRANCH   1   8
BRANCH   6  20
ATOM     20  O   UNL     1       3.369   5.817  19.687  0.00  0.00    +0.000 OA
BRANCH  20  21
ATOM     21  C   UNL     1       2.573   6.939  19.495  0.00  0.00    +0.000 A 
ATOM     22  C   UNL     1       2.529   7.615  18.268  0.00  0.00    +0.000 A 
ATOM     23  C   UNL     1       1.831   8.813  18.124  0.00  0.00    +0.000 A 
ATOM     24  C   UNL     1       1.163   9.281  19.249  0.00  0.00    +0.000 A 
ATOM     25  O   UNL     1       0.531  10.481  19.326  0.00  0.00    +0.000 OA
ATOM     26  C   UNL     1       0.040  10.587  20.588  0.00  0.00    +0.000 A 
ATOM     27  C   UNL     1      -0.601  11.714  21.101  0.00  0.00    +0.000 A 
ATOM     28  C   UNL     1      -1.049  11.632  22.421  0.00  0.00    +0.000 A 
ATOM     29  C   UNL     1      -0.890  10.457  23.161  0.00  0.00    +0.000 A 
ATOM     30  C   UNL     1      -0.228   9.341  22.620  0.00  0.00    +0.000 A 
ATOM     31  C   UNL     1       0.278   9.419  21.308  0.00  0.00    +0.000 A 
ATOM     32  C   UNL     1       1.085   8.595  20.455  0.00  0.00    +0.000 A 
ATOM     33  C   UNL     1       1.786   7.373  20.580  0.00  0.00    +0.000 A 
ENDBRANCH  20  21
ENDBRANCH   6  20
TORSDOF 6
ENDMDL
MODEL 2
REMARK VINA RESULT:      -9.4      2.348      2.919
REMARK  Name = 
REMARK  6 active torsions:
REMARK  status: ('A' for Active; 'I' for Inactive)
REMARK    1  A    between atoms: O_1  and  N_2
REMARK    2  A    between atoms: C_3  and  C_12
REMARK    3  A    between atoms: N_4  and  C_5
REMARK    4  A    between atoms: C_5  and  C_6
REMARK    5  A    between atoms: C_17  and  O_18
REMARK    6  A    between atoms: O_18  and  C_19
REMARK                            x       y       z     vdW  Elec       q    Type
REMARK                         _______ _______ _______ _____ _____    ______ ____
ROOT
ATOM      1  C   UNL     1       3.665   3.811  19.316  0.00  0.00    +0.000 A 
ATOM      2  C   UNL     1       3.175   2.616  19.882  0.00  0.00    +0.000 A 
ATOM      3  C   UNL     1       2.118   2.642  20.783  0.00  0.00    +0.000 A 
ATOM      4  C   UNL     1       1.553   3.863  21.082  0.00  0.00    +0.000 A 
ATOM      5  N   UNL     1       1.986   5.031  20.564  0.00  0.00    +0.000 NA
ATOM      6  C   UNL     1       3.059   5.001  19.721  0.00  0.00    +0.000 A 
ENDROOT
BRANCH   1   8
ATOM      7  N   UNL     1       4.439   3.241  17.162  0.00  0.00    +0.000 NA
ATOM      8  C   UNL     1       4.799   3.704  18.328  0.00  0.00    +0.000 C 
ATOM      9  N   UNL     1       6.068   4.063  18.755  0.00  0.00    +0.000 N 
ATOM     10  H   UNL     1       6.107   4.541  19.653  0.00  0.00    +0.000 HD
BRANCH   7  11
ATOM     11  O   UNL     1       5.480   3.061  16.257  0.00  0.00    +0.000 OA
ATOM     12  H   UNL     1       6.245   3.408  16.752  0.00  0.00    +0.000 HD
ENDBRANCH   7  11
BRANCH   9  13
ATOM     13  C   UNL     1       7.145   4.470  17.876  0.00  0.00    +0.000 C 
BRANCH  13  14
ATOM     14  C   UNL     1       7.271   5.968  17.873  0.00  0.00    +0.000 A 
ATOM     15  C   UNL     1       8.204   6.616  18.691  0.00  0.00    +0.000 A 
ATOM     16  C   UNL     1       8.340   7.998  18.623  0.00  0.00    +0.000 A 
ATOM     17  C   UNL     1       7.534   8.693  17.738  0.00  0.00    +0.000 A 
ATOM     18  N   UNL     1       6.616   8.103  16.936  0.00  0.00    +0.000 NA
ATOM     19  C   UNL     1       6.508   6.757  17.022  0.00  0.00    +0.000 A 
ENDBRANCH  13  14
ENDBRANCH   9  13
ENDBRANCH   1   8
BRANCH   6  20
ATOM     20  O   UNL     1       3.553   6.223  19.254  0.00  0.00    +0.000 OA
BRANCH  20  21
ATOM     21  C   UNL     1       2.656   7.279  19.158  0.00  0.00    +0.000 A 
ATOM     22  C   UNL     1       2.472   7.986  17.962  0.00  0.00    +0.000 A 
ATOM     23  C   UNL     1       1.669   9.125  17.910  0.00  0.00    +0.000 A 
ATOM     24  C   UNL     1       1.043   9.498  19.093  0.00  0.00    +0.000 A 
ATOM     25  O   UNL     1       0.321  10.637  19.256  0.00  0.00    +0.000 OA
ATOM     26  C   UNL     1      -0.090  10.660  20.551  0.00  0.00    +0.000 A 
ATOM     27  C   UNL     1      -0.785  11.711  21.147  0.00  0.00    +0.000 A 
ATOM     28  C   UNL     1      -1.134  11.549  22.489  0.00  0.00    +0.000 A 
ATOM     29  C   UNL     1      -0.826  10.369  23.172  0.00  0.00    +0.000 A 
ATOM     30  C   UNL     1      -0.113   9.332  22.548  0.00  0.00    +0.000 A 
ATOM     31  C   UNL     1       0.293   9.495  21.209  0.00  0.00    +0.000 A 
ATOM     32  C   UNL     1       1.106   8.770  20.275  0.00  0.00    +0.000 A 
ATOM     33  C   UNL     1       1.912   7.609  20.307  0.00  0.00    +0.000 A 
ENDBRANCH  20  21
ENDBRANCH   6  20
TORSDOF 6
ENDMDL
MODEL 3
REMARK VINA RESULT:      -9.1      0.942      1.065
REMARK  Name = 
REMARK  6 active torsions:
REMARK  status: ('A' for Active; 'I' for Inactive)
REMARK    1  A    between atoms: O_1  and  N_2
REMARK    2  A    between atoms: C_3  and  C_12
REMARK    3  A    between atoms: N_4  and  C_5
REMARK    4  A    between atoms: C_5  and  C_6
REMARK    5  A    between atoms: C_17  and  O_18
REMARK    6  A    between atoms: O_18  and  C_19
REMARK                            x       y       z     vdW  Elec       q    Type
REMARK                         _______ _______ _______ _____ _____    ______ ____
ROOT
ATOM      1  C   UNL     1       3.406   4.268  19.009  0.00  0.00    +0.000 A 
ATOM      2  C   UNL     1       3.146   3.078  18.298  0.00  0.00    +0.000 A 
ATOM      3  C   UNL     1       1.898   2.470  18.371  0.00  0.00    +0.000 A 
ATOM      4  C   UNL     1       0.926   3.079  19.135  0.00  0.00    +0.000 A 
ATOM      5  N   UNL     1       1.128   4.217  19.830  0.00  0.00    +0.000 NA
ATOM      6  C   UNL     1       2.373   4.778  19.795  0.00  0.00    +0.000 A 
ENDROOT
BRANCH   1   8
ATOM      7  N   UNL     1       5.630   4.478  19.766  0.00  0.00    +0.000 NA
ATOM      8  C   UNL     1       4.775   4.884  18.866  0.00  0.00    +0.000 C 
ATOM      9  N   UNL     1       4.968   5.810  17.853  0.00  0.00    +0.000 N 
ATOM     10  H   UNL     1       4.216   5.872  17.170  0.00  0.00    +0.000 HD
BRANCH   7  11
ATOM     11  O   UNL     1       6.879   5.088  19.702  0.00  0.00    +0.000 OA
ATOM     12  H   UNL     1       7.073   5.260  20.642  0.00  0.00    +0.000 HD
ENDBRANCH   7  11
BRANCH   9  13
ATOM     13  C   UNL     1       6.256   6.138  17.276  0.00  0.00    +0.000 C 
BRANCH  13  14
ATOM     14  C   UNL     1       6.411   5.459  15.944  0.00  0.00    +0.000 A 
ATOM     15  C   UNL     1       5.387   4.667  15.413  0.00  0.00    +0.000 A 
ATOM     16  C   UNL     1       5.534   4.101  14.151  0.00  0.00    +0.000 A 
ATOM     17  C   UNL     1       6.707   4.344  13.457  0.00  0.00    +0.000 A 
ATOM     18  N   UNL     1       7.722   5.098  13.940  0.00  0.00    +0.000 NA
ATOM     19  C   UNL     1       7.550   5.638  15.168  0.00  0.00    +0.000 A 
ENDBRANCH  13  14
ENDBRANCH   9  13
ENDBRANCH   1   8
BRANCH   6  20
ATOM     20  O   UNL     1       2.596   5.911  20.584  0.00  0.00    +0.000 OA
BRANCH  20  21
ATOM     21  C   UNL     1       1.999   7.098  20.181  0.00  0.00    +0.000 A 
ATOM     22  C   UNL     1       2.171   7.610  18.888  0.00  0.00    +0.000 A 
ATOM     23  C   UNL     1       1.677   8.866  18.533  0.00  0.00    +0.000 A 
ATOM     24  C   UNL     1       0.984   9.560  19.517  0.00  0.00    +0.000 A 
ATOM     25  O   UNL     1       0.535  10.836  19.388  0.00  0.00    +0.000 OA
ATOM     26  C   UNL     1      -0.050  11.168  20.568  0.00  0.00    +0.000 A 
ATOM     27  C   UNL     1      -0.560  12.428  20.876  0.00  0.00    +0.000 A 
ATOM     28  C   UNL     1      -1.137  12.577  22.139  0.00  0.00    +0.000 A 
ATOM     29  C   UNL     1      -1.225  11.496  23.020  0.00  0.00    +0.000 A 
ATOM     30  C   UNL     1      -0.690  10.240  22.685  0.00  0.00    +0.000 A 
ATOM     31  C   UNL     1      -0.058  10.080  21.436  0.00  0.00    +0.000 A 
ATOM     32  C   UNL     1       0.693   9.050  20.777  0.00  0.00    +0.000 A 
ATOM     33  C   UNL     1       1.188   7.770  21.115  0.00  0.00    +0.000 A 
ENDBRANCH  20  21
ENDBRANCH   6  20
TORSDOF 6
ENDMDL
MODEL 4
REMARK VINA RESULT:      -9.0      1.017      1.109
REMARK  Name = 
REMARK  6 active torsions:
REMARK  status: ('A' for Active; 'I' for Inactive)
REMARK    1  A    between atoms: O_1  and  N_2
REMARK    2  A    between atoms: C_3  and  C_12
REMARK    3  A    between atoms: N_4  and  C_5
REMARK    4  A    between atoms: C_5  and  C_6
REMARK    5  A    between atoms: C_17  and  O_18
REMARK    6  A    between atoms: O_18  and  C_19
REMARK                            x       y       z     vdW  Elec       q    Type
REMARK                         _______ _______ _______ _____ _____    ______ ____
ROOT
ATOM      1  C   UNL     1       3.358   4.362  17.841  0.00  0.00    +0.000 A 
ATOM      2  C   UNL     1       2.871   3.089  17.480  0.00  0.00    +0.000 A 
ATOM      3  C   UNL     1       1.827   2.505  18.188  0.00  0.00    +0.000 A 
ATOM      4  C   UNL     1       1.273   3.218  19.229  0.00  0.00    +0.000 A 
ATOM      5  N   UNL     1       1.704   4.439  19.608  0.00  0.00    +0.000 NA
ATOM      6  C   UNL     1       2.765   4.981  18.942  0.00  0.00    +0.000 A 
ENDROOT
BRANCH   1   8
ATOM      7  N   UNL     1       4.347   6.221  16.779  0.00  0.00    +0.000 NA
ATOM      8  C   UNL     1       4.478   4.943  17.015  0.00  0.00    +0.000 C 
ATOM      9  N   UNL     1       5.476   4.086  16.580  0.00  0.00    +0.000 N 
ATOM     10  H   UNL     1       5.470   3.160  17.000  0.00  0.00    +0.000 HD
BRANCH   7  11
ATOM     11  O   UNL     1       5.327   6.765  15.955  0.00  0.00    +0.000 OA
ATOM     12  H   UNL     1       5.919   7.197  16.597  0.00  0.00    +0.000 HD
ENDBRANCH   7  11
BRANCH   9  13
ATOM     13  C   UNL     1       6.812   4.505  16.206  0.00  0.00    +0.000 C 
BRANCH  13  14
ATOM     14  C   UNL     1       6.955   4.493  14.709  0.00  0.00    +0.000 A 
ATOM     15  C   UNL     1       6.179   3.640  13.916  0.00  0.00    +0.000 A 
ATOM     16  C   UNL     1       6.290   3.694  12.531  0.00  0.00    +0.000 A 
ATOM     17  C   UNL     1       7.178   4.602  11.980  0.00  0.00    +0.000 A 
ATOM     18  N   UNL     1       7.950   5.437  12.713  0.00  0.00    +0.000 NA
ATOM     19  C   UNL     1       7.819   5.365  14.058  0.00  0.00    +0.000 A 
ENDBRANCH  13  14
ENDBRANCH   9  13
ENDBRANCH   1   8
BRANCH   6  20
ATOM     20  O   UNL     1       3.258   6.208  19.396  0.00  0.00    +0.000 OA
BRANCH  20  21
ATOM     21  C   UNL     1       2.420   7.311  19.291  0.00  0.00    +0.000 A 
ATOM     22  C   UNL     1       2.306   8.042  18.101  0.00  0.00    +0.000 A 
ATOM     23  C   UNL     1       1.564   9.222  18.043  0.00  0.00    +0.000 A 
ATOM     24  C   UNL     1       0.927   9.613  19.215  0.00  0.00    +0.000 A 
ATOM     25  O   UNL     1       0.261  10.786  19.375  0.00  0.00    +0.000 OA
ATOM     26  C   UNL     1      -0.183  10.814  20.659  0.00  0.00    +0.000 A 
ATOM     27  C   UNL     1      -0.838  11.892  21.251  0.00  0.00    +0.000 A 
ATOM     28  C   UNL     1      -1.231  11.731  22.582  0.00  0.00    +0.000 A 
ATOM     29  C   UNL     1      -1.004  10.528  23.255  0.00  0.00    +0.000 A 
ATOM     30  C   UNL     1      -0.330   9.463  22.635  0.00  0.00    +0.000 A 
ATOM     31  C   UNL     1       0.120   9.621  21.310  0.00  0.00    +0.000 A 
ATOM     32  C   UNL     1       0.920   8.867  20.388  0.00  0.00    +0.000 A 
ATOM     33  C   UNL     1       1.663   7.665  20.425  0.00  0.00    +0.000 A 
ENDBRANCH  20  21
ENDBRANCH   6  20
TORSDOF 6
ENDMDL
MODEL 5
REMARK VINA RESULT:      -9.0      2.192      8.648
REMARK  Name = 
REMARK  6 active torsions:
REMARK  status: ('A' for Active; 'I' for Inactive)
REMARK    1  A    between atoms: O_1  and  N_2
REMARK    2  A    between atoms: C_3  and  C_12
REMARK    3  A    between atoms: N_4  and  C_5
REMARK    4  A    between atoms: C_5  and  C_6
REMARK    5  A    between atoms: C_17  and  O_18
REMARK    6  A    between atoms: O_18  and  C_19
REMARK                            x       y       z     vdW  Elec       q    Type
REMARK                         _______ _______ _______ _____ _____    ______ ____
ROOT
ATOM      1  C   UNL     1       2.528   4.767  18.849  0.00  0.00    +0.000 A 
ATOM      2  C   UNL     1       1.326   4.155  18.438  0.00  0.00    +0.000 A 
ATOM      3  C   UNL     1       1.172   2.777  18.516  0.00  0.00    +0.000 A 
ATOM      4  C   UNL     1       2.216   2.038  19.031  0.00  0.00    +0.000 A 
ATOM      5  N   UNL     1       3.382   2.579  19.440  0.00  0.00    +0.000 NA
ATOM      6  C   UNL     1       3.544   3.928  19.308  0.00  0.00    +0.000 A 
ENDROOT
BRANCH   1   8
ATOM      7  N   UNL     1       3.119   6.697  17.629  0.00  0.00    +0.000 NA
ATOM      8  C   UNL     1       2.617   6.270  18.756  0.00  0.00    +0.000 C 
ATOM      9  N   UNL     1       2.204   7.014  19.850  0.00  0.00    +0.000 N 
ATOM     10  H   UNL     1       1.705   6.494  20.568  0.00  0.00    +0.000 HD
BRANCH   7  11
ATOM     11  O   UNL     1       3.282   8.076  17.548  0.00  0.00    +0.000 OA
ATOM     12  H   UNL     1       3.737   8.180  16.692  0.00  0.00    +0.000 HD
ENDBRANCH   7  11
BRANCH   9  13
ATOM     13  C   UNL     1       1.780   8.398  19.787  0.00  0.00    +0.000 C 
BRANCH  13  14
ATOM     14  C   UNL     1       1.107   8.789  21.073  0.00  0.00    +0.000 A 
ATOM     15  C   UNL     1      -0.282   8.703  21.217  0.00  0.00    +0.000 A 
ATOM     16  C   UNL     1      -0.871   9.013  22.438  0.00  0.00    +0.000 A 
ATOM     17  C   UNL     1      -0.049   9.404  23.481  0.00  0.00    +0.000 A 
ATOM     18  N   UNL     1       1.297   9.507  23.378  0.00  0.00    +0.000 NA
ATOM     19  C   UNL     1       1.842   9.196  22.180  0.00  0.00    +0.000 A 
ENDBRANCH  13  14
ENDBRANCH   9  13
ENDBRANCH   1   8
BRANCH   6  20
ATOM     20  O   UNL     1       4.786   4.470  19.656  0.00  0.00    +0.000 OA
BRANCH  20  21
ATOM     21  C   UNL     1       5.659   4.779  18.622  0.00  0.00    +0.000 A 
ATOM     22  C   UNL     1       6.697   5.707  18.782  0.00  0.00    +0.000 A 
ATOM     23  C   UNL     1       7.485   6.108  17.704  0.00  0.00    +0.000 A 
ATOM     24  C   UNL     1       7.205   5.518  16.477  0.00  0.00    +0.000 A 
ATOM     25  O   UNL     1       7.790   5.868  15.302  0.00  0.00    +0.000 OA
ATOM     26  C   UNL     1       7.227   5.096  14.337  0.00  0.00    +0.000 A 
ATOM     27  C   UNL     1       7.490   5.210  12.973  0.00  0.00    +0.000 A 
ATOM     28  C   UNL     1       6.822   4.318  12.130  0.00  0.00    +0.000 A 
ATOM     29  C   UNL     1       5.968   3.343  12.652  0.00  0.00    +0.000 A 
ATOM     30  C   UNL     1       5.713   3.261  14.031  0.00  0.00    +0.000 A 
ATOM     31  C   UNL     1       6.336   4.183  14.895  0.00  0.00    +0.000 A 
ATOM     32  C   UNL     1       6.262   4.514  16.289  0.00  0.00    +0.000 A 
ATOM     33  C   UNL     1       5.482   4.108  17.396  0.00  0.00    +0.000 A 
ENDBRANCH  20  21
ENDBRANCH   6  20
TORSDOF 6
ENDMDL
MODEL 6
REMARK VINA RESULT:      -9.0      1.014      1.783
REMARK  Name = 
REMARK  6 active torsions:
REMARK  status: ('A' for Active; 'I' for Inactive)
REMARK    1  A    between atoms: O_1  and  N_2
REMARK    2  A    between atoms: C_3  and  C_12
REMARK    3  A    between atoms: N_4  and  C_5
REMARK    4  A    between atoms: C_5  and  C_6
REMARK    5  A    between atoms: C_17  and  O_18
REMARK    6  A    between atoms: O_18  and  C_19
REMARK                            x       y       z     vdW  Elec       q    Type
REMARK                         _______ _______ _______ _____ _____    ______ ____
ROOT
ATOM      1  C   UNL     1       3.855   4.171  17.902  0.00  0.00    +0.000 A 
ATOM      2  C   UNL     1       3.584   2.799  18.080  0.00  0.00    +0.000 A 
ATOM      3  C   UNL     1       2.280   2.353  18.250  0.00  0.00    +0.000 A 
ATOM      4  C   UNL     1       1.267   3.287  18.213  0.00  0.00    +0.000 A 
ATOM      5  N   UNL     1       1.477   4.608  18.043  0.00  0.00    +0.000 NA
ATOM      6  C   UNL     1       2.767   5.043  17.931  0.00  0.00    +0.000 A 
ENDROOT
BRANCH   1   8
ATOM      7  N   UNL     1       6.072   4.266  18.701  0.00  0.00    +0.000 NA
ATOM      8  C   UNL     1       5.293   4.581  17.702  0.00  0.00    +0.000 C 
ATOM      9  N   UNL     1       5.619   5.257  16.537  0.00  0.00    +0.000 N 
ATOM     10  H   UNL     1       4.895   5.268  15.822  0.00  0.00    +0.000 HD
BRANCH   7  11
ATOM     11  O   UNL     1       7.388   4.701  18.575  0.00  0.00    +0.000 OA
ATOM     12  H   UNL     1       7.890   3.872  18.680  0.00  0.00    +0.000 HD
ENDBRANCH   7  11
BRANCH   9  13
ATOM     13  C   UNL     1       6.949   5.309  15.965  0.00  0.00    +0.000 C 
BRANCH  13  14
ATOM     14  C   UNL     1       6.921   4.804  14.549  0.00  0.00    +0.000 A 
ATOM     15  C   UNL     1       6.012   3.817  14.152  0.00  0.00    +0.000 A 
ATOM     16  C   UNL     1       5.968   3.412  12.823  0.00  0.00    +0.000 A 
ATOM     17  C   UNL     1       6.839   4.009  11.927  0.00  0.00    +0.000 A 
ATOM     18  N   UNL     1       7.736   4.961  12.274  0.00  0.00    +0.000 NA
ATOM     19  C   UNL     1       7.754   5.337  13.573  0.00  0.00    +0.000 A 
ENDBRANCH  13  14
ENDBRANCH   9  13
ENDBRANCH   1   8
BRANCH   6  20
ATOM     20  O   UNL     1       2.981   6.422  17.839  0.00  0.00    +0.000 OA
BRANCH  20  21
ATOM     21  C   UNL     1       2.386   7.226  18.804  0.00  0.00    +0.000 A 
ATOM     22  C   UNL     1       2.249   6.807  20.134  0.00  0.00    +0.000 A 
ATOM     23  C   UNL     1       1.536   7.564  21.063  0.00  0.00    +0.000 A 
ATOM     24  C   UNL     1       0.998   8.761  20.607  0.00  0.00    +0.000 A 
ATOM     25  O   UNL     1       0.181   9.566  21.335  0.00  0.00    +0.000 OA
ATOM     26  C   UNL     1      -0.160  10.608  20.534  0.00  0.00    +0.000 A 
ATOM     27  C   UNL     1      -1.061  11.615  20.878  0.00  0.00    +0.000 A 
ATOM     28  C   UNL     1      -1.278  12.613  19.925  0.00  0.00    +0.000 A 
ATOM     29  C   UNL     1      -0.587  12.606  18.710  0.00  0.00    +0.000 A 
ATOM     30  C   UNL     1       0.307  11.571  18.387  0.00  0.00    +0.000 A 
ATOM     31  C   UNL     1       0.502  10.527  19.312  0.00  0.00    +0.000 A 
ATOM     32  C   UNL     1       1.198   9.272  19.330  0.00  0.00    +0.000 A 
ATOM     33  C   UNL     1       1.938   8.500  18.405  0.00  0.00    +0.000 A 
ENDBRANCH  20  21
ENDBRANCH   6  20
TORSDOF 6
ENDMDL
MODEL 7
REMARK VINA RESULT:      -8.8      1.926      2.777
REMARK  Name = 
REMARK  6 active torsions:
REMARK  status: ('A' for Active; 'I' for Inactive)
REMARK    1  A    between atoms: O_1  and  N_2
REMARK    2  A    between atoms: C_3  and  C_12
REMARK    3  A    between atoms: N_4  and  C_5
REMARK    4  A    between atoms: C_5  and  C_6
REMARK    5  A    between atoms: C_17  and  O_18
REMARK    6  A    between atoms: O_18  and  C_19
REMARK                            x       y       z     vdW  Elec       q    Type
REMARK                         _______ _______ _______ _____ _____    ______ ____
ROOT
ATOM      1  C   UNL     1       3.411   3.761  17.771  0.00  0.00    +0.000 A 
ATOM      2  C   UNL     1       2.775   2.502  17.769  0.00  0.00    +0.000 A 
ATOM      3  C   UNL     1       1.703   2.251  18.616  0.00  0.00    +0.000 A 
ATOM      4  C   UNL     1       1.270   3.274  19.432  0.00  0.00    +0.000 A 
ATOM      5  N   UNL     1       1.845   4.494  19.466  0.00  0.00    +0.000 NA
ATOM      6  C   UNL     1       2.931   4.714  18.670  0.00  0.00    +0.000 A 
ENDROOT
BRANCH   1   8
ATOM      7  N   UNL     1       4.182   4.421  15.642  0.00  0.00    +0.000 NA
ATOM      8  C   UNL     1       4.554   3.970  16.810  0.00  0.00    +0.000 C 
ATOM      9  N   UNL     1       5.830   3.640  17.237  0.00  0.00    +0.000 N 
ATOM     10  H   UNL     1       5.921   3.448  18.232  0.00  0.00    +0.000 HD
BRANCH   7  11
ATOM     11  O   UNL     1       5.209   4.550  14.712  0.00  0.00    +0.000 OA
ATOM     12  H   UNL     1       4.721   4.746  13.892  0.00  0.00    +0.000 HD
ENDBRANCH   7  11
BRANCH   9  13
ATOM     13  C   UNL     1       7.050   4.184  16.675  0.00  0.00    +0.000 C 
BRANCH  13  14
ATOM     14  C   UNL     1       7.375   5.499  17.327  0.00  0.00    +0.000 A 
ATOM     15  C   UNL     1       7.898   5.552  18.624  0.00  0.00    +0.000 A 
ATOM     16  C   UNL     1       8.247   6.779  19.179  0.00  0.00    +0.000 A 
ATOM     17  C   UNL     1       8.059   7.919  18.417  0.00  0.00    +0.000 A 
ATOM     18  N   UNL     1       7.550   7.909  17.163  0.00  0.00    +0.000 NA
ATOM     19  C   UNL     1       7.223   6.702  16.648  0.00  0.00    +0.000 A 
ENDBRANCH  13  14
ENDBRANCH   9  13
ENDBRANCH   1   8
BRANCH   6  20
ATOM     20  O   UNL     1       3.571   5.953  18.773  0.00  0.00    +0.000 OA
BRANCH  20  21
ATOM     21  C   UNL     1       2.768   7.086  18.796  0.00  0.00    +0.000 A 
ATOM     22  C   UNL     1       2.662   7.940  17.691  0.00  0.00    +0.000 A 
ATOM     23  C   UNL     1       1.959   9.143  17.768  0.00  0.00    +0.000 A 
ATOM     24  C   UNL     1       1.350   9.429  18.984  0.00  0.00    +0.000 A 
ATOM     25  O   UNL     1       0.725  10.599  19.276  0.00  0.00    +0.000 OA
ATOM     26  C   UNL     1       0.300  10.507  20.563  0.00  0.00    +0.000 A 
ATOM     27  C   UNL     1      -0.312  11.538  21.274  0.00  0.00    +0.000 A 
ATOM     28  C   UNL     1      -0.692  11.252  22.587  0.00  0.00    +0.000 A 
ATOM     29  C   UNL     1      -0.496   9.979  23.129  0.00  0.00    +0.000 A 
ATOM     30  C   UNL     1       0.135   8.963  22.391  0.00  0.00    +0.000 A 
ATOM     31  C   UNL     1       0.573   9.245  21.082  0.00  0.00    +0.000 A 
ATOM     32  C   UNL     1       1.334   8.565  20.073  0.00  0.00    +0.000 A 
ATOM     33  C   UNL     1       2.038   7.344  19.973  0.00  0.00    +0.000 A 
ENDBRANCH  20  21
ENDBRANCH   6  20
TORSDOF 6
ENDMDL
MODEL 8
REMARK VINA RESULT:      -8.8      2.169      2.935
REMARK  Name = 
REMARK  6 active torsions:
REMARK  status: ('A' for Active; 'I' for Inactive)
REMARK    1  A    between atoms: O_1  and  N_2
REMARK    2  A    between atoms: C_3  and  C_12
REMARK    3  A    between atoms: N_4  and  C_5
REMARK    4  A    between atoms: C_5  and  C_6
REMARK    5  A    between atoms: C_17  and  O_18
REMARK    6  A    between atoms: O_18  and  C_19
REMARK                            x       y       z     vdW  Elec       q    Type
REMARK                         _______ _______ _______ _____ _____    ______ ____
ROOT
ATOM      1  C   UNL     1       3.337   3.834  19.047  0.00  0.00    +0.000 A 
ATOM      2  C   UNL     1       2.835   2.577  19.439  0.00  0.00    +0.000 A 
ATOM      3  C   UNL     1       2.002   2.462  20.545  0.00  0.00    +0.000 A 
ATOM      4  C   UNL     1       1.666   3.614  21.224  0.00  0.00    +0.000 A 
ATOM      5  N   UNL     1       2.119   4.838  20.884  0.00  0.00    +0.000 NA
ATOM      6  C   UNL     1       2.980   4.933  19.829  0.00  0.00    +0.000 A 
ENDROOT
BRANCH   1   8
ATOM      7  N   UNL     1       3.563   4.096  16.714  0.00  0.00    +0.000 NA
ATOM      8  C   UNL     1       4.218   3.887  17.824  0.00  0.00    +0.000 C 
ATOM      9  N   UNL     1       5.578   3.680  17.994  0.00  0.00    +0.000 N 
ATOM     10  H   UNL     1       5.903   3.684  18.958  0.00  0.00    +0.000 HD
BRANCH   7  11
ATOM     11  O   UNL     1       4.344   4.073  15.563  0.00  0.00    +0.000 OA
ATOM     12  H   UNL     1       4.496   3.118  15.436  0.00  0.00    +0.000 HD
ENDBRANCH   7  11
BRANCH   9  13
ATOM     13  C   UNL     1       6.599   4.139  17.074  0.00  0.00    +0.000 C 
BRANCH  13  14
ATOM     14  C   UNL     1       7.189   5.432  17.565  0.00  0.00    +0.000 A 
ATOM     15  C   UNL     1       7.052   6.614  16.828  0.00  0.00    +0.000 A 
ATOM     16  C   UNL     1       7.555   7.807  17.336  0.00  0.00    +0.000 A 
ATOM     17  C   UNL     1       8.186   7.780  18.568  0.00  0.00    +0.000 A 
ATOM     18  N   UNL     1       8.345   6.656  19.306  0.00  0.00    +0.000 NA
ATOM     19  C   UNL     1       7.842   5.512  18.788  0.00  0.00    +0.000 A 
ENDBRANCH  13  14
ENDBRANCH   9  13
ENDBRANCH   1   8
BRANCH   6  20
ATOM     20  O   UNL     1       3.511   6.194  19.536  0.00  0.00    +0.000 OA
BRANCH  20  21
ATOM     21  C   UNL     1       2.613   7.239  19.361  0.00  0.00    +0.000 A 
ATOM     22  C   UNL     1       2.453   7.876  18.123  0.00  0.00    +0.000 A 
ATOM     23  C   UNL     1       1.648   9.007  17.988  0.00  0.00    +0.000 A 
ATOM     24  C   UNL     1       0.996   9.445  19.134  0.00  0.00    +0.000 A 
ATOM     25  O   UNL     1       0.268  10.589  19.217  0.00  0.00    +0.000 OA
ATOM     26  C   UNL     1      -0.169  10.685  20.500  0.00  0.00    +0.000 A 
ATOM     27  C   UNL     1      -0.880  11.766  21.019  0.00  0.00    +0.000 A 
ATOM     28  C   UNL     1      -1.256  11.680  22.362  0.00  0.00    +0.000 A 
ATOM     29  C   UNL     1      -0.960  10.542  23.118  0.00  0.00    +0.000 A 
ATOM     30  C   UNL     1      -0.232   9.473  22.569  0.00  0.00    +0.000 A 
ATOM     31  C   UNL     1       0.202   9.560  21.231  0.00  0.00    +0.000 A 
ATOM     32  C   UNL     1       1.036   8.786  20.358  0.00  0.00    +0.000 A 
ATOM     33  C   UNL     1       1.844   7.632  20.473  0.00  0.00    +0.000 A 
ENDBRANCH  20  21
ENDBRANCH   6  20
TORSDOF 6
ENDMDL
MODEL 9
REMARK VINA RESULT:      -8.8      2.127      2.888
REMARK  Name = 
REMARK  6 active torsions:
REMARK  status: ('A' for Active; 'I' for Inactive)
REMARK    1  A    between atoms: O_1  and  N_2
REMARK    2  A    between atoms: C_3  and  C_12
REMARK    3  A    between atoms: N_4  and  C_5
REMARK    4  A    between atoms: C_5  and  C_6
REMARK    5  A    between atoms: C_17  and  O_18
REMARK    6  A    between atoms: O_18  and  C_19
REMARK                            x       y       z     vdW  Elec       q    Type
REMARK                         _______ _______ _______ _____ _____    ______ ____
ROOT
ATOM      1  C   UNL     1       2.918   3.780  18.442  0.00  0.00    +0.000 A 
ATOM      2  C   UNL     1       2.258   2.561  18.185  0.00  0.00    +0.000 A 
ATOM      3  C   UNL     1       1.105   2.221  18.881  0.00  0.00    +0.000 A 
ATOM      4  C   UNL     1       0.619   3.121  19.806  0.00  0.00    +0.000 A 
ATOM      5  N   UNL     1       1.214   4.299  20.083  0.00  0.00    +0.000 NA
ATOM      6  C   UNL     1       2.376   4.600  19.432  0.00  0.00    +0.000 A 
ENDROOT
BRANCH   1   8
ATOM      7  N   UNL     1       4.566   3.095  16.901  0.00  0.00    +0.000 NA
ATOM      8  C   UNL     1       4.152   4.093  17.632  0.00  0.00    +0.000 C 
ATOM      9  N   UNL     1       4.717   5.351  17.771  0.00  0.00    +0.000 N 
ATOM     10  H   UNL     1       4.153   6.030  18.276  0.00  0.00    +0.000 HD
BRANCH   7  11
ATOM     11  O   UNL     1       5.746   3.333  16.203  0.00  0.00    +0.000 OA
ATOM     12  H   UNL     1       5.777   4.307  16.177  0.00  0.00    +0.000 HD
ENDBRANCH   7  11
BRANCH   9  13
ATOM     13  C   UNL     1       5.569   5.980  16.782  0.00  0.00    +0.000 C 
BRANCH  13  14
ATOM     14  C   UNL     1       6.620   6.812  17.463  0.00  0.00    +0.000 A 
ATOM     15  C   UNL     1       7.471   6.255  18.425  0.00  0.00    +0.000 A 
ATOM     16  C   UNL     1       8.474   7.032  18.994  0.00  0.00    +0.000 A 
ATOM     17  C   UNL     1       8.594   8.349  18.584  0.00  0.00    +0.000 A 
ATOM     18  N   UNL     1       7.786   8.925  17.662  0.00  0.00    +0.000 NA
ATOM     19  C   UNL     1       6.823   8.143  17.124  0.00  0.00    +0.000 A 
ENDBRANCH  13  14
ENDBRANCH   9  13
ENDBRANCH   1   8
BRANCH   6  20
ATOM     20  O   UNL     1       3.031   5.784  19.786  0.00  0.00    +0.000 OA
BRANCH  20  21
ATOM     21  C   UNL     1       2.341   6.975  19.598  0.00  0.00    +0.000 A 
ATOM     22  C   UNL     1       2.424   7.697  18.400  0.00  0.00    +0.000 A 
ATOM     23  C   UNL     1       1.835   8.954  18.268  0.00  0.00    +0.000 A 
ATOM     24  C   UNL     1       1.142   9.434  19.373  0.00  0.00    +0.000 A 
ATOM     25  O   UNL     1       0.607  10.678  19.465  0.00  0.00    +0.000 OA
ATOM     26  C   UNL     1       0.052  10.778  20.702  0.00  0.00    +0.000 A 
ATOM     27  C   UNL     1      -0.524  11.934  21.225  0.00  0.00    +0.000 A 
ATOM     28  C   UNL     1      -1.055  11.840  22.514  0.00  0.00    +0.000 A 
ATOM     29  C   UNL     1      -1.034  10.629  23.211  0.00  0.00    +0.000 A 
ATOM     30  C   UNL     1      -0.435   9.483  22.661  0.00  0.00    +0.000 A 
ATOM     31  C   UNL     1       0.152   9.568  21.383  0.00  0.00    +0.000 A 
ATOM     32  C   UNL     1       0.939   8.711  20.543  0.00  0.00    +0.000 A 
ATOM     33  C   UNL     1       1.529   7.432  20.655  0.00  0.00    +0.000 A 
ENDBRANCH  20  21
ENDBRANCH   6  20
TORSDOF 6
ENDMDL
