MODEL 1
REMARK VINA RESULT:      -8.0      0.000      0.000
REMARK  Name = 
REMARK  9 active torsions:
REMARK  status: ('A' for Active; 'I' for Inactive)
REMARK    1  A    between atoms: C_1  and  C_2
REMARK    2  A    between atoms: C_2  and  C_3
REMARK    3  A    between atoms: C_3  and  C_4
REMARK    4  A    between atoms: C_4  and  C_5
REMARK    5  A    between atoms: C_13  and  C_14
REMARK    6  A    between atoms: C_14  and  C_15
REMARK    7  A    between atoms: C_15  and  N_16
REMARK    8  A    between atoms: C_22  and  C_23
REMARK    9  A    between atoms: C_29  and  C_30
REMARK                            x       y       z     vdW  Elec       q    Type
REMARK                         _______ _______ _______ _____ _____    ______ ____
ROOT
ATOM      1  C   UNL     1       0.587  11.537  18.580  0.00  0.00    +0.000 C 
ATOM      2  C   UNL     1      -0.672  12.245  19.167  0.00  0.00    +0.000 C 
ATOM      3  C   UNL     1      -0.778  12.293  20.708  0.00  0.00    +0.000 C 
ATOM      4  C   UNL     1      -0.352  10.995  21.321  0.00  0.00    +0.000 A 
ATOM      5  C   UNL     1      -0.634  10.617  22.638  0.00  0.00    +0.000 A 
ATOM      6  C   UNL     1      -0.181   9.396  23.144  0.00  0.00    +0.000 A 
ATOM      7  C   UNL     1       0.573   8.518  22.350  0.00  0.00    +0.000 A 
ATOM      8  C   UNL     1       0.885   8.886  21.026  0.00  0.00    +0.000 A 
ATOM      9  C   UNL     1       1.605   8.289  19.943  0.00  0.00    +0.000 A 
ATOM     10  C   UNL     1       1.546   9.166  18.859  0.00  0.00    +0.000 A 
ATOM     11  C   UNL     1       2.076   9.031  17.475  0.00  0.00    +0.000 C 
ATOM     12  N   UNL     1       0.870  10.286  19.288  0.00  0.00    +0.000 N 
ATOM     13  C   UNL     1       0.424  10.107  20.573  0.00  0.00    +0.000 A 
ENDROOT
BRANCH   1  14
ATOM     14  C   UNL     1       1.831  12.450  18.475  0.00  0.00    +0.000 C 
BRANCH  14  15
ATOM     15  C   UNL     1       2.299  13.066  19.793  0.00  0.00    +0.000 C 
BRANCH  15  17
ATOM     16  C   UNL     1       3.490  15.247  20.056  0.00  0.00    +0.000 C 
ATOM     17  C   UNL     1       2.139  14.584  19.825  0.00  0.00    +0.000 C 
ENDBRANCH  15  17
ENDBRANCH  14  15
ENDBRANCH   1  14
BRANCH   9  18
ATOM     18  C   UNL     1       2.283   6.949  19.997  0.00  0.00    +0.000 C 
BRANCH  18  19
ATOM     19  C   UNL     1       2.921   6.571  18.646  0.00  0.00    +0.000 C 
BRANCH  19  20
ATOM     20  N   UNL     1       4.232   5.907  18.770  0.00  0.00    +0.000 NA
ATOM     21  C   UNL     1       4.253   4.535  18.217  0.00  0.00    +0.000 C 
ATOM     22  C   UNL     1       4.148   4.432  16.678  0.00  0.00    +0.000 C 
ATOM     23  N   UNL     1       5.143   5.290  16.042  0.00  0.00    +0.000 N 
ATOM     24  C   UNL     1       5.759   4.956  14.858  0.00  0.00    +0.000 A 
ATOM     25  C   UNL     1       5.194   4.037  13.972  0.00  0.00    +0.000 A 
ATOM     26  C   UNL     1       5.877   3.636  12.819  0.00  0.00    +0.000 A 
ATOM     27  C   UNL     1       5.272   2.645  11.874  0.00  0.00    +0.000 C 
ATOM     28  C   UNL     1       7.144   4.160  12.591  0.00  0.00    +0.000 A 
ATOM     29  C   UNL     1       7.636   5.083  13.496  0.00  0.00    +0.000 A 
ATOM     30  N   UNL     1       6.968   5.496  14.595  0.00  0.00    +0.000 NA
ATOM     31  C   UNL     1       5.246   6.667  16.533  0.00  0.00    +0.000 C 
ATOM     32  C   UNL     1       5.294   6.690  18.081  0.00  0.00    +0.000 C 
ENDBRANCH  19  20
ENDBRANCH  18  19
ENDBRANCH   9  18
TORSDOF 6
ENDMDL
MODEL 2
REMARK VINA RESULT:      -7.9      3.288      6.245
REMARK  Name = 
REMARK  9 active torsions:
REMARK  status: ('A' for Active; 'I' for Inactive)
REMARK    1  A    between atoms: C_1  and  C_2
REMARK    2  A    between atoms: C_2  and  C_3
REMARK    3  A    between atoms: C_3  and  C_4
REMARK    4  A    between atoms: C_4  and  C_5
REMARK    5  A    between atoms: C_13  and  C_14
REMARK    6  A    between atoms: C_14  and  C_15
REMARK    7  A    between atoms: C_15  and  N_16
REMARK    8  A    between atoms: C_22  and  C_23
REMARK    9  A    between atoms: C_29  and  C_30
REMARK                            x       y       z     vdW  Elec       q    Type
REMARK                         _______ _______ _______ _____ _____    ______ ____
ROOT
ATOM      1  C   UNL     1      -5.038  12.703  20.643  0.00  0.00    +0.000 C 
ATOM      2  C   UNL     1      -5.710  12.613  22.047  0.00  0.00    +0.000 C 
ATOM      3  C   UNL     1      -5.186  13.589  23.124  0.00  0.00    +0.000 C 
ATOM      4  C   UNL     1      -3.695  13.710  23.066  0.00  0.00    +0.000 A 
ATOM      5  C   UNL     1      -2.909  14.248  24.090  0.00  0.00    +0.000 A 
ATOM      6  C   UNL     1      -1.523  14.347  23.950  0.00  0.00    +0.000 A 
ATOM      7  C   UNL     1      -0.880  13.915  22.779  0.00  0.00    +0.000 A 
ATOM      8  C   UNL     1      -1.653  13.388  21.727  0.00  0.00    +0.000 A 
ATOM      9  C   UNL     1      -1.382  12.863  20.423  0.00  0.00    +0.000 A 
ATOM     10  C   UNL     1      -2.599  12.479  19.858  0.00  0.00    +0.000 A 
ATOM     11  C   UNL     1      -2.897  11.833  18.551  0.00  0.00    +0.000 C 
ATOM     12  N   UNL     1      -3.582  12.819  20.759  0.00  0.00    +0.000 N 
ATOM     13  C   UNL     1      -3.021  13.319  21.907  0.00  0.00    +0.000 A 
ENDROOT
BRANCH   1  14
ATOM     14  C   UNL     1      -5.645  13.789  19.723  0.00  0.00    +0.000 C 
BRANCH  14  15
ATOM     15  C   UNL     1      -6.337  13.265  18.466  0.00  0.00    +0.000 C 
BRANCH  15  17
ATOM     16  C   UNL     1      -6.697  10.792  18.411  0.00  0.00    +0.000 C 
ATOM     17  C   UNL     1      -7.321  12.136  18.761  0.00  0.00    +0.000 C 
ENDBRANCH  15  17
ENDBRANCH  14  15
ENDBRANCH   1  14
BRANCH   9  18
ATOM     18  C   UNL     1      -0.015  12.750  19.810  0.00  0.00    +0.000 C 
BRANCH  18  19
ATOM     19  C   UNL     1       0.679  11.427  20.186  0.00  0.00    +0.000 C 
BRANCH  19  20
ATOM     20  N   UNL     1      -0.056  10.223  19.751  0.00  0.00    +0.000 NA
ATOM     21  C   UNL     1       0.222   9.838  18.351  0.00  0.00    +0.000 C 
ATOM     22  C   UNL     1       1.640   9.287  18.077  0.00  0.00    +0.000 C 
ATOM     23  N   UNL     1       1.957   8.211  19.011  0.00  0.00    +0.000 N 
ATOM     24  C   UNL     1       2.734   7.131  18.659  0.00  0.00    +0.000 A 
ATOM     25  C   UNL     1       3.615   7.183  17.578  0.00  0.00    +0.000 A 
ATOM     26  C   UNL     1       4.326   6.048  17.174  0.00  0.00    +0.000 A 
ATOM     27  C   UNL     1       5.266   6.106  16.009  0.00  0.00    +0.000 C 
ATOM     28  C   UNL     1       4.114   4.861  17.863  0.00  0.00    +0.000 A 
ATOM     29  C   UNL     1       3.245   4.882  18.938  0.00  0.00    +0.000 A 
ATOM     30  N   UNL     1       2.579   5.982  19.352  0.00  0.00    +0.000 NA
ATOM     31  C   UNL     1       1.688   8.459  20.430  0.00  0.00    +0.000 C 
ATOM     32  C   UNL     1       0.271   9.057  20.617  0.00  0.00    +0.000 C 
ENDBRANCH  19  20
ENDBRANCH  18  19
ENDBRANCH   9  18
TORSDOF 6
ENDMDL
MODEL 3
REMARK VINA RESULT:      -7.9      4.029      6.952
REMARK  Name = 
REMARK  9 active torsions:
REMARK  status: ('A' for Active; 'I' for Inactive)
REMARK    1  A    between atoms: C_1  and  C_2
REMARK    2  A    between atoms: C_2  and  C_3
REMARK    3  A    between atoms: C_3  and  C_4
REMARK    4  A    between atoms: C_4  and  C_5
REMARK    5  A    between atoms: C_13  and  C_14
REMARK    6  A    between atoms: C_14  and  C_15
REMARK    7  A    between atoms: C_15  and  N_16
REMARK    8  A    between atoms: C_22  and  C_23
REMARK    9  A    between atoms: C_29  and  C_30
REMARK                            x       y       z     vdW  Elec       q    Type
REMARK                         _______ _______ _______ _____ _____    ______ ____
ROOT
ATOM      1  C   UNL     1      -5.931  11.564  18.129  0.00  0.00    +0.000 C 
ATOM      2  C   UNL     1      -7.113  11.255  19.098  0.00  0.00    +0.000 C 
ATOM      3  C   UNL     1      -7.266  12.194  20.317  0.00  0.00    +0.000 C 
ATOM      4  C   UNL     1      -5.935  12.525  20.916  0.00  0.00    +0.000 A 
ATOM      5  C   UNL     1      -5.760  13.072  22.191  0.00  0.00    +0.000 A 
ATOM      6  C   UNL     1      -4.483  13.374  22.671  0.00  0.00    +0.000 A 
ATOM      7  C   UNL     1      -3.342  13.143  21.887  0.00  0.00    +0.000 A 
ATOM      8  C   UNL     1      -3.495  12.610  20.592  0.00  0.00    +0.000 A 
ATOM      9  C   UNL     1      -2.611  12.247  19.526  0.00  0.00    +0.000 A 
ATOM     10  C   UNL     1      -3.390  11.751  18.480  0.00  0.00    +0.000 A 
ATOM     11  C   UNL     1      -2.992  11.189  17.160  0.00  0.00    +0.000 C 
ATOM     12  N   UNL     1      -4.705  11.869  18.870  0.00  0.00    +0.000 N 
ATOM     13  C   UNL     1      -4.777  12.336  20.158  0.00  0.00    +0.000 A 
ENDROOT
BRANCH   1  14
ATOM     14  C   UNL     1      -6.257  12.633  17.060  0.00  0.00    +0.000 C 
BRANCH  14  15
ATOM     15  C   UNL     1      -7.409  13.573  17.410  0.00  0.00    +0.000 C 
BRANCH  15  17
ATOM     16  C   UNL     1      -7.917  15.956  16.851  0.00  0.00    +0.000 C 
ATOM     17  C   UNL     1      -6.959  15.022  17.578  0.00  0.00    +0.000 C 
ENDBRANCH  15  17
ENDBRANCH  14  15
ENDBRANCH   1  14
BRANCH   9  18
ATOM     18  C   UNL     1      -1.115  12.381  19.567  0.00  0.00    +0.000 C 
BRANCH  18  19
ATOM     19  C   UNL     1      -0.409  11.100  19.081  0.00  0.00    +0.000 C 
BRANCH  19  20
ATOM     20  N   UNL     1       1.020  11.033  19.442  0.00  0.00    +0.000 NA
ATOM     21  C   UNL     1       1.277  10.294  20.698  0.00  0.00    +0.000 C 
ATOM     22  C   UNL     1       1.039   8.768  20.637  0.00  0.00    +0.000 C 
ATOM     23  N   UNL     1       1.756   8.186  19.507  0.00  0.00    +0.000 N 
ATOM     24  C   UNL     1       2.304   6.924  19.549  0.00  0.00    +0.000 A 
ATOM     25  C   UNL     1       1.861   5.963  20.459  0.00  0.00    +0.000 A 
ATOM     26  C   UNL     1       2.492   4.718  20.554  0.00  0.00    +0.000 A 
ATOM     27  C   UNL     1       2.019   3.691  21.536  0.00  0.00    +0.000 C 
ATOM     28  C   UNL     1       3.587   4.473  19.735  0.00  0.00    +0.000 A 
ATOM     29  C   UNL     1       3.960   5.458  18.840  0.00  0.00    +0.000 A 
ATOM     30  N   UNL     1       3.336   6.651  18.722  0.00  0.00    +0.000 NA
ATOM     31  C   UNL     1       1.612   8.855  18.211  0.00  0.00    +0.000 C 
ATOM     32  C   UNL     1       1.813  10.383  18.363  0.00  0.00    +0.000 C 
ENDBRANCH  19  20
ENDBRANCH  18  19
ENDBRANCH   9  18
TORSDOF 6
ENDMDL
MODEL 4
REMARK VINA RESULT:      -7.9      2.032      9.829
REMARK  Name = 
REMARK  9 active torsions:
REMARK  status: ('A' for Active; 'I' for Inactive)
REMARK    1  A    between atoms: C_1  and  C_2
REMARK    2  A    between atoms: C_2  and  C_3
REMARK    3  A    between atoms: C_3  and  C_4
REMARK    4  A    between atoms: C_4  and  C_5
REMARK    5  A    between atoms: C_13  and  C_14
REMARK    6  A    between atoms: C_14  and  C_15
REMARK    7  A    between atoms: C_15  and  N_16
REMARK    8  A    between atoms: C_22  and  C_23
REMARK    9  A    between atoms: C_29  and  C_30
REMARK                            x       y       z     vdW  Elec       q    Type
REMARK                         _______ _______ _______ _____ _____    ______ ____
ROOT
ATOM      1  C   UNL     1       5.413   4.730  18.015  0.00  0.00    +0.000 C 
ATOM      2  C   UNL     1       5.777   3.759  19.179  0.00  0.00    +0.000 C 
ATOM      3  C   UNL     1       4.623   2.899  19.743  0.00  0.00    +0.000 C 
ATOM      4  C   UNL     1       3.361   3.696  19.861  0.00  0.00    +0.000 A 
ATOM      5  C   UNL     1       2.254   3.307  20.622  0.00  0.00    +0.000 A 
ATOM      6  C   UNL     1       1.103   4.097  20.664  0.00  0.00    +0.000 A 
ATOM      7  C   UNL     1       1.021   5.298  19.942  0.00  0.00    +0.000 A 
ATOM      8  C   UNL     1       2.117   5.700  19.153  0.00  0.00    +0.000 A 
ATOM      9  C   UNL     1       2.410   6.813  18.303  0.00  0.00    +0.000 A 
ATOM     10  C   UNL     1       3.702   6.639  17.805  0.00  0.00    +0.000 A 
ATOM     11  C   UNL     1       4.523   7.511  16.922  0.00  0.00    +0.000 C 
ATOM     12  N   UNL     1       4.154   5.430  18.283  0.00  0.00    +0.000 N 
ATOM     13  C   UNL     1       3.230   4.882  19.135  0.00  0.00    +0.000 A 
ENDROOT
BRANCH   1  14
ATOM     14  C   UNL     1       5.436   4.072  16.615  0.00  0.00    +0.000 C 
BRANCH  14  15
ATOM     15  C   UNL     1       6.742   4.238  15.839  0.00  0.00    +0.000 C 
BRANCH  15  17
ATOM     16  C   UNL     1       5.944   3.875  13.499  0.00  0.00    +0.000 C 
ATOM     17  C   UNL     1       6.537   4.885  14.472  0.00  0.00    +0.000 C 
ENDBRANCH  15  17
ENDBRANCH  14  15
ENDBRANCH   1  14
BRANCH   9  18
ATOM     18  C   UNL     1       1.471   7.954  18.027  0.00  0.00    +0.000 C 
BRANCH  18  19
ATOM     19  C   UNL     1       1.924   9.253  18.722  0.00  0.00    +0.000 C 
BRANCH  19  20
ATOM     20  N   UNL     1       1.227  10.461  18.241  0.00  0.00    +0.000 NA
ATOM     21  C   UNL     1      -0.233  10.433  18.478  0.00  0.00    +0.000 C 
ATOM     22  C   UNL     1      -0.674  10.551  19.955  0.00  0.00    +0.000 C 
ATOM     23  N   UNL     1      -0.044  11.707  20.583  0.00  0.00    +0.000 N 
ATOM     24  C   UNL     1      -0.673  12.459  21.549  0.00  0.00    +0.000 A 
ATOM     25  C   UNL     1      -1.733  11.949  22.300  0.00  0.00    +0.000 A 
ATOM     26  C   UNL     1      -2.424  12.755  23.210  0.00  0.00    +0.000 A 
ATOM     27  C   UNL     1      -3.565  12.207  24.010  0.00  0.00    +0.000 C 
ATOM     28  C   UNL     1      -2.043  14.086  23.328  0.00  0.00    +0.000 A 
ATOM     29  C   UNL     1      -0.971  14.523  22.572  0.00  0.00    +0.000 A 
ATOM     30  N   UNL     1      -0.280  13.741  21.714  0.00  0.00    +0.000 NA
ATOM     31  C   UNL     1       1.400  11.868  20.387  0.00  0.00    +0.000 C 
ATOM     32  C   UNL     1       1.769  11.685  18.893  0.00  0.00    +0.000 C 
ENDBRANCH  19  20
ENDBRANCH  18  19
ENDBRANCH   9  18
TORSDOF 6
ENDMDL
MODEL 5
REMARK VINA RESULT:      -7.7      2.371      9.648
REMARK  Name = 
REMARK  9 active torsions:
REMARK  status: ('A' for Active; 'I' for Inactive)
REMARK    1  A    between atoms: C_1  and  C_2
REMARK    2  A    between atoms: C_2  and  C_3
REMARK    3  A    between atoms: C_3  and  C_4
REMARK    4  A    between atoms: C_4  and  C_5
REMARK    5  A    between atoms: C_13  and  C_14
REMARK    6  A    between atoms: C_14  and  C_15
REMARK    7  A    between atoms: C_15  and  N_16
REMARK    8  A    between atoms: C_22  and  C_23
REMARK    9  A    between atoms: C_29  and  C_30
REMARK                            x       y       z     vdW  Elec       q    Type
REMARK                         _______ _______ _______ _____ _____    ______ ____
ROOT
ATOM      1  C   UNL     1       5.359   4.609  17.920  0.00  0.00    +0.000 C 
ATOM      2  C   UNL     1       5.668   3.571  19.042  0.00  0.00    +0.000 C 
ATOM      3  C   UNL     1       4.458   2.800  19.617  0.00  0.00    +0.000 C 
ATOM      4  C   UNL     1       3.278   3.702  19.801  0.00  0.00    +0.000 A 
ATOM      5  C   UNL     1       2.163   3.390  20.585  0.00  0.00    +0.000 A 
ATOM      6  C   UNL     1       1.090   4.278  20.688  0.00  0.00    +0.000 A 
ATOM      7  C   UNL     1       1.096   5.505  20.005  0.00  0.00    +0.000 A 
ATOM      8  C   UNL     1       2.200   5.832  19.194  0.00  0.00    +0.000 A 
ATOM      9  C   UNL     1       2.568   6.942  18.369  0.00  0.00    +0.000 A 
ATOM     10  C   UNL     1       3.823   6.670  17.824  0.00  0.00    +0.000 A 
ATOM     11  C   UNL     1       4.694   7.492  16.941  0.00  0.00    +0.000 C 
ATOM     12  N   UNL     1       4.178   5.410  18.250  0.00  0.00    +0.000 N 
ATOM     13  C   UNL     1       3.233   4.919  19.115  0.00  0.00    +0.000 A 
ENDROOT
BRANCH   1  14
ATOM     14  C   UNL     1       5.281   3.998  16.502  0.00  0.00    +0.000 C 
BRANCH  14  15
ATOM     15  C   UNL     1       6.588   4.020  15.711  0.00  0.00    +0.000 C 
BRANCH  15  17
ATOM     16  C   UNL     1       5.536   3.868  13.449  0.00  0.00    +0.000 C 
ATOM     17  C   UNL     1       6.443   4.695  14.349  0.00  0.00    +0.000 C 
ENDBRANCH  15  17
ENDBRANCH  14  15
ENDBRANCH   1  14
BRANCH   9  18
ATOM     18  C   UNL     1       1.729   8.172  18.158  0.00  0.00    +0.000 C 
BRANCH  18  19
ATOM     19  C   UNL     1       1.431   8.900  19.483  0.00  0.00    +0.000 C 
BRANCH  19  20
ATOM     20  N   UNL     1       1.394  10.370  19.361  0.00  0.00    +0.000 NA
ATOM     21  C   UNL     1       0.631  10.844  18.186  0.00  0.00    +0.000 C 
ATOM     22  C   UNL     1      -0.900  10.633  18.253  0.00  0.00    +0.000 C 
ATOM     23  N   UNL     1      -1.433  11.170  19.501  0.00  0.00    +0.000 N 
ATOM     24  C   UNL     1      -2.680  11.745  19.586  0.00  0.00    +0.000 A 
ATOM     25  C   UNL     1      -3.676  11.478  18.645  0.00  0.00    +0.000 A 
ATOM     26  C   UNL     1      -4.905  12.144  18.690  0.00  0.00    +0.000 A 
ATOM     27  C   UNL     1      -5.969  11.860  17.675  0.00  0.00    +0.000 C 
ATOM     28  C   UNL     1      -5.100  13.096  19.683  0.00  0.00    +0.000 A 
ATOM     29  C   UNL     1      -4.082  13.297  20.597  0.00  0.00    +0.000 A 
ATOM     30  N   UNL     1      -2.905  12.635  20.576  0.00  0.00    +0.000 NA
ATOM     31  C   UNL     1      -0.735  10.802  20.736  0.00  0.00    +0.000 C 
ATOM     32  C   UNL     1       0.794  10.991  20.574  0.00  0.00    +0.000 C 
ENDBRANCH  19  20
ENDBRANCH  18  19
ENDBRANCH   9  18
TORSDOF 6
ENDMDL
MODEL 6
REMARK VINA RESULT:      -7.7      3.502      6.356
REMARK  Name = 
REMARK  9 active torsions:
REMARK  status: ('A' for Active; 'I' for Inactive)
REMARK    1  A    between atoms: C_1  and  C_2
REMARK    2  A    between atoms: C_2  and  C_3
REMARK    3  A    between atoms: C_3  and  C_4
REMARK    4  A    between atoms: C_4  and  C_5
REMARK    5  A    between atoms: C_13  and  C_14
REMARK    6  A    between atoms: C_14  and  C_15
REMARK    7  A    between atoms: C_15  and  N_16
REMARK    8  A    between atoms: C_22  and  C_23
REMARK    9  A    between atoms: C_29  and  C_30
REMARK                            x       y       z     vdW  Elec       q    Type
REMARK                         _______ _______ _______ _____ _____    ______ ____
ROOT
ATOM      1  C   UNL     1      -5.778  12.694  20.421  0.00  0.00    +0.000 C 
ATOM      2  C   UNL     1      -6.159  12.472  21.917  0.00  0.00    +0.000 C 
ATOM      3  C   UNL     1      -5.228  13.119  22.967  0.00  0.00    +0.000 C 
ATOM      4  C   UNL     1      -3.789  12.973  22.579  0.00  0.00    +0.000 A 
ATOM      5  C   UNL     1      -2.715  13.159  23.455  0.00  0.00    +0.000 A 
ATOM      6  C   UNL     1      -1.398  13.025  23.010  0.00  0.00    +0.000 A 
ATOM      7  C   UNL     1      -1.114  12.706  21.673  0.00  0.00    +0.000 A 
ATOM      8  C   UNL     1      -2.179  12.533  20.768  0.00  0.00    +0.000 A 
ATOM      9  C   UNL     1      -2.297  12.215  19.377  0.00  0.00    +0.000 A 
ATOM     10  C   UNL     1      -3.656  12.173  19.065  0.00  0.00    +0.000 A 
ATOM     11  C   UNL     1      -4.345  11.844  17.787  0.00  0.00    +0.000 C 
ATOM     12  N   UNL     1      -4.340  12.516  20.209  0.00  0.00    +0.000 N 
ATOM     13  C   UNL     1      -3.464  12.684  21.251  0.00  0.00    +0.000 A 
ENDROOT
BRANCH   1  14
ATOM     14  C   UNL     1      -6.303  14.023  19.829  0.00  0.00    +0.000 C 
BRANCH  14  15
ATOM     15  C   UNL     1      -5.388  15.230  20.030  0.00  0.00    +0.000 C 
BRANCH  15  17
ATOM     16  C   UNL     1      -4.808  16.660  21.996  0.00  0.00    +0.000 C 
ATOM     17  C   UNL     1      -5.927  16.214  21.066  0.00  0.00    +0.000 C 
ENDBRANCH  15  17
ENDBRANCH  14  15
ENDBRANCH   1  14
BRANCH   9  18
ATOM     18  C   UNL     1      -1.139  11.968  18.451  0.00  0.00    +0.000 C 
BRANCH  18  19
ATOM     19  C   UNL     1      -0.513  10.577  18.670  0.00  0.00    +0.000 C 
BRANCH  19  20
ATOM     20  N   UNL     1       0.888  10.618  19.128  0.00  0.00    +0.000 NA
ATOM     21  C   UNL     1       1.106   9.931  20.420  0.00  0.00    +0.000 C 
ATOM     22  C   UNL     1       0.976   8.391  20.389  0.00  0.00    +0.000 C 
ATOM     23  N   UNL     1       1.807   7.831  19.328  0.00  0.00    +0.000 N 
ATOM     24  C   UNL     1       2.434   6.612  19.445  0.00  0.00    +0.000 A 
ATOM     25  C   UNL     1       1.995   5.646  20.352  0.00  0.00    +0.000 A 
ATOM     26  C   UNL     1       2.699   4.450  20.527  0.00  0.00    +0.000 A 
ATOM     27  C   UNL     1       2.229   3.419  21.505  0.00  0.00    +0.000 C 
ATOM     28  C   UNL     1       3.863   4.260  19.791  0.00  0.00    +0.000 A 
ATOM     29  C   UNL     1       4.231   5.246  18.894  0.00  0.00    +0.000 A 
ATOM     30  N   UNL     1       3.537   6.389  18.699  0.00  0.00    +0.000 NA
ATOM     31  C   UNL     1       1.710   8.455  18.005  0.00  0.00    +0.000 C 
ATOM     32  C   UNL     1       1.796   9.998  18.125  0.00  0.00    +0.000 C 
ENDBRANCH  19  20
ENDBRANCH  18  19
ENDBRANCH   9  18
TORSDOF 6
ENDMDL
MODEL 7
REMARK VINA RESULT:      -7.6      2.545      9.828
REMARK  Name = 
REMARK  9 active torsions:
REMARK  status: ('A' for Active; 'I' for Inactive)
REMARK    1  A    between atoms: C_1  and  C_2
REMARK    2  A    between atoms: C_2  and  C_3
REMARK    3  A    between atoms: C_3  and  C_4
REMARK    4  A    between atoms: C_4  and  C_5
REMARK    5  A    between atoms: C_13  and  C_14
REMARK    6  A    between atoms: C_14  and  C_15
REMARK    7  A    between atoms: C_15  and  N_16
REMARK    8  A    between atoms: C_22  and  C_23
REMARK    9  A    between atoms: C_29  and  C_30
REMARK                            x       y       z     vdW  Elec       q    Type
REMARK                         _______ _______ _______ _____ _____    ______ ____
ROOT
ATOM      1  C   UNL     1       4.962   4.482  17.935  0.00  0.00    +0.000 C 
ATOM      2  C   UNL     1       5.242   3.709  19.260  0.00  0.00    +0.000 C 
ATOM      3  C   UNL     1       4.032   3.486  20.195  0.00  0.00    +0.000 C 
ATOM      4  C   UNL     1       3.168   4.706  20.263  0.00  0.00    +0.000 A 
ATOM      5  C   UNL     1       2.201   4.932  21.249  0.00  0.00    +0.000 A 
ATOM      6  C   UNL     1       1.418   6.089  21.230  0.00  0.00    +0.000 A 
ATOM      7  C   UNL     1       1.574   7.053  20.223  0.00  0.00    +0.000 A 
ATOM      8  C   UNL     1       2.528   6.839  19.209  0.00  0.00    +0.000 A 
ATOM      9  C   UNL     1       2.968   7.556  18.052  0.00  0.00    +0.000 A 
ATOM     10  C   UNL     1       3.979   6.808  17.446  0.00  0.00    +0.000 A 
ATOM     11  C   UNL     1       4.815   7.101  16.251  0.00  0.00    +0.000 C 
ATOM     12  N   UNL     1       4.103   5.645  18.172  0.00  0.00    +0.000 N 
ATOM     13  C   UNL     1       3.272   5.676  19.263  0.00  0.00    +0.000 A 
ENDROOT
BRANCH   1  14
ATOM     14  C   UNL     1       4.443   3.589  16.784  0.00  0.00    +0.000 C 
BRANCH  14  15
ATOM     15  C   UNL     1       2.931   3.370  16.761  0.00  0.00    +0.000 C 
BRANCH  15  17
ATOM     16  C   UNL     1       1.273   2.445  18.385  0.00  0.00    +0.000 C 
ATOM     17  C   UNL     1       2.502   2.132  17.544  0.00  0.00    +0.000 C 
ENDBRANCH  15  17
ENDBRANCH  14  15
ENDBRANCH   1  14
BRANCH   9  18
ATOM     18  C   UNL     1       2.423   8.884  17.605  0.00  0.00    +0.000 C 
BRANCH  18  19
ATOM     19  C   UNL     1       1.299   9.387  18.532  0.00  0.00    +0.000 C 
BRANCH  19  20
ATOM     20  N   UNL     1       0.856  10.763  18.239  0.00  0.00    +0.000 NA
ATOM     21  C   UNL     1      -0.595  10.969  18.436  0.00  0.00    +0.000 C 
ATOM     22  C   UNL     1      -1.084  10.934  19.902  0.00  0.00    +0.000 C 
ATOM     23  N   UNL     1      -0.289  11.841  20.725  0.00  0.00    +0.000 N 
ATOM     24  C   UNL     1      -0.822  12.535  21.787  0.00  0.00    +0.000 A 
ATOM     25  C   UNL     1      -1.993  12.119  22.421  0.00  0.00    +0.000 A 
ATOM     26  C   UNL     1      -2.575  12.887  23.435  0.00  0.00    +0.000 A 
ATOM     27  C   UNL     1      -3.835  12.441  24.110  0.00  0.00    +0.000 C 
ATOM     28  C   UNL     1      -1.967  14.089  23.778  0.00  0.00    +0.000 A 
ATOM     29  C   UNL     1      -0.797  14.433  23.126  0.00  0.00    +0.000 A 
ATOM     30  N   UNL     1      -0.215  13.680  22.168  0.00  0.00    +0.000 NA
ATOM     31  C   UNL     1       1.168  11.760  20.589  0.00  0.00    +0.000 C 
ATOM     32  C   UNL     1       1.575  11.747  19.094  0.00  0.00    +0.000 C 
ENDBRANCH  19  20
ENDBRANCH  18  19
ENDBRANCH   9  18
TORSDOF 6
ENDMDL
MODEL 8
REMARK VINA RESULT:      -7.6      2.327     10.121
REMARK  Name = 
REMARK  9 active torsions:
REMARK  status: ('A' for Active; 'I' for Inactive)
REMARK    1  A    between atoms: C_1  and  C_2
REMARK    2  A    between atoms: C_2  and  C_3
REMARK    3  A    between atoms: C_3  and  C_4
REMARK    4  A    between atoms: C_4  and  C_5
REMARK    5  A    between atoms: C_13  and  C_14
REMARK    6  A    between atoms: C_14  and  C_15
REMARK    7  A    between atoms: C_15  and  N_16
REMARK    8  A    between atoms: C_22  and  C_23
REMARK    9  A    between atoms: C_29  and  C_30
REMARK                            x       y       z     vdW  Elec       q    Type
REMARK                         _______ _______ _______ _____ _____    ______ ____
ROOT
ATOM      1  C   UNL     1       4.848   4.476  17.636  0.00  0.00    +0.000 C 
ATOM      2  C   UNL     1       5.193   3.149  18.378  0.00  0.00    +0.000 C 
ATOM      3  C   UNL     1       3.999   2.346  18.942  0.00  0.00    +0.000 C 
ATOM      4  C   UNL     1       2.981   3.252  19.561  0.00  0.00    +0.000 A 
ATOM      5  C   UNL     1       1.968   2.824  20.425  0.00  0.00    +0.000 A 
ATOM      6  C   UNL     1       1.041   3.730  20.944  0.00  0.00    +0.000 A 
ATOM      7  C   UNL     1       1.095   5.093  20.611  0.00  0.00    +0.000 A 
ATOM      8  C   UNL     1       2.094   5.544  19.727  0.00  0.00    +0.000 A 
ATOM      9  C   UNL     1       2.466   6.806  19.163  0.00  0.00    +0.000 A 
ATOM     10  C   UNL     1       3.581   6.597  18.351  0.00  0.00    +0.000 A 
ATOM     11  C   UNL     1       4.402   7.560  17.568  0.00  0.00    +0.000 C 
ATOM     12  N   UNL     1       3.839   5.245  18.367  0.00  0.00    +0.000 N 
ATOM     13  C   UNL     1       2.983   4.610  19.231  0.00  0.00    +0.000 A 
ENDROOT
BRANCH   1  14
ATOM     14  C   UNL     1       4.481   4.286  16.145  0.00  0.00    +0.000 C 
BRANCH  14  15
ATOM     15  C   UNL     1       5.426   4.958  15.151  0.00  0.00    +0.000 C 
BRANCH  15  17
ATOM     16  C   UNL     1       6.016   3.719  13.062  0.00  0.00    +0.000 C 
ATOM     17  C   UNL     1       6.405   3.977  14.511  0.00  0.00    +0.000 C 
ENDBRANCH  15  17
ENDBRANCH  14  15
ENDBRANCH   1  14
BRANCH   9  18
ATOM     18  C   UNL     1       1.763   8.107  19.431  0.00  0.00    +0.000 C 
BRANCH  18  19
ATOM     19  C   UNL     1       1.174   8.162  20.854  0.00  0.00    +0.000 C 
BRANCH  19  20
ATOM     20  N   UNL     1       1.527   9.385  21.600  0.00  0.00    +0.000 NA
ATOM     21  C   UNL     1       1.239  10.631  20.857  0.00  0.00    +0.000 C 
ATOM     22  C   UNL     1      -0.258  10.967  20.666  0.00  0.00    +0.000 C 
ATOM     23  N   UNL     1      -0.956  10.923  21.947  0.00  0.00    +0.000 N 
ATOM     24  C   UNL     1      -2.004  11.764  22.247  0.00  0.00    +0.000 A 
ATOM     25  C   UNL     1      -2.749  12.392  21.248  0.00  0.00    +0.000 A 
ATOM     26  C   UNL     1      -3.748  13.317  21.569  0.00  0.00    +0.000 A 
ATOM     27  C   UNL     1      -4.541  13.994  20.495  0.00  0.00    +0.000 C 
ATOM     28  C   UNL     1      -3.962  13.612  22.910  0.00  0.00    +0.000 A 
ATOM     29  C   UNL     1      -3.205  12.939  23.851  0.00  0.00    +0.000 A 
ATOM     30  N   UNL     1      -2.260  12.022  23.547  0.00  0.00    +0.000 NA
ATOM     31  C   UNL     1      -0.721   9.752  22.795  0.00  0.00    +0.000 C 
ATOM     32  C   UNL     1       0.796   9.449  22.895  0.00  0.00    +0.000 C 
ENDBRANCH  19  20
ENDBRANCH  18  19
ENDBRANCH   9  18
TORSDOF 6
ENDMDL
MODEL 9
REMARK VINA RESULT:      -7.6      4.714      9.427
REMARK  Name = 
REMARK  9 active torsions:
REMARK  status: ('A' for Active; 'I' for Inactive)
REMARK    1  A    between atoms: C_1  and  C_2
REMARK    2  A    between atoms: C_2  and  C_3
REMARK    3  A    between atoms: C_3  and  C_4
REMARK    4  A    between atoms: C_4  and  C_5
REMARK    5  A    between atoms: C_13  and  C_14
REMARK    6  A    between atoms: C_14  and  C_15
REMARK    7  A    between atoms: C_15  and  N_16
REMARK    8  A    between atoms: C_22  and  C_23
REMARK    9  A    between atoms: C_29  and  C_30
REMARK                            x       y       z     vdW  Elec       q    Type
REMARK                         _______ _______ _______ _____ _____    ______ ____
ROOT
ATOM      1  C   UNL     1       9.365  12.731  18.631  0.00  0.00    +0.000 C 
ATOM      2  C   UNL     1      10.539  12.201  19.510  0.00  0.00    +0.000 C 
ATOM      3  C   UNL     1      10.183  11.791  20.957  0.00  0.00    +0.000 C 
ATOM      4  C   UNL     1       9.225  12.761  21.575  0.00  0.00    +0.000 A 
ATOM      5  C   UNL     1       8.969  12.848  22.947  0.00  0.00    +0.000 A 
ATOM      6  C   UNL     1       8.042  13.767  23.445  0.00  0.00    +0.000 A 
ATOM      7  C   UNL     1       7.338  14.624  22.584  0.00  0.00    +0.000 A 
ATOM      8  C   UNL     1       7.565  14.540  21.196  0.00  0.00    +0.000 A 
ATOM      9  C   UNL     1       7.063  15.213  20.037  0.00  0.00    +0.000 A 
ATOM     10  C   UNL     1       7.706  14.675  18.922  0.00  0.00    +0.000 A 
ATOM     11  C   UNL     1       7.604  15.031  17.480  0.00  0.00    +0.000 C 
ATOM     12  N   UNL     1       8.522  13.665  19.380  0.00  0.00    +0.000 N 
ATOM     13  C   UNL     1       8.483  13.610  20.750  0.00  0.00    +0.000 A 
ENDROOT
BRANCH   1  14
ATOM     14  C   UNL     1       8.544  11.617  17.940  0.00  0.00    +0.000 C 
BRANCH  14  15
ATOM     15  C   UNL     1       8.984  10.190  18.261  0.00  0.00    +0.000 C 
BRANCH  15  17
ATOM     16  C   UNL     1       8.258   7.804  18.432  0.00  0.00    +0.000 C 
ATOM     17  C   UNL     1       8.003   9.139  17.747  0.00  0.00    +0.000 C 
ENDBRANCH  15  17
ENDBRANCH  14  15
ENDBRANCH   1  14
BRANCH   9  18
ATOM     18  C   UNL     1       6.034  16.308  20.057  0.00  0.00    +0.000 C 
BRANCH  18  19
ATOM     19  C   UNL     1       4.640  15.781  20.451  0.00  0.00    +0.000 C 
BRANCH  19  20
ATOM     20  N   UNL     1       3.624  15.933  19.393  0.00  0.00    +0.000 NA
ATOM     21  C   UNL     1       3.812  15.004  18.257  0.00  0.00    +0.000 C 
ATOM     22  C   UNL     1       3.533  13.514  18.558  0.00  0.00    +0.000 C 
ATOM     23  N   UNL     1       2.220  13.357  19.176  0.00  0.00    +0.000 N 
ATOM     24  C   UNL     1       1.423  12.258  18.951  0.00  0.00    +0.000 A 
ATOM     25  C   UNL     1       1.953  11.049  18.496  0.00  0.00    +0.000 A 
ATOM     26  C   UNL     1       1.118   9.972  18.181  0.00  0.00    +0.000 A 
ATOM     27  C   UNL     1       1.689   8.679  17.687  0.00  0.00    +0.000 C 
ATOM     28  C   UNL     1      -0.254  10.145  18.309  0.00  0.00    +0.000 A 
ATOM     29  C   UNL     1      -0.713  11.360  18.786  0.00  0.00    +0.000 A 
ATOM     30  N   UNL     1       0.090  12.393  19.121  0.00  0.00    +0.000 NA
ATOM     31  C   UNL     1       1.898  14.251  20.292  0.00  0.00    +0.000 C 
ATOM     32  C   UNL     1       2.254  15.716  19.934  0.00  0.00    +0.000 C 
ENDBRANCH  19  20
ENDBRANCH  18  19
ENDBRANCH   9  18
TORSDOF 6
ENDMDL
