MODEL 1
REMARK VINA RESULT:      -6.7      0.000      0.000
REMARK  Name = 
REMARK  4 active torsions:
REMARK  status: ('A' for Active; 'I' for Inactive)
REMARK    1  A    between atoms: C_1  and  C_2
REMARK    2  A    between atoms: C_2  and  C_3
REMARK    3  A    between atoms: N_7  and  C_8
REMARK    4  A    between atoms: C_8  and  C_9
REMARK                            x       y       z     vdW  Elec       q    Type
REMARK                         _______ _______ _______ _____ _____    ______ ____
ROOT
ATOM      1  C   UNL     1      -2.855   9.265  16.555  0.00  0.00    +0.000 C 
ATOM      2  C   UNL     1      -2.848  10.581  17.344  0.00  0.00    +0.000 C 
ATOM      3  C   UNL     1      -2.406  11.668  16.336  0.00  0.00    +0.000 C 
ATOM      4  C   UNL     1      -2.108  10.311  18.692  0.00  0.00    +0.000 C 
ATOM      5  C   UNL     1      -1.756  11.618  19.441  0.00  0.00    +0.000 C 
ATOM      6  C   UNL     1      -0.512  12.081  18.623  0.00  0.00    +0.000 C 
ATOM      7  N   UNL     1       0.771  11.395  19.046  0.00  0.00    +0.000 N 
ATOM      8  C   UNL     1       1.162  12.233  20.126  0.00  0.00    +0.000 C 
ATOM      9  O   UNL     1       2.162  12.898  20.149  0.00  0.00    +0.000 OA
ATOM     10  C   UNL     1      -0.017  12.211  21.173  0.00  0.00    +0.000 C 
ATOM     11  O   UNL     1      -1.239  11.458  20.821  0.00  0.00    +0.000 OA
ATOM     12  C   UNL     1      -3.178  12.245  19.561  0.00  0.00    +0.000 A 
ATOM     13  C   UNL     1      -3.586  12.965  20.711  0.00  0.00    +0.000 A 
ATOM     14  C   UNL     1      -4.937  13.267  20.968  0.00  0.00    +0.000 A 
ATOM     15 BR   UNL     1      -5.442  14.083  22.602  0.00  0.00    +0.000 Br
ATOM     16  C   UNL     1      -5.949  12.911  20.078  0.00  0.00    +0.000 A 
ATOM     17  C   UNL     1      -5.599  12.207  18.942  0.00  0.00    +0.000 A 
ATOM     18  C   UNL     1      -4.265  11.847  18.710  0.00  0.00    +0.000 A 
ATOM     19  O   UNL     1      -4.179  10.941  17.677  0.00  0.00    +0.000 OA
ENDROOT
BRANCH   7  20
ATOM     20  C   UNL     1       0.866   9.978  19.567  0.00  0.00    +0.000 C 
BRANCH  20  21
ATOM     21  C   UNL     1       1.714   8.818  19.072  0.00  0.00    +0.000 A 
ATOM     22  C   UNL     1       2.371   8.731  17.850  0.00  0.00    +0.000 A 
ATOM     23  C   UNL     1       3.095   7.567  17.523  0.00  0.00    +0.000 A 
ATOM     24  C   UNL     1       3.186   6.489  18.410  0.00  0.00    +0.000 A 
ATOM     25  C   UNL     1       2.570   6.571  19.650  0.00  0.00    +0.000 A 
ATOM     26  C   UNL     1       1.851   7.724  19.971  0.00  0.00    +0.000 A 
ENDBRANCH  20  21
ENDBRANCH   7  20
TORSDOF 2
ENDMDL
MODEL 2
REMARK VINA RESULT:      -6.7      3.001      4.766
REMARK  Name = 
REMARK  4 active torsions:
REMARK  status: ('A' for Active; 'I' for Inactive)
REMARK    1  A    between atoms: C_1  and  C_2
REMARK    2  A    between atoms: C_2  and  C_3
REMARK    3  A    between atoms: N_7  and  C_8
REMARK    4  A    between atoms: C_8  and  C_9
REMARK                            x       y       z     vdW  Elec       q    Type
REMARK                         _______ _______ _______ _____ _____    ______ ____
ROOT
ATOM      1  C   UNL     1       3.261  13.558  18.090  0.00  0.00    +0.000 C 
ATOM      2  C   UNL     1       2.258  14.274  19.004  0.00  0.00    +0.000 C 
ATOM      3  C   UNL     1       3.042  14.619  20.292  0.00  0.00    +0.000 C 
ATOM      4  C   UNL     1       0.943  13.432  19.003  0.00  0.00    +0.000 C 
ATOM      5  C   UNL     1      -0.035  13.866  20.119  0.00  0.00    +0.000 C 
ATOM      6  C   UNL     1       0.633  13.186  21.353  0.00  0.00    +0.000 C 
ATOM      7  N   UNL     1       0.274  11.721  21.495  0.00  0.00    +0.000 N 
ATOM      8  C   UNL     1      -0.951  11.827  22.208  0.00  0.00    +0.000 C 
ATOM      9  O   UNL     1      -1.134  11.409  23.319  0.00  0.00    +0.000 OA
ATOM     10  C   UNL     1      -1.923  12.699  21.324  0.00  0.00    +0.000 C 
ATOM     11  O   UNL     1      -1.390  13.266  20.068  0.00  0.00    +0.000 OA
ATOM     12  C   UNL     1      -0.194  15.374  19.759  0.00  0.00    +0.000 A 
ATOM     13  C   UNL     1      -1.431  16.052  19.897  0.00  0.00    +0.000 A 
ATOM     14  C   UNL     1      -1.672  17.303  19.299  0.00  0.00    +0.000 A 
ATOM     15 BR   UNL     1      -3.397  18.085  19.377  0.00  0.00    +0.000 Br
ATOM     16  C   UNL     1      -0.688  17.969  18.570  0.00  0.00    +0.000 A 
ATOM     17  C   UNL     1       0.535  17.346  18.407  0.00  0.00    +0.000 A 
ATOM     18  C   UNL     1       0.762  16.073  18.946  0.00  0.00    +0.000 A 
ATOM     19  O   UNL     1       1.930  15.538  18.451  0.00  0.00    +0.000 OA
ENDROOT
BRANCH   7  20
ATOM     20  C   UNL     1       0.001  10.779  20.342  0.00  0.00    +0.000 C 
BRANCH  20  21
ATOM     21  C   UNL     1       0.835   9.624  19.816  0.00  0.00    +0.000 A 
ATOM     22  C   UNL     1       1.252   8.506  20.531  0.00  0.00    +0.000 A 
ATOM     23  C   UNL     1       2.055   7.532  19.905  0.00  0.00    +0.000 A 
ATOM     24  C   UNL     1       2.437   7.649  18.564  0.00  0.00    +0.000 A 
ATOM     25  C   UNL     1       2.000   8.736  17.823  0.00  0.00    +0.000 A 
ATOM     26  C   UNL     1       1.206   9.702  18.445  0.00  0.00    +0.000 A 
ENDBRANCH  20  21
ENDBRANCH   7  20
TORSDOF 2
ENDMDL
MODEL 3
REMARK VINA RESULT:      -6.6      0.627      1.127
REMARK  Name = 
REMARK  4 active torsions:
REMARK  status: ('A' for Active; 'I' for Inactive)
REMARK    1  A    between atoms: C_1  and  C_2
REMARK    2  A    between atoms: C_2  and  C_3
REMARK    3  A    between atoms: N_7  and  C_8
REMARK    4  A    between atoms: C_8  and  C_9
REMARK                            x       y       z     vdW  Elec       q    Type
REMARK                         _______ _______ _______ _____ _____    ______ ____
ROOT
ATOM      1  C   UNL     1      -2.388   9.483  16.829  0.00  0.00    +0.000 C 
ATOM      2  C   UNL     1      -2.551  10.783  17.627  0.00  0.00    +0.000 C 
ATOM      3  C   UNL     1      -2.004  11.904  16.712  0.00  0.00    +0.000 C 
ATOM      4  C   UNL     1      -2.013  10.515  19.068  0.00  0.00    +0.000 C 
ATOM      5  C   UNL     1      -1.829  11.818  19.879  0.00  0.00    +0.000 C 
ATOM      6  C   UNL     1      -0.495  12.342  19.265  0.00  0.00    +0.000 C 
ATOM      7  N   UNL     1       0.735  11.695  19.870  0.00  0.00    +0.000 N 
ATOM      8  C   UNL     1       0.925  12.526  21.007  0.00  0.00    +0.000 C 
ATOM      9  O   UNL     1       1.884  13.226  21.191  0.00  0.00    +0.000 OA
ATOM     10  C   UNL     1      -0.397  12.441  21.863  0.00  0.00    +0.000 C 
ATOM     11  O   UNL     1      -1.521  11.652  21.320  0.00  0.00    +0.000 OA
ATOM     12  C   UNL     1      -3.276  12.391  19.791  0.00  0.00    +0.000 A 
ATOM     13  C   UNL     1      -3.881  13.073  20.875  0.00  0.00    +0.000 A 
ATOM     14  C   UNL     1      -5.266  13.321  20.928  0.00  0.00    +0.000 A 
ATOM     15 BR   UNL     1      -6.044  14.087  22.477  0.00  0.00    +0.000 Br
ATOM     16  C   UNL     1      -6.118  12.946  19.889  0.00  0.00    +0.000 A 
ATOM     17  C   UNL     1      -5.573  12.277  18.810  0.00  0.00    +0.000 A 
ATOM     18  C   UNL     1      -4.206  11.971  18.779  0.00  0.00    +0.000 A 
ATOM     19  O   UNL     1      -3.930  11.088  17.759  0.00  0.00    +0.000 OA
ENDROOT
BRANCH   7  20
ATOM     20  C   UNL     1       0.805  10.273  20.380  0.00  0.00    +0.000 C 
BRANCH  20  21
ATOM     21  C   UNL     1       1.425   9.043  19.739  0.00  0.00    +0.000 A 
ATOM     22  C   UNL     1       1.725   7.839  20.368  0.00  0.00    +0.000 A 
ATOM     23  C   UNL     1       2.333   6.798  19.638  0.00  0.00    +0.000 A 
ATOM     24  C   UNL     1       2.634   6.935  18.279  0.00  0.00    +0.000 A 
ATOM     25  C   UNL     1       2.308   8.114  17.624  0.00  0.00    +0.000 A 
ATOM     26  C   UNL     1       1.708   9.145  18.348  0.00  0.00    +0.000 A 
ENDBRANCH  20  21
ENDBRANCH   7  20
TORSDOF 2
ENDMDL
MODEL 4
REMARK VINA RESULT:      -6.6      3.828      7.447
REMARK  Name = 
REMARK  4 active torsions:
REMARK  status: ('A' for Active; 'I' for Inactive)
REMARK    1  A    between atoms: C_1  and  C_2
REMARK    2  A    between atoms: C_2  and  C_3
REMARK    3  A    between atoms: N_7  and  C_8
REMARK    4  A    between atoms: C_8  and  C_9
REMARK                            x       y       z     vdW  Elec       q    Type
REMARK                         _______ _______ _______ _____ _____    ______ ____
ROOT
ATOM      1  C   UNL     1       1.190  14.455  18.726  0.00  0.00    +0.000 C 
ATOM      2  C   UNL     1       0.596  13.063  18.984  0.00  0.00    +0.000 C 
ATOM      3  C   UNL     1      -0.743  13.033  18.210  0.00  0.00    +0.000 C 
ATOM      4  C   UNL     1       0.706  12.787  20.517  0.00  0.00    +0.000 C 
ATOM      5  C   UNL     1      -0.132  11.564  20.956  0.00  0.00    +0.000 C 
ATOM      6  C   UNL     1      -1.558  12.195  20.971  0.00  0.00    +0.000 C 
ATOM      7  N   UNL     1      -1.858  12.962  22.243  0.00  0.00    +0.000 N 
ATOM      8  C   UNL     1      -2.311  11.903  23.077  0.00  0.00    +0.000 C 
ATOM      9  O   UNL     1      -3.421  11.813  23.527  0.00  0.00    +0.000 OA
ATOM     10  C   UNL     1      -1.139  10.850  23.159  0.00  0.00    +0.000 C 
ATOM     11  O   UNL     1       0.071  11.101  22.350  0.00  0.00    +0.000 OA
ATOM     12  C   UNL     1       0.482  10.476  20.024  0.00  0.00    +0.000 A 
ATOM     13  C   UNL     1       0.678   9.141  20.458  0.00  0.00    +0.000 A 
ATOM     14  C   UNL     1       1.497   8.236  19.756  0.00  0.00    +0.000 A 
ATOM     15 BR   UNL     1       1.858   6.519  20.470  0.00  0.00    +0.000 Br
ATOM     16  C   UNL     1       2.130   8.592  18.565  0.00  0.00    +0.000 A 
ATOM     17  C   UNL     1       1.968   9.884  18.104  0.00  0.00    +0.000 A 
ATOM     18  C   UNL     1       1.205  10.809  18.829  0.00  0.00    +0.000 A 
ATOM     19  O   UNL     1       1.389  12.082  18.337  0.00  0.00    +0.000 OA
ENDROOT
BRANCH   7  20
ATOM     20  C   UNL     1      -0.836  13.722  23.060  0.00  0.00    +0.000 C 
BRANCH  20  21
ATOM     21  C   UNL     1      -1.008  14.969  23.910  0.00  0.00    +0.000 A 
ATOM     22  C   UNL     1      -1.766  15.086  25.070  0.00  0.00    +0.000 A 
ATOM     23  C   UNL     1      -1.853  16.328  25.731  0.00  0.00    +0.000 A 
ATOM     24  C   UNL     1      -1.177  17.458  25.256  0.00  0.00    +0.000 A 
ATOM     25  C   UNL     1      -0.385  17.353  24.122  0.00  0.00    +0.000 A 
ATOM     26  C   UNL     1      -0.302  16.123  23.468  0.00  0.00    +0.000 A 
ENDBRANCH  20  21
ENDBRANCH   7  20
TORSDOF 2
ENDMDL
MODEL 5
REMARK VINA RESULT:      -6.6      1.128      1.640
REMARK  Name = 
REMARK  4 active torsions:
REMARK  status: ('A' for Active; 'I' for Inactive)
REMARK    1  A    between atoms: C_1  and  C_2
REMARK    2  A    between atoms: C_2  and  C_3
REMARK    3  A    between atoms: N_7  and  C_8
REMARK    4  A    between atoms: C_8  and  C_9
REMARK                            x       y       z     vdW  Elec       q    Type
REMARK                         _______ _______ _______ _____ _____    ______ ____
ROOT
ATOM      1  C   UNL     1      -2.604   9.180  16.496  0.00  0.00    +0.000 C 
ATOM      2  C   UNL     1      -3.036  10.521  17.105  0.00  0.00    +0.000 C 
ATOM      3  C   UNL     1      -2.611  11.599  16.081  0.00  0.00    +0.000 C 
ATOM      4  C   UNL     1      -2.572  10.526  18.596  0.00  0.00    +0.000 C 
ATOM      5  C   UNL     1      -2.664  11.931  19.236  0.00  0.00    +0.000 C 
ATOM      6  C   UNL     1      -1.391  12.596  18.631  0.00  0.00    +0.000 C 
ATOM      7  N   UNL     1      -0.121  12.247  19.381  0.00  0.00    +0.000 N 
ATOM      8  C   UNL     1      -0.154  13.230  20.407  0.00  0.00    +0.000 C 
ATOM      9  O   UNL     1       0.660  14.101  20.548  0.00  0.00    +0.000 OA
ATOM     10  C   UNL     1      -1.506  13.026  21.194  0.00  0.00    +0.000 C 
ATOM     11  O   UNL     1      -2.443  11.996  20.700  0.00  0.00    +0.000 OA
ATOM     12  C   UNL     1      -4.174  12.232  18.994  0.00  0.00    +0.000 A 
ATOM     13  C   UNL     1      -4.962  12.928  19.944  0.00  0.00    +0.000 A 
ATOM     14  C   UNL     1      -6.369  12.940  19.888  0.00  0.00    +0.000 A 
ATOM     15 BR   UNL     1      -7.375  13.745  21.277  0.00  0.00    +0.000 Br
ATOM     16  C   UNL     1      -7.067  12.302  18.864  0.00  0.00    +0.000 A 
ATOM     17  C   UNL     1      -6.341  11.609  17.914  0.00  0.00    +0.000 A 
ATOM     18  C   UNL     1      -4.944  11.539  17.998  0.00  0.00    +0.000 A 
ATOM     19  O   UNL     1      -4.452  10.599  17.120  0.00  0.00    +0.000 OA
ENDROOT
BRANCH   7  20
ATOM     20  C   UNL     1       0.140  10.930  20.079  0.00  0.00    +0.000 C 
BRANCH  20  21
ATOM     21  C   UNL     1       0.928   9.721  19.603  0.00  0.00    +0.000 A 
ATOM     22  C   UNL     1       1.300   8.619  20.365  0.00  0.00    +0.000 A 
ATOM     23  C   UNL     1       2.063   7.588  19.782  0.00  0.00    +0.000 A 
ATOM     24  C   UNL     1       2.449   7.633  18.437  0.00  0.00    +0.000 A 
ATOM     25  C   UNL     1       2.055   8.705  17.650  0.00  0.00    +0.000 A 
ATOM     26  C   UNL     1       1.301   9.727  18.230  0.00  0.00    +0.000 A 
ENDBRANCH  20  21
ENDBRANCH   7  20
TORSDOF 2
ENDMDL
MODEL 6
REMARK VINA RESULT:      -6.5      2.807      4.273
REMARK  Name = 
REMARK  4 active torsions:
REMARK  status: ('A' for Active; 'I' for Inactive)
REMARK    1  A    between atoms: C_1  and  C_2
REMARK    2  A    between atoms: C_2  and  C_3
REMARK    3  A    between atoms: N_7  and  C_8
REMARK    4  A    between atoms: C_8  and  C_9
REMARK                            x       y       z     vdW  Elec       q    Type
REMARK                         _______ _______ _______ _____ _____    ______ ____
ROOT
ATOM      1  C   UNL     1       2.489  14.025  17.957  0.00  0.00    +0.000 C 
ATOM      2  C   UNL     1       1.526  14.532  19.039  0.00  0.00    +0.000 C 
ATOM      3  C   UNL     1       2.414  14.882  20.256  0.00  0.00    +0.000 C 
ATOM      4  C   UNL     1       0.334  13.525  19.109  0.00  0.00    +0.000 C 
ATOM      5  C   UNL     1      -0.545  13.743  20.362  0.00  0.00    +0.000 C 
ATOM      6  C   UNL     1       0.347  13.069  21.449  0.00  0.00    +0.000 C 
ATOM      7  N   UNL     1       0.191  11.562  21.499  0.00  0.00    +0.000 N 
ATOM      8  C   UNL     1      -0.941  11.452  22.352  0.00  0.00    +0.000 C 
ATOM      9  O   UNL     1      -0.934  10.932  23.434  0.00  0.00    +0.000 OA
ATOM     10  C   UNL     1      -2.113  12.251  21.663  0.00  0.00    +0.000 C 
ATOM     11  O   UNL     1      -1.812  12.975  20.411  0.00  0.00    +0.000 OA
ATOM     12  C   UNL     1      -0.931  15.239  20.158  0.00  0.00    +0.000 A 
ATOM     13  C   UNL     1      -2.215  15.735  20.494  0.00  0.00    +0.000 A 
ATOM     14  C   UNL     1      -2.680  16.984  20.041  0.00  0.00    +0.000 A 
ATOM     15 BR   UNL     1      -4.465  17.523  20.380  0.00  0.00    +0.000 Br
ATOM     16  C   UNL     1      -1.882  17.827  19.268  0.00  0.00    +0.000 A 
ATOM     17  C   UNL     1      -0.621  17.385  18.914  0.00  0.00    +0.000 A 
ATOM     18  C   UNL     1      -0.175  16.117  19.309  0.00  0.00    +0.000 A 
ATOM     19  O   UNL     1       0.981  15.779  18.640  0.00  0.00    +0.000 OA
ENDROOT
BRANCH   7  20
ATOM     20  C   UNL     1      -0.104  10.680  20.305  0.00  0.00    +0.000 C 
BRANCH  20  21
ATOM     21  C   UNL     1       0.786   9.667  19.606  0.00  0.00    +0.000 A 
ATOM     22  C   UNL     1       1.189   9.693  18.275  0.00  0.00    +0.000 A 
ATOM     23  C   UNL     1       1.993   8.655  17.764  0.00  0.00    +0.000 A 
ATOM     24  C   UNL     1       2.416   7.592  18.570  0.00  0.00    +0.000 A 
ATOM     25  C   UNL     1       2.056   7.567  19.910  0.00  0.00    +0.000 A 
ATOM     26  C   UNL     1       1.258   8.595  20.414  0.00  0.00    +0.000 A 
ENDBRANCH  20  21
ENDBRANCH   7  20
TORSDOF 2
ENDMDL
MODEL 7
REMARK VINA RESULT:      -6.5      3.356      6.650
REMARK  Name = 
REMARK  4 active torsions:
REMARK  status: ('A' for Active; 'I' for Inactive)
REMARK    1  A    between atoms: C_1  and  C_2
REMARK    2  A    between atoms: C_2  and  C_3
REMARK    3  A    between atoms: N_7  and  C_8
REMARK    4  A    between atoms: C_8  and  C_9
REMARK                            x       y       z     vdW  Elec       q    Type
REMARK                         _______ _______ _______ _____ _____    ______ ____
ROOT
ATOM      1  C   UNL     1      -1.546  10.047  18.108  0.00  0.00    +0.000 C 
ATOM      2  C   UNL     1      -0.740  10.983  19.019  0.00  0.00    +0.000 C 
ATOM      3  C   UNL     1      -0.326  10.123  20.236  0.00  0.00    +0.000 C 
ATOM      4  C   UNL     1      -1.544  12.315  19.146  0.00  0.00    +0.000 C 
ATOM      5  C   UNL     1      -1.006  13.222  20.277  0.00  0.00    +0.000 C 
ATOM      6  C   UNL     1      -1.614  12.505  21.521  0.00  0.00    +0.000 C 
ATOM      7  N   UNL     1      -3.055  12.890  21.786  0.00  0.00    +0.000 N 
ATOM      8  C   UNL     1      -2.866  14.072  22.553  0.00  0.00    +0.000 C 
ATOM      9  O   UNL     1      -3.199  14.206  23.698  0.00  0.00    +0.000 OA
ATOM     10  C   UNL     1      -2.032  15.069  21.658  0.00  0.00    +0.000 C 
ATOM     11  O   UNL     1      -1.570  14.591  20.339  0.00  0.00    +0.000 OA
ATOM     12  C   UNL     1       0.477  13.365  19.818  0.00  0.00    +0.000 A 
ATOM     13  C   UNL     1       1.197  14.576  19.971  0.00  0.00    +0.000 A 
ATOM     14  C   UNL     1       2.409  14.819  19.297  0.00  0.00    +0.000 A 
ATOM     15 BR   UNL     1       3.241  16.518  19.407  0.00  0.00    +0.000 Br
ATOM     16  C   UNL     1       2.994  13.860  18.472  0.00  0.00    +0.000 A 
ATOM     17  C   UNL     1       2.328  12.663  18.292  0.00  0.00    +0.000 A 
ATOM     18  C   UNL     1       1.091  12.437  18.908  0.00  0.00    +0.000 A 
ATOM     19  O   UNL     1       0.490  11.309  18.394  0.00  0.00    +0.000 OA
ENDROOT
BRANCH   7  20
ATOM     20  C   UNL     1      -4.068  13.247  20.720  0.00  0.00    +0.000 C 
BRANCH  20  21
ATOM     21  C   UNL     1      -5.131  12.381  20.065  0.00  0.00    +0.000 A 
ATOM     22  C   UNL     1      -6.319  11.944  20.640  0.00  0.00    +0.000 A 
ATOM     23  C   UNL     1      -7.190  11.113  19.908  0.00  0.00    +0.000 A 
ATOM     24  C   UNL     1      -6.899  10.723  18.596  0.00  0.00    +0.000 A 
ATOM     25  C   UNL     1      -5.738  11.179  17.990  0.00  0.00    +0.000 A 
ATOM     26  C   UNL     1      -4.874  12.000  18.718  0.00  0.00    +0.000 A 
ENDBRANCH  20  21
ENDBRANCH   7  20
TORSDOF 2
ENDMDL
MODEL 8
REMARK VINA RESULT:      -6.4      3.631      6.395
REMARK  Name = 
REMARK  4 active torsions:
REMARK  status: ('A' for Active; 'I' for Inactive)
REMARK    1  A    between atoms: C_1  and  C_2
REMARK    2  A    between atoms: C_2  and  C_3
REMARK    3  A    between atoms: N_7  and  C_8
REMARK    4  A    between atoms: C_8  and  C_9
REMARK                            x       y       z     vdW  Elec       q    Type
REMARK                         _______ _______ _______ _____ _____    ______ ____
ROOT
ATOM      1  C   UNL     1      -1.365  12.612  22.696  0.00  0.00    +0.000 C 
ATOM      2  C   UNL     1      -2.771  13.123  23.042  0.00  0.00    +0.000 C 
ATOM      3  C   UNL     1      -3.414  12.017  23.911  0.00  0.00    +0.000 C 
ATOM      4  C   UNL     1      -3.411  13.654  21.720  0.00  0.00    +0.000 C 
ATOM      5  C   UNL     1      -4.929  13.907  21.862  0.00  0.00    +0.000 C 
ATOM      6  C   UNL     1      -5.465  12.445  21.767  0.00  0.00    +0.000 C 
ATOM      7  N   UNL     1      -5.597  11.949  20.341  0.00  0.00    +0.000 N 
ATOM      8  C   UNL     1      -6.887  12.449  20.017  0.00  0.00    +0.000 C 
ATOM      9  O   UNL     1      -7.840  11.766  19.756  0.00  0.00    +0.000 OA
ATOM     10  C   UNL     1      -6.834  14.014  20.207  0.00  0.00    +0.000 C 
ATOM     11  O   UNL     1      -5.583  14.603  20.728  0.00  0.00    +0.000 OA
ATOM     12  C   UNL     1      -4.920  14.904  23.059  0.00  0.00    +0.000 A 
ATOM     13  C   UNL     1      -5.824  15.993  23.136  0.00  0.00    +0.000 A 
ATOM     14  C   UNL     1      -5.635  17.063  24.031  0.00  0.00    +0.000 A 
ATOM     15 BR   UNL     1      -6.780  18.572  23.974  0.00  0.00    +0.000 Br
ATOM     16  C   UNL     1      -4.567  17.089  24.928  0.00  0.00    +0.000 A 
ATOM     17  C   UNL     1      -3.660  16.048  24.889  0.00  0.00    +0.000 A 
ATOM     18  C   UNL     1      -3.805  15.012  23.959  0.00  0.00    +0.000 A 
ATOM     19  O   UNL     1      -2.669  14.234  23.917  0.00  0.00    +0.000 OA
ENDROOT
BRANCH   7  20
ATOM     20  C   UNL     1      -4.697  12.354  19.195  0.00  0.00    +0.000 C 
BRANCH  20  21
ATOM     21  C   UNL     1      -3.733  11.513  18.375  0.00  0.00    +0.000 A 
ATOM     22  C   UNL     1      -4.046  10.737  17.263  0.00  0.00    +0.000 A 
ATOM     23  C   UNL     1      -3.039   9.982  16.628  0.00  0.00    +0.000 A 
ATOM     24  C   UNL     1      -1.714  10.003  17.079  0.00  0.00    +0.000 A 
ATOM     25  C   UNL     1      -1.374  10.800  18.162  0.00  0.00    +0.000 A 
ATOM     26  C   UNL     1      -2.373  11.545  18.792  0.00  0.00    +0.000 A 
ENDBRANCH  20  21
ENDBRANCH   7  20
TORSDOF 2
ENDMDL
MODEL 9
REMARK VINA RESULT:      -6.4      2.118      2.871
REMARK  Name = 
REMARK  4 active torsions:
REMARK  status: ('A' for Active; 'I' for Inactive)
REMARK    1  A    between atoms: C_1  and  C_2
REMARK    2  A    between atoms: C_2  and  C_3
REMARK    3  A    between atoms: N_7  and  C_8
REMARK    4  A    between atoms: C_8  and  C_9
REMARK                            x       y       z     vdW  Elec       q    Type
REMARK                         _______ _______ _______ _____ _____    ______ ____
ROOT
ATOM      1  C   UNL     1      -1.023  10.591  17.492  0.00  0.00    +0.000 C 
ATOM      2  C   UNL     1      -0.975  11.243  18.880  0.00  0.00    +0.000 C 
ATOM      3  C   UNL     1       0.146  12.306  18.802  0.00  0.00    +0.000 C 
ATOM      4  C   UNL     1      -0.992  10.092  19.936  0.00  0.00    +0.000 C 
ATOM      5  C   UNL     1      -0.634  10.591  21.355  0.00  0.00    +0.000 C 
ATOM      6  C   UNL     1       0.914  10.716  21.224  0.00  0.00    +0.000 C 
ATOM      7  N   UNL     1       1.638   9.398  21.415  0.00  0.00    +0.000 N 
ATOM      8  C   UNL     1       1.754   9.375  22.832  0.00  0.00    +0.000 C 
ATOM      9  O   UNL     1       2.792   9.398  23.434  0.00  0.00    +0.000 OA
ATOM     10  C   UNL     1       0.289   9.456  23.413  0.00  0.00    +0.000 C 
ATOM     11  O   UNL     1      -0.824   9.617  22.456  0.00  0.00    +0.000 OA
ATOM     12  C   UNL     1      -1.725  11.691  21.532  0.00  0.00    +0.000 A 
ATOM     13  C   UNL     1      -2.358  11.926  22.777  0.00  0.00    +0.000 A 
ATOM     14  C   UNL     1      -3.540  12.684  22.887  0.00  0.00    +0.000 A 
ATOM     15 BR   UNL     1      -4.435  12.826  24.551  0.00  0.00    +0.000 Br
ATOM     16  C   UNL     1      -4.131  13.285  21.777  0.00  0.00    +0.000 A 
ATOM     17  C   UNL     1      -3.549  13.083  20.540  0.00  0.00    +0.000 A 
ATOM     18  C   UNL     1      -2.409  12.278  20.413  0.00  0.00    +0.000 A 
ATOM     19  O   UNL     1      -2.155  12.002  19.088  0.00  0.00    +0.000 OA
ENDROOT
BRANCH   7  20
ATOM     20  C   UNL     1       1.090   8.043  21.023  0.00  0.00    +0.000 C 
BRANCH  20  21
ATOM     21  C   UNL     1       1.743   6.928  20.224  0.00  0.00    +0.000 A 
ATOM     22  C   UNL     1       1.784   5.579  20.559  0.00  0.00    +0.000 A 
ATOM     23  C   UNL     1       2.462   4.668  19.724  0.00  0.00    +0.000 A 
ATOM     24  C   UNL     1       3.090   5.084  18.545  0.00  0.00    +0.000 A 
ATOM     25  C   UNL     1       3.028   6.419  18.173  0.00  0.00    +0.000 A 
ATOM     26  C   UNL     1       2.358   7.320  19.002  0.00  0.00    +0.000 A 
ENDBRANCH  20  21
ENDBRANCH   7  20
TORSDOF 2
ENDMDL
