MODEL 1
REMARK VINA RESULT:      -8.2      0.000      0.000
REMARK  Name = 
REMARK  5 active torsions:
REMARK  status: ('A' for Active; 'I' for Inactive)
REMARK    1  A    between atoms: C_1  and  O_2
REMARK    2  A    between atoms: O_2  and  C_3
REMARK    3  A    between atoms: C_4  and  O_5
REMARK    4  A    between atoms: C_16  and  C_17
REMARK    5  A    between atoms: C_18  and  O_19
REMARK                            x       y       z     vdW  Elec       q    Type
REMARK                         _______ _______ _______ _____ _____    ______ ____
ROOT
ATOM      1  C   UNL     1       0.711  10.063  19.479  0.00  0.00    +0.000 A 
ATOM      2  C   UNL     1      -0.013  10.169  20.665  0.00  0.00    +0.000 A 
ATOM      3  C   UNL     1       0.061   9.186  21.648  0.00  0.00    +0.000 A 
ATOM      4  C   UNL     1       0.823   8.045  21.419  0.00  0.00    +0.000 A 
ATOM      5  C   UNL     1       1.534   7.863  20.221  0.00  0.00    +0.000 A 
ATOM      6  C   UNL     1       1.517   8.907  19.262  0.00  0.00    +0.000 A 
ATOM      7  C   UNL     1       2.327   8.791  17.982  0.00  0.00    +0.000 C 
ATOM      8  C   UNL     1       3.248   7.574  17.898  0.00  0.00    +0.000 C 
ATOM      9  C   UNL     1       2.567   6.332  18.478  0.00  0.00    +0.000 C 
ATOM     10  C   UNL     1       2.341   6.582  19.998  0.00  0.00    +0.000 C 
ATOM     11  C   UNL     1       1.767   5.324  20.710  0.00  0.00    +0.000 C 
ATOM     12  C   UNL     1       2.538   4.029  20.401  0.00  0.00    +0.000 C 
ATOM     13  C   UNL     1       2.686   3.809  18.893  0.00  0.00    +0.000 C 
ATOM     14  C   UNL     1       1.298   3.497  18.279  0.00  0.00    +0.000 C 
ATOM     15  C   UNL     1       3.710   2.723  18.506  0.00  0.00    +0.000 C 
ATOM     16  C   UNL     1       4.128   3.095  17.071  0.00  0.00    +0.000 C 
ATOM     17  C   UNL     1       3.769   4.585  16.892  0.00  0.00    +0.000 C 
ATOM     18  C   UNL     1       3.390   5.050  18.298  0.00  0.00    +0.000 C 
ENDROOT
BRANCH   1  20
ATOM     19  C   UNL     1       1.359  12.205  18.606  0.00  0.00    +0.000 C 
ATOM     20  O   UNL     1       0.663  10.973  18.445  0.00  0.00    +0.000 OA
ENDBRANCH   1  20
BRANCH   2  21
ATOM     21  O   UNL     1      -0.885  11.181  20.953  0.00  0.00    +0.000 OA
ATOM     22  H   UNL     1      -1.509  10.804  21.591  0.00  0.00    +0.000 HD
ENDBRANCH   2  21
BRANCH  15  23
ATOM     23  O   UNL     1       3.214   1.401  18.600  0.00  0.00    +0.000 OA
ATOM     24  H   UNL     1       2.968   1.224  19.523  0.00  0.00    +0.000 HD
ENDBRANCH  15  23
TORSDOF 3
ENDMDL
MODEL 2
REMARK VINA RESULT:      -7.4      1.262      7.028
REMARK  Name = 
REMARK  5 active torsions:
REMARK  status: ('A' for Active; 'I' for Inactive)
REMARK    1  A    between atoms: C_1  and  O_2
REMARK    2  A    between atoms: O_2  and  C_3
REMARK    3  A    between atoms: C_4  and  O_5
REMARK    4  A    between atoms: C_16  and  C_17
REMARK    5  A    between atoms: C_18  and  O_19
REMARK                            x       y       z     vdW  Elec       q    Type
REMARK                         _______ _______ _______ _____ _____    ______ ____
ROOT
ATOM      1  C   UNL     1       2.987   3.932  19.112  0.00  0.00    +0.000 A 
ATOM      2  C   UNL     1       3.786   3.689  17.995  0.00  0.00    +0.000 A 
ATOM      3  C   UNL     1       4.263   4.733  17.207  0.00  0.00    +0.000 A 
ATOM      4  C   UNL     1       3.887   6.040  17.500  0.00  0.00    +0.000 A 
ATOM      5  C   UNL     1       3.043   6.337  18.584  0.00  0.00    +0.000 A 
ATOM      6  C   UNL     1       2.630   5.276  19.428  0.00  0.00    +0.000 A 
ATOM      7  C   UNL     1       1.778   5.553  20.654  0.00  0.00    +0.000 C 
ATOM      8  C   UNL     1       1.552   7.030  20.974  0.00  0.00    +0.000 C 
ATOM      9  C   UNL     1       1.321   7.837  19.693  0.00  0.00    +0.000 C 
ATOM     10  C   UNL     1       2.633   7.786  18.859  0.00  0.00    +0.000 C 
ATOM     11  C   UNL     1       2.546   8.684  17.592  0.00  0.00    +0.000 C 
ATOM     12  C   UNL     1       2.044  10.111  17.874  0.00  0.00    +0.000 C 
ATOM     13  C   UNL     1       0.726  10.099  18.654  0.00  0.00    +0.000 C 
ATOM     14  C   UNL     1      -0.403   9.548  17.747  0.00  0.00    +0.000 C 
ATOM     15  C   UNL     1       0.329  11.463  19.252  0.00  0.00    +0.000 C 
ATOM     16  C   UNL     1      -0.601  11.102  20.426  0.00  0.00    +0.000 C 
ATOM     17  C   UNL     1      -0.295   9.632  20.780  0.00  0.00    +0.000 C 
ATOM     18  C   UNL     1       0.952   9.302  19.959  0.00  0.00    +0.000 C 
ENDROOT
BRANCH   1  20
ATOM     19  C   UNL     1       1.343   2.208  19.416  0.00  0.00    +0.000 C 
ATOM     20  O   UNL     1       2.447   2.954  19.918  0.00  0.00    +0.000 OA
ENDBRANCH   1  20
BRANCH   2  21
ATOM     21  O   UNL     1       4.124   2.447  17.539  0.00  0.00    +0.000 OA
ATOM     22  H   UNL     1       4.892   2.588  16.965  0.00  0.00    +0.000 HD
ENDBRANCH   2  21
BRANCH  15  23
ATOM     23  O   UNL     1      -0.283  12.344  18.327  0.00  0.00    +0.000 OA
ATOM     24  H   UNL     1      -1.240  12.352  18.489  0.00  0.00    +0.000 HD
ENDBRANCH  15  23
TORSDOF 3
ENDMDL
MODEL 3
REMARK VINA RESULT:      -7.0      1.306      3.016
REMARK  Name = 
REMARK  5 active torsions:
REMARK  status: ('A' for Active; 'I' for Inactive)
REMARK    1  A    between atoms: C_1  and  O_2
REMARK    2  A    between atoms: O_2  and  C_3
REMARK    3  A    between atoms: C_4  and  O_5
REMARK    4  A    between atoms: C_16  and  C_17
REMARK    5  A    between atoms: C_18  and  O_19
REMARK                            x       y       z     vdW  Elec       q    Type
REMARK                         _______ _______ _______ _____ _____    ______ ____
ROOT
ATOM      1  C   UNL     1       1.051  10.785  20.476  0.00  0.00    +0.000 A 
ATOM      2  C   UNL     1       1.362  11.672  19.447  0.00  0.00    +0.000 A 
ATOM      3  C   UNL     1       1.784  11.215  18.201  0.00  0.00    +0.000 A 
ATOM      4  C   UNL     1       1.958   9.851  17.995  0.00  0.00    +0.000 A 
ATOM      5  C   UNL     1       1.707   8.915  19.013  0.00  0.00    +0.000 A 
ATOM      6  C   UNL     1       1.200   9.385  20.251  0.00  0.00    +0.000 A 
ATOM      7  C   UNL     1       0.844   8.408  21.358  0.00  0.00    +0.000 C 
ATOM      8  C   UNL     1       0.924   6.930  20.978  0.00  0.00    +0.000 C 
ATOM      9  C   UNL     1       2.143   6.659  20.092  0.00  0.00    +0.000 C 
ATOM     10  C   UNL     1       1.934   7.424  18.753  0.00  0.00    +0.000 C 
ATOM     11  C   UNL     1       3.062   7.111  17.728  0.00  0.00    +0.000 C 
ATOM     12  C   UNL     1       3.339   5.609  17.549  0.00  0.00    +0.000 C 
ATOM     13  C   UNL     1       3.585   4.917  18.893  0.00  0.00    +0.000 C 
ATOM     14  C   UNL     1       4.929   5.410  19.487  0.00  0.00    +0.000 C 
ATOM     15  C   UNL     1       3.548   3.377  18.832  0.00  0.00    +0.000 C 
ATOM     16  C   UNL     1       3.204   2.953  20.272  0.00  0.00    +0.000 C 
ATOM     17  C   UNL     1       2.563   4.186  20.942  0.00  0.00    +0.000 C 
ATOM     18  C   UNL     1       2.352   5.169  19.791  0.00  0.00    +0.000 C 
ENDROOT
BRANCH   1  20
ATOM     19  C   UNL     1      -0.657  11.660  21.920  0.00  0.00    +0.000 C 
ATOM     20  O   UNL     1       0.664  11.158  21.745  0.00  0.00    +0.000 OA
ENDBRANCH   1  20
BRANCH   2  21
ATOM     21  O   UNL     1       1.344  13.033  19.565  0.00  0.00    +0.000 OA
ATOM     22  H   UNL     1       2.227  13.323  19.288  0.00  0.00    +0.000 HD
ENDBRANCH   2  21
BRANCH  15  23
ATOM     23  O   UNL     1       4.748   2.788  18.365  0.00  0.00    +0.000 OA
ATOM     24  H   UNL     1       4.913   3.093  17.458  0.00  0.00    +0.000 HD
ENDBRANCH  15  23
TORSDOF 3
ENDMDL
MODEL 4
REMARK VINA RESULT:      -6.8      1.584      7.142
REMARK  Name = 
REMARK  5 active torsions:
REMARK  status: ('A' for Active; 'I' for Inactive)
REMARK    1  A    between atoms: C_1  and  O_2
REMARK    2  A    between atoms: O_2  and  C_3
REMARK    3  A    between atoms: C_4  and  O_5
REMARK    4  A    between atoms: C_16  and  C_17
REMARK    5  A    between atoms: C_18  and  O_19
REMARK                            x       y       z     vdW  Elec       q    Type
REMARK                         _______ _______ _______ _____ _____    ______ ____
ROOT
ATOM      1  C   UNL     1       2.573   4.981  19.746  0.00  0.00    +0.000 A 
ATOM      2  C   UNL     1       3.271   4.626  18.593  0.00  0.00    +0.000 A 
ATOM      3  C   UNL     1       3.641   5.580  17.649  0.00  0.00    +0.000 A 
ATOM      4  C   UNL     1       3.254   6.904  17.826  0.00  0.00    +0.000 A 
ATOM      5  C   UNL     1       2.506   7.309  18.944  0.00  0.00    +0.000 A 
ATOM      6  C   UNL     1       2.206   6.345  19.940  0.00  0.00    +0.000 A 
ATOM      7  C   UNL     1       1.463   6.746  21.202  0.00  0.00    +0.000 C 
ATOM      8  C   UNL     1       1.222   8.246  21.371  0.00  0.00    +0.000 C 
ATOM      9  C   UNL     1       0.849   8.894  20.035  0.00  0.00    +0.000 C 
ATOM     10  C   UNL     1       2.079   8.772  19.090  0.00  0.00    +0.000 C 
ATOM     11  C   UNL     1       1.848   9.514  17.743  0.00  0.00    +0.000 C 
ATOM     12  C   UNL     1       1.331  10.954  17.908  0.00  0.00    +0.000 C 
ATOM     13  C   UNL     1       0.092  11.008  18.807  0.00  0.00    +0.000 C 
ATOM     14  C   UNL     1      -1.100  10.333  18.081  0.00  0.00    +0.000 C 
ATOM     15  C   UNL     1      -0.290  12.424  19.280  0.00  0.00    +0.000 C 
ATOM     16  C   UNL     1      -1.095  12.184  20.571  0.00  0.00    +0.000 C 
ATOM     17  C   UNL     1      -0.713  10.772  21.059  0.00  0.00    +0.000 C 
ATOM     18  C   UNL     1       0.462  10.372  20.166  0.00  0.00    +0.000 C 
ENDROOT
BRANCH   1  20
ATOM     19  C   UNL     1       1.006   3.286  20.408  0.00  0.00    +0.000 C 
ATOM     20  O   UNL     1       2.139   4.094  20.707  0.00  0.00    +0.000 OA
ENDBRANCH   1  20
BRANCH   2  21
ATOM     21  O   UNL     1       3.603   3.346  18.251  0.00  0.00    +0.000 OA
ATOM     22  H   UNL     1       3.114   2.783  18.870  0.00  0.00    +0.000 HD
ENDBRANCH   2  21
BRANCH  15  23
ATOM     23  O   UNL     1      -1.011  13.179  18.324  0.00  0.00    +0.000 OA
ATOM     24  H   UNL     1      -0.789  12.854  17.437  0.00  0.00    +0.000 HD
ENDBRANCH  15  23
TORSDOF 3
ENDMDL
MODEL 5
REMARK VINA RESULT:      -6.7      8.824     10.041
REMARK  Name = 
REMARK  5 active torsions:
REMARK  status: ('A' for Active; 'I' for Inactive)
REMARK    1  A    between atoms: C_1  and  O_2
REMARK    2  A    between atoms: O_2  and  C_3
REMARK    3  A    between atoms: C_4  and  O_5
REMARK    4  A    between atoms: C_16  and  C_17
REMARK    5  A    between atoms: C_18  and  O_19
REMARK                            x       y       z     vdW  Elec       q    Type
REMARK                         _______ _______ _______ _____ _____    ______ ____
ROOT
ATOM      1  C   UNL     1       5.997  13.377  23.521  0.00  0.00    +0.000 A 
ATOM      2  C   UNL     1       6.141  12.340  24.441  0.00  0.00    +0.000 A 
ATOM      3  C   UNL     1       7.301  11.571  24.487  0.00  0.00    +0.000 A 
ATOM      4  C   UNL     1       8.311  11.799  23.560  0.00  0.00    +0.000 A 
ATOM      5  C   UNL     1       8.198  12.799  22.579  0.00  0.00    +0.000 A 
ATOM      6  C   UNL     1       7.050  13.630  22.593  0.00  0.00    +0.000 A 
ATOM      7  C   UNL     1       6.912  14.771  21.600  0.00  0.00    +0.000 C 
ATOM      8  C   UNL     1       8.141  15.034  20.731  0.00  0.00    +0.000 C 
ATOM      9  C   UNL     1       8.788  13.719  20.287  0.00  0.00    +0.000 C 
ATOM     10  C   UNL     1       9.323  13.002  21.561  0.00  0.00    +0.000 C 
ATOM     11  C   UNL     1      10.115  11.712  21.206  0.00  0.00    +0.000 C 
ATOM     12  C   UNL     1      11.179  11.915  20.115  0.00  0.00    +0.000 C 
ATOM     13  C   UNL     1      10.587  12.579  18.868  0.00  0.00    +0.000 C 
ATOM     14  C   UNL     1       9.616  11.592  18.172  0.00  0.00    +0.000 C 
ATOM     15  C   UNL     1      11.636  13.108  17.869  0.00  0.00    +0.000 C 
ATOM     16  C   UNL     1      10.890  14.205  17.087  0.00  0.00    +0.000 C 
ATOM     17  C   UNL     1       9.692  14.619  17.966  0.00  0.00    +0.000 C 
ATOM     18  C   UNL     1       9.945  13.917  19.300  0.00  0.00    +0.000 C 
ENDROOT
BRANCH   1  20
ATOM     19  C   UNL     1       4.763  15.322  24.201  0.00  0.00    +0.000 C 
ATOM     20  O   UNL     1       4.870  14.158  23.388  0.00  0.00    +0.000 OA
ENDBRANCH   1  20
BRANCH   2  21
ATOM     21  O   UNL     1       5.174  11.944  25.321  0.00  0.00    +0.000 OA
ATOM     22  H   UNL     1       4.733  12.761  25.597  0.00  0.00    +0.000 HD
ENDBRANCH   2  21
BRANCH  15  23
ATOM     23  O   UNL     1      12.180  12.113  17.021  0.00  0.00    +0.000 OA
ATOM     24  H   UNL     1      13.059  12.400  16.726  0.00  0.00    +0.000 HD
ENDBRANCH  15  23
TORSDOF 3
ENDMDL
MODEL 6
REMARK VINA RESULT:      -6.4      1.554      6.611
REMARK  Name = 
REMARK  5 active torsions:
REMARK  status: ('A' for Active; 'I' for Inactive)
REMARK    1  A    between atoms: C_1  and  O_2
REMARK    2  A    between atoms: O_2  and  C_3
REMARK    3  A    between atoms: C_4  and  O_5
REMARK    4  A    between atoms: C_16  and  C_17
REMARK    5  A    between atoms: C_18  and  O_19
REMARK                            x       y       z     vdW  Elec       q    Type
REMARK                         _______ _______ _______ _____ _____    ______ ____
ROOT
ATOM      1  C   UNL     1       4.383   5.210  18.467  0.00  0.00    +0.000 A 
ATOM      2  C   UNL     1       4.337   4.108  19.319  0.00  0.00    +0.000 A 
ATOM      3  C   UNL     1       3.318   3.961  20.256  0.00  0.00    +0.000 A 
ATOM      4  C   UNL     1       2.361   4.962  20.390  0.00  0.00    +0.000 A 
ATOM      5  C   UNL     1       2.388   6.117  19.591  0.00  0.00    +0.000 A 
ATOM      6  C   UNL     1       3.382   6.218  18.585  0.00  0.00    +0.000 A 
ATOM      7  C   UNL     1       3.411   7.413  17.648  0.00  0.00    +0.000 C 
ATOM      8  C   UNL     1       2.230   8.374  17.775  0.00  0.00    +0.000 C 
ATOM      9  C   UNL     1       1.842   8.573  19.243  0.00  0.00    +0.000 C 
ATOM     10  C   UNL     1       1.331   7.207  19.786  0.00  0.00    +0.000 C 
ATOM     11  C   UNL     1       0.791   7.330  21.239  0.00  0.00    +0.000 C 
ATOM     12  C   UNL     1      -0.202   8.489  21.437  0.00  0.00    +0.000 C 
ATOM     13  C   UNL     1       0.373   9.815  20.930  0.00  0.00    +0.000 C 
ATOM     14  C   UNL     1       1.544  10.252  21.846  0.00  0.00    +0.000 C 
ATOM     15  C   UNL     1      -0.664  10.947  20.793  0.00  0.00    +0.000 C 
ATOM     16  C   UNL     1      -0.047  11.899  19.751  0.00  0.00    +0.000 C 
ATOM     17  C   UNL     1       0.994  11.067  18.974  0.00  0.00    +0.000 C 
ATOM     18  C   UNL     1       0.751   9.632  19.443  0.00  0.00    +0.000 C 
ENDROOT
BRANCH   1  20
ATOM     19  C   UNL     1       5.377   4.666  16.349  0.00  0.00    +0.000 C 
ATOM     20  O   UNL     1       5.376   5.445  17.541  0.00  0.00    +0.000 OA
ENDBRANCH   1  20
BRANCH   2  21
ATOM     21  O   UNL     1       5.281   3.122  19.364  0.00  0.00    +0.000 OA
ATOM     22  H   UNL     1       5.959   3.448  19.976  0.00  0.00    +0.000 HD
ENDBRANCH   2  21
BRANCH  15  23
ATOM     23  O   UNL     1      -0.970  11.602  22.011  0.00  0.00    +0.000 OA
ATOM     24  H   UNL     1      -0.167  11.640  22.556  0.00  0.00    +0.000 HD
ENDBRANCH  15  23
TORSDOF 3
ENDMDL
MODEL 7
REMARK VINA RESULT:      -6.3      2.330      7.741
REMARK  Name = 
REMARK  5 active torsions:
REMARK  status: ('A' for Active; 'I' for Inactive)
REMARK    1  A    between atoms: C_1  and  O_2
REMARK    2  A    between atoms: O_2  and  C_3
REMARK    3  A    between atoms: C_4  and  O_5
REMARK    4  A    between atoms: C_16  and  C_17
REMARK    5  A    between atoms: C_18  and  O_19
REMARK                            x       y       z     vdW  Elec       q    Type
REMARK                         _______ _______ _______ _____ _____    ______ ____
ROOT
ATOM      1  C   UNL     1       2.205   6.746  19.734  0.00  0.00    +0.000 A 
ATOM      2  C   UNL     1       2.710   6.639  18.439  0.00  0.00    +0.000 A 
ATOM      3  C   UNL     1       2.749   7.738  17.585  0.00  0.00    +0.000 A 
ATOM      4  C   UNL     1       2.219   8.952  18.008  0.00  0.00    +0.000 A 
ATOM      5  C   UNL     1       1.653   9.104  19.284  0.00  0.00    +0.000 A 
ATOM      6  C   UNL     1       1.693   8.002  20.175  0.00  0.00    +0.000 A 
ATOM      7  C   UNL     1       1.159   8.134  21.591  0.00  0.00    +0.000 C 
ATOM      8  C   UNL     1       0.744   9.546  22.004  0.00  0.00    +0.000 C 
ATOM      9  C   UNL     1       0.030  10.264  20.856  0.00  0.00    +0.000 C 
ATOM     10  C   UNL     1       1.058  10.451  19.702  0.00  0.00    +0.000 C 
ATOM     11  C   UNL     1       0.466  11.287  18.532  0.00  0.00    +0.000 C 
ATOM     12  C   UNL     1      -0.210  12.594  18.981  0.00  0.00    +0.000 C 
ATOM     13  C   UNL     1      -1.245  12.343  20.081  0.00  0.00    +0.000 C 
ATOM     14  C   UNL     1      -2.446  11.563  19.489  0.00  0.00    +0.000 C 
ATOM     15  C   UNL     1      -1.726  13.617  20.805  0.00  0.00    +0.000 C 
ATOM     16  C   UNL     1      -2.222  13.108  22.171  0.00  0.00    +0.000 C 
ATOM     17  C   UNL     1      -1.555  11.734  22.386  0.00  0.00    +0.000 C 
ATOM     18  C   UNL     1      -0.531  11.635  21.254  0.00  0.00    +0.000 C 
ENDROOT
BRANCH   1  20
ATOM     19  C   UNL     1       1.111   4.706  20.372  0.00  0.00    +0.000 C 
ATOM     20  O   UNL     1       2.099   5.700  20.625  0.00  0.00    +0.000 OA
ENDBRANCH   1  20
BRANCH   2  21
ATOM     21  O   UNL     1       3.148   5.477  17.871  0.00  0.00    +0.000 OA
ATOM     22  H   UNL     1       4.115   5.514  17.932  0.00  0.00    +0.000 HD
ENDBRANCH   2  21
BRANCH  15  23
ATOM     23  O   UNL     1      -2.719  14.341  20.102  0.00  0.00    +0.000 OA
ATOM     24  H   UNL     1      -2.284  14.939  19.472  0.00  0.00    +0.000 HD
ENDBRANCH  15  23
TORSDOF 3
ENDMDL
MODEL 8
REMARK VINA RESULT:      -6.2      2.332      3.792
REMARK  Name = 
REMARK  5 active torsions:
REMARK  status: ('A' for Active; 'I' for Inactive)
REMARK    1  A    between atoms: C_1  and  O_2
REMARK    2  A    between atoms: O_2  and  C_3
REMARK    3  A    between atoms: C_4  and  O_5
REMARK    4  A    between atoms: C_16  and  C_17
REMARK    5  A    between atoms: C_18  and  O_19
REMARK                            x       y       z     vdW  Elec       q    Type
REMARK                         _______ _______ _______ _____ _____    ______ ____
ROOT
ATOM      1  C   UNL     1       1.044   8.896  20.507  0.00  0.00    +0.000 A 
ATOM      2  C   UNL     1       0.557  10.003  19.813  0.00  0.00    +0.000 A 
ATOM      3  C   UNL     1       0.810  10.173  18.455  0.00  0.00    +0.000 A 
ATOM      4  C   UNL     1       1.614   9.256  17.788  0.00  0.00    +0.000 A 
ATOM      5  C   UNL     1       2.172   8.149  18.449  0.00  0.00    +0.000 A 
ATOM      6  C   UNL     1       1.841   7.940  19.812  0.00  0.00    +0.000 A 
ATOM      7  C   UNL     1       2.359   6.720  20.553  0.00  0.00    +0.000 C 
ATOM      8  C   UNL     1       3.101   5.698  19.692  0.00  0.00    +0.000 C 
ATOM      9  C   UNL     1       3.996   6.396  18.664  0.00  0.00    +0.000 C 
ATOM     10  C   UNL     1       3.072   7.175  17.684  0.00  0.00    +0.000 C 
ATOM     11  C   UNL     1       3.878   7.819  16.520  0.00  0.00    +0.000 C 
ATOM     12  C   UNL     1       4.846   6.847  15.822  0.00  0.00    +0.000 C 
ATOM     13  C   UNL     1       5.762   6.146  16.829  0.00  0.00    +0.000 C 
ATOM     14  C   UNL     1       6.746   7.179  17.436  0.00  0.00    +0.000 C 
ATOM     15  C   UNL     1       6.528   4.936  16.258  0.00  0.00    +0.000 C 
ATOM     16  C   UNL     1       6.853   4.079  17.496  0.00  0.00    +0.000 C 
ATOM     17  C   UNL     1       5.861   4.517  18.593  0.00  0.00    +0.000 C 
ATOM     18  C   UNL     1       4.870   5.423  17.863  0.00  0.00    +0.000 C 
ENDROOT
BRANCH   1  20
ATOM     19  C   UNL     1      -0.463   8.567  22.348  0.00  0.00    +0.000 C 
ATOM     20  O   UNL     1       0.869   8.675  21.856  0.00  0.00    +0.000 OA
ENDBRANCH   1  20
BRANCH   2  21
ATOM     21  O   UNL     1      -0.143  11.029  20.383  0.00  0.00    +0.000 OA
ATOM     22  H   UNL     1       0.530  11.621  20.751  0.00  0.00    +0.000 HD
ENDBRANCH   2  21
BRANCH  15  23
ATOM     23  O   UNL     1       7.684   5.279  15.518  0.00  0.00    +0.000 OA
ATOM     24  H   UNL     1       7.807   4.627  14.809  0.00  0.00    +0.000 HD
ENDBRANCH  15  23
TORSDOF 3
ENDMDL
MODEL 9
REMARK VINA RESULT:      -6.1      1.661      3.178
REMARK  Name = 
REMARK  5 active torsions:
REMARK  status: ('A' for Active; 'I' for Inactive)
REMARK    1  A    between atoms: C_1  and  O_2
REMARK    2  A    between atoms: O_2  and  C_3
REMARK    3  A    between atoms: C_4  and  O_5
REMARK    4  A    between atoms: C_16  and  C_17
REMARK    5  A    between atoms: C_18  and  O_19
REMARK                            x       y       z     vdW  Elec       q    Type
REMARK                         _______ _______ _______ _____ _____    ______ ____
ROOT
ATOM      1  C   UNL     1       0.622   9.483  20.721  0.00  0.00    +0.000 A 
ATOM      2  C   UNL     1       0.682  10.696  20.036  0.00  0.00    +0.000 A 
ATOM      3  C   UNL     1       1.263  10.786  18.775  0.00  0.00    +0.000 A 
ATOM      4  C   UNL     1       1.851   9.660  18.210  0.00  0.00    +0.000 A 
ATOM      5  C   UNL     1       1.864   8.424  18.877  0.00  0.00    +0.000 A 
ATOM      6  C   UNL     1       1.197   8.323  20.124  0.00  0.00    +0.000 A 
ATOM      7  C   UNL     1       1.120   6.993  20.852  0.00  0.00    +0.000 C 
ATOM      8  C   UNL     1       1.658   5.790  20.077  0.00  0.00    +0.000 C 
ATOM      9  C   UNL     1       2.931   6.160  19.310  0.00  0.00    +0.000 C 
ATOM     10  C   UNL     1       2.543   7.213  18.232  0.00  0.00    +0.000 C 
ATOM     11  C   UNL     1       3.746   7.563  17.310  0.00  0.00    +0.000 C 
ATOM     12  C   UNL     1       4.474   6.331  16.743  0.00  0.00    +0.000 C 
ATOM     13  C   UNL     1       4.874   5.355  17.852  0.00  0.00    +0.000 C 
ATOM     14  C   UNL     1       5.983   5.994  18.726  0.00  0.00    +0.000 C 
ATOM     15  C   UNL     1       5.310   3.964  17.349  0.00  0.00    +0.000 C 
ATOM     16  C   UNL     1       5.065   3.035  18.553  0.00  0.00    +0.000 C 
ATOM     17  C   UNL     1       4.056   3.767  19.462  0.00  0.00    +0.000 C 
ATOM     18  C   UNL     1       3.594   4.960  18.623  0.00  0.00    +0.000 C 
ENDROOT
BRANCH   1  20
ATOM     19  C   UNL     1       0.966   9.506  23.098  0.00  0.00    +0.000 C 
ATOM     20  O   UNL     1       0.098   9.319  21.985  0.00  0.00    +0.000 OA
ENDBRANCH   1  20
BRANCH   2  21
ATOM     21  O   UNL     1       0.246  11.891  20.536  0.00  0.00    +0.000 OA
ATOM     22  H   UNL     1      -0.062  12.391  19.765  0.00  0.00    +0.000 HD
ENDBRANCH   2  21
BRANCH  15  23
ATOM     23  O   UNL     1       6.647   3.910  16.886  0.00  0.00    +0.000 OA
ATOM     24  H   UNL     1       6.956   4.814  16.715  0.00  0.00    +0.000 HD
ENDBRANCH  15  23
TORSDOF 3
ENDMDL
