MODEL 1
REMARK VINA RESULT:      -9.2      0.000      0.000
REMARK  Name = 
REMARK  5 active torsions:
REMARK  status: ('A' for Active; 'I' for Inactive)
REMARK    1  A    between atoms: C_1  and  O_2
REMARK    2  A    between atoms: O_2  and  C_3
REMARK    3  A    between atoms: C_16  and  N_17
REMARK    4  A    between atoms: C_18  and  C_20
REMARK    5  A    between atoms: C_23  and  C_24
REMARK                            x       y       z     vdW  Elec       q    Type
REMARK                         _______ _______ _______ _____ _____    ______ ____
ROOT
ATOM      1  C   UNL     1       6.817   5.196  16.116  0.00  0.00    +0.000 A 
ATOM      2  C   UNL     1       7.022   6.085  17.162  0.00  0.00    +0.000 A 
ATOM      3  C   UNL     1       6.193   6.038  18.287  0.00  0.00    +0.000 A 
ATOM      4  C   UNL     1       5.131   5.111  18.391  0.00  0.00    +0.000 A 
ATOM      5  C   UNL     1       4.953   4.198  17.349  0.00  0.00    +0.000 A 
ATOM      6  C   UNL     1       5.795   4.251  16.224  0.00  0.00    +0.000 A 
ATOM      7  S   UNL     1       3.711   2.938  17.332  0.00  0.00    +0.000 S 
ATOM      8  C   UNL     1       2.944   3.081  18.913  0.00  0.00    +0.000 A 
ATOM      9  C   UNL     1       1.982   2.126  19.254  0.00  0.00    +0.000 A 
ATOM     10  N   UNL     1       1.276   2.110  20.409  0.00  0.00    +0.000 NA
ATOM     11  C   UNL     1       1.543   3.098  21.281  0.00  0.00    +0.000 A 
ATOM     12  C   UNL     1       2.489   4.083  21.047  0.00  0.00    +0.000 A 
ATOM     13  C   UNL     1       3.214   4.088  19.837  0.00  0.00    +0.000 A 
ATOM     14  C   UNL     1       4.242   5.180  19.621  0.00  0.00    +0.000 C 
ENDROOT
BRANCH  14  15
ATOM     15  N   UNL     1       3.572   6.476  19.650  0.00  0.00    +0.000 N 
ATOM     16  C   UNL     1       2.609   6.847  18.752  0.00  0.00    +0.000 C 
ATOM     17  O   UNL     1       2.252   6.124  17.825  0.00  0.00    +0.000 OA
ATOM     18  H   UNL     1       3.809   7.106  20.415  0.00  0.00    +0.000 HD
BRANCH  16  19
ATOM     19  C   UNL     1       2.002   8.196  18.960  0.00  0.00    +0.000 A 
ATOM     20  C   UNL     1       2.008   9.067  17.930  0.00  0.00    +0.000 A 
ATOM     21  C   UNL     1       1.423  10.385  18.039  0.00  0.00    +0.000 A 
ATOM     22  C   UNL     1       0.837  10.780  19.184  0.00  0.00    +0.000 A 
ATOM     23  N   UNL     1       0.828   9.902  20.255  0.00  0.00    +0.000 N 
ATOM     24  C   UNL     1       1.374   8.640  20.239  0.00  0.00    +0.000 A 
ATOM     25  O   UNL     1       1.338   7.920  21.233  0.00  0.00    +0.000 OA
ATOM     26  H   UNL     1       0.396  10.189  21.130  0.00  0.00    +0.000 HD
BRANCH  22  27
ATOM     27  C   UNL     1       0.187  12.138  19.347  0.00  0.00    +0.000 C 
ATOM     28  F   UNL     1      -1.124  12.107  18.992  0.00  0.00    +0.000 F 
ATOM     29  F   UNL     1       0.243  12.576  20.628  0.00  0.00    +0.000 F 
ATOM     30  F   UNL     1       0.785  13.079  18.574  0.00  0.00    +0.000 F 
ENDBRANCH  22  27
ENDBRANCH  16  19
ENDBRANCH  14  15
BRANCH   1  32
ATOM     31  C   UNL     1       6.880   4.559  13.828  0.00  0.00    +0.000 C 
ATOM     32  O   UNL     1       7.531   5.138  14.952  0.00  0.00    +0.000 OA
ENDBRANCH   1  32
TORSDOF 4
ENDMDL
MODEL 2
REMARK VINA RESULT:      -8.8      0.943      1.499
REMARK  Name = 
REMARK  5 active torsions:
REMARK  status: ('A' for Active; 'I' for Inactive)
REMARK    1  A    between atoms: C_1  and  O_2
REMARK    2  A    between atoms: O_2  and  C_3
REMARK    3  A    between atoms: C_16  and  N_17
REMARK    4  A    between atoms: C_18  and  C_20
REMARK    5  A    between atoms: C_23  and  C_24
REMARK                            x       y       z     vdW  Elec       q    Type
REMARK                         _______ _______ _______ _____ _____    ______ ____
ROOT
ATOM      1  C   UNL     1       6.757   5.469  16.299  0.00  0.00    +0.000 A 
ATOM      2  C   UNL     1       6.936   6.264  17.423  0.00  0.00    +0.000 A 
ATOM      3  C   UNL     1       6.084   6.117  18.522  0.00  0.00    +0.000 A 
ATOM      4  C   UNL     1       5.026   5.180  18.522  0.00  0.00    +0.000 A 
ATOM      5  C   UNL     1       4.874   4.361  17.402  0.00  0.00    +0.000 A 
ATOM      6  C   UNL     1       5.738   4.515  16.303  0.00  0.00    +0.000 A 
ATOM      7  S   UNL     1       3.638   3.103  17.249  0.00  0.00    +0.000 S 
ATOM      8  C   UNL     1       2.838   3.105  18.819  0.00  0.00    +0.000 A 
ATOM      9  C   UNL     1       1.874   2.121  19.056  0.00  0.00    +0.000 A 
ATOM     10  N   UNL     1       1.145   2.002  20.190  0.00  0.00    +0.000 NA
ATOM     11  C   UNL     1       1.389   2.910  21.150  0.00  0.00    +0.000 A 
ATOM     12  C   UNL     1       2.335   3.916  21.023  0.00  0.00    +0.000 A 
ATOM     13  C   UNL     1       3.084   4.028  19.833  0.00  0.00    +0.000 A 
ATOM     14  C   UNL     1       4.111   5.138  19.734  0.00  0.00    +0.000 C 
ENDROOT
BRANCH  14  15
ATOM     15  N   UNL     1       3.434   6.425  19.863  0.00  0.00    +0.000 N 
ATOM     16  C   UNL     1       2.487   6.869  18.981  0.00  0.00    +0.000 C 
ATOM     17  O   UNL     1       2.154   6.229  17.987  0.00  0.00    +0.000 OA
ATOM     18  H   UNL     1       3.651   6.987  20.685  0.00  0.00    +0.000 HD
BRANCH  16  19
ATOM     19  C   UNL     1       1.869   8.193  19.292  0.00  0.00    +0.000 A 
ATOM     20  C   UNL     1       1.368   8.392  20.528  0.00  0.00    +0.000 A 
ATOM     21  C   UNL     1       0.772   9.650  20.920  0.00  0.00    +0.000 A 
ATOM     22  C   UNL     1       0.710  10.676  20.052  0.00  0.00    +0.000 A 
ATOM     23  N   UNL     1       1.213  10.489  18.775  0.00  0.00    +0.000 N 
ATOM     24  C   UNL     1       1.781   9.322  18.320  0.00  0.00    +0.000 A 
ATOM     25  O   UNL     1       2.196   9.225  17.167  0.00  0.00    +0.000 OA
ATOM     26  H   UNL     1       1.167  11.253  18.105  0.00  0.00    +0.000 HD
BRANCH  22  27
ATOM     27  C   UNL     1       0.121  12.023  20.415  0.00  0.00    +0.000 C 
ATOM     28  F   UNL     1       0.709  12.540  21.525  0.00  0.00    +0.000 F 
ATOM     29  F   UNL     1       0.280  12.930  19.421  0.00  0.00    +0.000 F 
ATOM     30  F   UNL     1      -1.208  11.938  20.672  0.00  0.00    +0.000 F 
ENDBRANCH  22  27
ENDBRANCH  16  19
ENDBRANCH  14  15
BRANCH   1  32
ATOM     31  C   UNL     1       6.999   4.778  14.039  0.00  0.00    +0.000 C 
ATOM     32  O   UNL     1       7.495   5.515  15.149  0.00  0.00    +0.000 OA
ENDBRANCH   1  32
TORSDOF 4
ENDMDL
MODEL 3
REMARK VINA RESULT:      -8.8      1.219      1.771
REMARK  Name = 
REMARK  5 active torsions:
REMARK  status: ('A' for Active; 'I' for Inactive)
REMARK    1  A    between atoms: C_1  and  O_2
REMARK    2  A    between atoms: O_2  and  C_3
REMARK    3  A    between atoms: C_16  and  N_17
REMARK    4  A    between atoms: C_18  and  C_20
REMARK    5  A    between atoms: C_23  and  C_24
REMARK                            x       y       z     vdW  Elec       q    Type
REMARK                         _______ _______ _______ _____ _____    ______ ____
ROOT
ATOM      1  C   UNL     1       6.562   5.638  16.190  0.00  0.00    +0.000 A 
ATOM      2  C   UNL     1       6.430   6.702  17.070  0.00  0.00    +0.000 A 
ATOM      3  C   UNL     1       5.450   6.664  18.066  0.00  0.00    +0.000 A 
ATOM      4  C   UNL     1       4.568   5.568  18.201  0.00  0.00    +0.000 A 
ATOM      5  C   UNL     1       4.729   4.486  17.332  0.00  0.00    +0.000 A 
ATOM      6  C   UNL     1       5.721   4.533  16.336  0.00  0.00    +0.000 A 
ATOM      7  S   UNL     1       3.751   3.012  17.387  0.00  0.00    +0.000 S 
ATOM      8  C   UNL     1       2.722   3.241  18.800  0.00  0.00    +0.000 A 
ATOM      9  C   UNL     1       1.903   2.176  19.184  0.00  0.00    +0.000 A 
ATOM     10  N   UNL     1       1.031   2.197  20.219  0.00  0.00    +0.000 NA
ATOM     11  C   UNL     1       0.971   3.342  20.920  0.00  0.00    +0.000 A 
ATOM     12  C   UNL     1       1.752   4.452  20.633  0.00  0.00    +0.000 A 
ATOM     13  C   UNL     1       2.653   4.414  19.548  0.00  0.00    +0.000 A 
ATOM     14  C   UNL     1       3.491   5.645  19.269  0.00  0.00    +0.000 C 
ENDROOT
BRANCH  14  15
ATOM     15  N   UNL     1       2.605   6.766  18.970  0.00  0.00    +0.000 N 
ATOM     16  C   UNL     1       2.114   7.614  19.926  0.00  0.00    +0.000 C 
ATOM     17  O   UNL     1       2.357   7.477  21.122  0.00  0.00    +0.000 OA
ATOM     18  H   UNL     1       2.393   6.944  17.990  0.00  0.00    +0.000 HD
BRANCH  16  19
ATOM     19  C   UNL     1       1.254   8.731  19.433  0.00  0.00    +0.000 A 
ATOM     20  C   UNL     1       0.299   9.215  20.253  0.00  0.00    +0.000 A 
ATOM     21  C   UNL     1      -0.562  10.310  19.863  0.00  0.00    +0.000 A 
ATOM     22  C   UNL     1      -0.425  10.891  18.658  0.00  0.00    +0.000 A 
ATOM     23  N   UNL     1       0.546  10.403  17.798  0.00  0.00    +0.000 N 
ATOM     24  C   UNL     1       1.393   9.358  18.085  0.00  0.00    +0.000 A 
ATOM     25  O   UNL     1       2.224   8.971  17.267  0.00  0.00    +0.000 OA
ATOM     26  H   UNL     1       0.657  10.826  16.880  0.00  0.00    +0.000 HD
BRANCH  22  27
ATOM     27  C   UNL     1      -1.281  12.055  18.206  0.00  0.00    +0.000 C 
ATOM     28  F   UNL     1      -2.246  12.346  19.117  0.00  0.00    +0.000 F 
ATOM     29  F   UNL     1      -0.550  13.183  18.028  0.00  0.00    +0.000 F 
ATOM     30  F   UNL     1      -1.909  11.794  17.033  0.00  0.00    +0.000 F 
ENDBRANCH  22  27
ENDBRANCH  16  19
ENDBRANCH  14  15
BRANCH   1  32
ATOM     31  C   UNL     1       7.054   4.783  14.028  0.00  0.00    +0.000 C 
ATOM     32  O   UNL     1       7.456   5.545  15.160  0.00  0.00    +0.000 OA
ENDBRANCH   1  32
TORSDOF 4
ENDMDL
MODEL 4
REMARK VINA RESULT:      -8.4      4.907      9.609
REMARK  Name = 
REMARK  5 active torsions:
REMARK  status: ('A' for Active; 'I' for Inactive)
REMARK    1  A    between atoms: C_1  and  O_2
REMARK    2  A    between atoms: O_2  and  C_3
REMARK    3  A    between atoms: C_16  and  N_17
REMARK    4  A    between atoms: C_18  and  C_20
REMARK    5  A    between atoms: C_23  and  C_24
REMARK                            x       y       z     vdW  Elec       q    Type
REMARK                         _______ _______ _______ _____ _____    ______ ____
ROOT
ATOM      1  C   UNL     1      -1.757  13.583  22.932  0.00  0.00    +0.000 A 
ATOM      2  C   UNL     1      -0.500  13.412  22.372  0.00  0.00    +0.000 A 
ATOM      3  C   UNL     1      -0.379  12.888  21.081  0.00  0.00    +0.000 A 
ATOM      4  C   UNL     1      -1.511  12.511  20.322  0.00  0.00    +0.000 A 
ATOM      5  C   UNL     1      -2.774  12.718  20.880  0.00  0.00    +0.000 A 
ATOM      6  C   UNL     1      -2.884  13.250  22.178  0.00  0.00    +0.000 A 
ATOM      7  S   UNL     1      -4.297  12.353  20.058  0.00  0.00    +0.000 S 
ATOM      8  C   UNL     1      -3.795  11.837  18.449  0.00  0.00    +0.000 A 
ATOM      9  C   UNL     1      -4.796  11.588  17.506  0.00  0.00    +0.000 A 
ATOM     10  N   UNL     1      -4.585  11.154  16.241  0.00  0.00    +0.000 NA
ATOM     11  C   UNL     1      -3.303  10.959  15.888  0.00  0.00    +0.000 A 
ATOM     12  C   UNL     1      -2.235  11.192  16.740  0.00  0.00    +0.000 A 
ATOM     13  C   UNL     1      -2.472  11.641  18.057  0.00  0.00    +0.000 A 
ATOM     14  C   UNL     1      -1.278  11.888  18.956  0.00  0.00    +0.000 C 
ENDROOT
BRANCH  14  15
ATOM     15  N   UNL     1      -0.542  10.638  19.123  0.00  0.00    +0.000 N 
ATOM     16  C   UNL     1       0.789  10.504  18.836  0.00  0.00    +0.000 C 
ATOM     17  O   UNL     1       1.466  11.422  18.382  0.00  0.00    +0.000 OA
ATOM     18  H   UNL     1      -1.048   9.849  19.524  0.00  0.00    +0.000 HD
BRANCH  16  19
ATOM     19  C   UNL     1       1.386   9.162  19.107  0.00  0.00    +0.000 A 
ATOM     20  C   UNL     1       1.983   8.508  18.090  0.00  0.00    +0.000 A 
ATOM     21  C   UNL     1       2.605   7.215  18.271  0.00  0.00    +0.000 A 
ATOM     22  C   UNL     1       2.616   6.625  19.479  0.00  0.00    +0.000 A 
ATOM     23  N   UNL     1       2.001   7.277  20.536  0.00  0.00    +0.000 N 
ATOM     24  C   UNL     1       1.375   8.499  20.445  0.00  0.00    +0.000 A 
ATOM     25  O   UNL     1       0.840   9.012  21.424  0.00  0.00    +0.000 OA
ATOM     26  H   UNL     1       1.993   6.841  21.454  0.00  0.00    +0.000 HD
BRANCH  22  27
ATOM     27  C   UNL     1       3.274   5.285  19.733  0.00  0.00    +0.000 C 
ATOM     28  F   UNL     1       2.852   4.737  20.903  0.00  0.00    +0.000 F 
ATOM     29  F   UNL     1       2.996   4.391  18.753  0.00  0.00    +0.000 F 
ATOM     30  F   UNL     1       4.624   5.393  19.808  0.00  0.00    +0.000 F 
ENDBRANCH  22  27
ENDBRANCH  16  19
ENDBRANCH  14  15
BRANCH   1  32
ATOM     31  C   UNL     1      -3.397  14.148  24.556  0.00  0.00    +0.000 C 
ATOM     32  O   UNL     1      -2.028  14.063  24.184  0.00  0.00    +0.000 OA
ENDBRANCH   1  32
TORSDOF 4
ENDMDL
MODEL 5
REMARK VINA RESULT:      -8.1      4.662      8.823
REMARK  Name = 
REMARK  5 active torsions:
REMARK  status: ('A' for Active; 'I' for Inactive)
REMARK    1  A    between atoms: C_1  and  O_2
REMARK    2  A    between atoms: O_2  and  C_3
REMARK    3  A    between atoms: C_16  and  N_17
REMARK    4  A    between atoms: C_18  and  C_20
REMARK    5  A    between atoms: C_23  and  C_24
REMARK                            x       y       z     vdW  Elec       q    Type
REMARK                         _______ _______ _______ _____ _____    ______ ____
ROOT
ATOM      1  C   UNL     1       1.348  14.013  21.507  0.00  0.00    +0.000 A 
ATOM      2  C   UNL     1       2.214  13.345  20.654  0.00  0.00    +0.000 A 
ATOM      3  C   UNL     1       1.702  12.493  19.670  0.00  0.00    +0.000 A 
ATOM      4  C   UNL     1       0.313  12.278  19.522  0.00  0.00    +0.000 A 
ATOM      5  C   UNL     1      -0.553  12.980  20.362  0.00  0.00    +0.000 A 
ATOM      6  C   UNL     1      -0.028  13.837  21.346  0.00  0.00    +0.000 A 
ATOM      7  S   UNL     1      -2.318  12.873  20.286  0.00  0.00    +0.000 S 
ATOM      8  C   UNL     1      -2.618  11.836  18.893  0.00  0.00    +0.000 A 
ATOM      9  C   UNL     1      -3.945  11.653  18.495  0.00  0.00    +0.000 A 
ATOM     10  N   UNL     1      -4.350  10.865  17.472  0.00  0.00    +0.000 NA
ATOM     11  C   UNL     1      -3.381  10.222  16.799  0.00  0.00    +0.000 A 
ATOM     12  C   UNL     1      -2.034  10.347  17.102  0.00  0.00    +0.000 A 
ATOM     13  C   UNL     1      -1.628  11.170  18.173  0.00  0.00    +0.000 A 
ATOM     14  C   UNL     1      -0.146  11.283  18.470  0.00  0.00    +0.000 C 
ENDROOT
BRANCH  14  15
ATOM     15  N   UNL     1       0.374   9.962  18.807  0.00  0.00    +0.000 N 
ATOM     16  C   UNL     1       1.489   9.421  18.228  0.00  0.00    +0.000 C 
ATOM     17  O   UNL     1       2.127   9.997  17.349  0.00  0.00    +0.000 OA
ATOM     18  H   UNL     1      -0.100   9.450  19.549  0.00  0.00    +0.000 HD
BRANCH  16  19
ATOM     19  C   UNL     1       1.900   8.074  18.725  0.00  0.00    +0.000 A 
ATOM     20  C   UNL     1       2.351   7.170  17.831  0.00  0.00    +0.000 A 
ATOM     21  C   UNL     1       2.788   5.851  18.231  0.00  0.00    +0.000 A 
ATOM     22  C   UNL     1       2.768   5.487  19.525  0.00  0.00    +0.000 A 
ATOM     23  N   UNL     1       2.300   6.398  20.458  0.00  0.00    +0.000 N 
ATOM     24  C   UNL     1       1.853   7.665  20.160  0.00  0.00    +0.000 A 
ATOM     25  O   UNL     1       1.441   8.416  21.040  0.00  0.00    +0.000 OA
ATOM     26  H   UNL     1       2.271   6.136  21.440  0.00  0.00    +0.000 HD
BRANCH  22  27
ATOM     27  C   UNL     1       3.237   4.129  20.003  0.00  0.00    +0.000 C 
ATOM     28  F   UNL     1       2.906   3.918  21.304  0.00  0.00    +0.000 F 
ATOM     29  F   UNL     1       2.687   3.121  19.285  0.00  0.00    +0.000 F 
ATOM     30  F   UNL     1       4.584   4.000  19.911  0.00  0.00    +0.000 F 
ENDBRANCH  22  27
ENDBRANCH  16  19
ENDBRANCH  14  15
BRANCH   1  32
ATOM     31  C   UNL     1       1.416  16.238  22.339  0.00  0.00    +0.000 C 
ATOM     32  O   UNL     1       1.702  14.857  22.523  0.00  0.00    +0.000 OA
ENDBRANCH   1  32
TORSDOF 4
ENDMDL
MODEL 6
REMARK VINA RESULT:      -7.8      4.951      9.739
REMARK  Name = 
REMARK  5 active torsions:
REMARK  status: ('A' for Active; 'I' for Inactive)
REMARK    1  A    between atoms: C_1  and  O_2
REMARK    2  A    between atoms: O_2  and  C_3
REMARK    3  A    between atoms: C_16  and  N_17
REMARK    4  A    between atoms: C_18  and  C_20
REMARK    5  A    between atoms: C_23  and  C_24
REMARK                            x       y       z     vdW  Elec       q    Type
REMARK                         _______ _______ _______ _____ _____    ______ ____
ROOT
ATOM      1  C   UNL     1      -2.043  13.536  23.056  0.00  0.00    +0.000 A 
ATOM      2  C   UNL     1      -0.763  13.374  22.546  0.00  0.00    +0.000 A 
ATOM      3  C   UNL     1      -0.588  12.877  21.250  0.00  0.00    +0.000 A 
ATOM      4  C   UNL     1      -1.686  12.519  20.436  0.00  0.00    +0.000 A 
ATOM      5  C   UNL     1      -2.971  12.717  20.944  0.00  0.00    +0.000 A 
ATOM      6  C   UNL     1      -3.136  13.221  22.247  0.00  0.00    +0.000 A 
ATOM      7  S   UNL     1      -4.459  12.373  20.049  0.00  0.00    +0.000 S 
ATOM      8  C   UNL     1      -3.889  11.891  18.453  0.00  0.00    +0.000 A 
ATOM      9  C   UNL     1      -4.849  11.664  17.463  0.00  0.00    +0.000 A 
ATOM     10  N   UNL     1      -4.585  11.257  16.200  0.00  0.00    +0.000 NA
ATOM     11  C   UNL     1      -3.290  11.067  15.897  0.00  0.00    +0.000 A 
ATOM     12  C   UNL     1      -2.259  11.279  16.799  0.00  0.00    +0.000 A 
ATOM     13  C   UNL     1      -2.551  11.700  18.113  0.00  0.00    +0.000 A 
ATOM     14  C   UNL     1      -1.396  11.925  19.068  0.00  0.00    +0.000 C 
ENDROOT
BRANCH  14  15
ATOM     15  N   UNL     1      -0.670  10.670  19.240  0.00  0.00    +0.000 N 
ATOM     16  C   UNL     1       0.681  10.551  19.059  0.00  0.00    +0.000 C 
ATOM     17  O   UNL     1       1.388  11.491  18.704  0.00  0.00    +0.000 OA
ATOM     18  H   UNL     1      -1.203   9.863  19.561  0.00  0.00    +0.000 HD
BRANCH  16  19
ATOM     19  C   UNL     1       1.262   9.200  19.318  0.00  0.00    +0.000 A 
ATOM     20  C   UNL     1       1.056   8.635  20.525  0.00  0.00    +0.000 A 
ATOM     21  C   UNL     1       1.564   7.321  20.852  0.00  0.00    +0.000 A 
ATOM     22  C   UNL     1       2.257   6.611  19.944  0.00  0.00    +0.000 A 
ATOM     23  N   UNL     1       2.486   7.178  18.701  0.00  0.00    +0.000 N 
ATOM     24  C   UNL     1       2.051   8.425  18.316  0.00  0.00    +0.000 A 
ATOM     25  O   UNL     1       2.301   8.867  17.198  0.00  0.00    +0.000 OA
ATOM     26  H   UNL     1       3.015   6.657  18.005  0.00  0.00    +0.000 HD
BRANCH  22  27
ATOM     27  C   UNL     1       2.791   5.222  20.222  0.00  0.00    +0.000 C 
ATOM     28  F   UNL     1       4.137   5.162  20.049  0.00  0.00    +0.000 F 
ATOM     29  F   UNL     1       2.536   4.825  21.492  0.00  0.00    +0.000 F 
ATOM     30  F   UNL     1       2.244   4.296  19.394  0.00  0.00    +0.000 F 
ENDBRANCH  22  27
ENDBRANCH  16  19
ENDBRANCH  14  15
BRANCH   1  32
ATOM     31  C   UNL     1      -1.595  15.070  24.814  0.00  0.00    +0.000 C 
ATOM     32  O   UNL     1      -2.366  13.989  24.304  0.00  0.00    +0.000 OA
ENDBRANCH   1  32
TORSDOF 4
ENDMDL
MODEL 7
REMARK VINA RESULT:      -7.8      1.322      1.615
REMARK  Name = 
REMARK  5 active torsions:
REMARK  status: ('A' for Active; 'I' for Inactive)
REMARK    1  A    between atoms: C_1  and  O_2
REMARK    2  A    between atoms: O_2  and  C_3
REMARK    3  A    between atoms: C_16  and  N_17
REMARK    4  A    between atoms: C_18  and  C_20
REMARK    5  A    between atoms: C_23  and  C_24
REMARK                            x       y       z     vdW  Elec       q    Type
REMARK                         _______ _______ _______ _____ _____    ______ ____
ROOT
ATOM      1  C   UNL     1       6.460   5.838  16.200  0.00  0.00    +0.000 A 
ATOM      2  C   UNL     1       6.315   6.886  17.099  0.00  0.00    +0.000 A 
ATOM      3  C   UNL     1       5.354   6.806  18.111  0.00  0.00    +0.000 A 
ATOM      4  C   UNL     1       4.506   5.682  18.246  0.00  0.00    +0.000 A 
ATOM      5  C   UNL     1       4.682   4.618  17.359  0.00  0.00    +0.000 A 
ATOM      6  C   UNL     1       5.654   4.708  16.346  0.00  0.00    +0.000 A 
ATOM      7  S   UNL     1       3.748   3.116  17.409  0.00  0.00    +0.000 S 
ATOM      8  C   UNL     1       2.739   3.295  18.843  0.00  0.00    +0.000 A 
ATOM      9  C   UNL     1       1.957   2.202  19.226  0.00  0.00    +0.000 A 
ATOM     10  N   UNL     1       1.105   2.183  20.278  0.00  0.00    +0.000 NA
ATOM     11  C   UNL     1       1.025   3.316  20.996  0.00  0.00    +0.000 A 
ATOM     12  C   UNL     1       1.768   4.452  20.711  0.00  0.00    +0.000 A 
ATOM     13  C   UNL     1       2.650   4.455  19.610  0.00  0.00    +0.000 A 
ATOM     14  C   UNL     1       3.448   5.714  19.334  0.00  0.00    +0.000 C 
ENDROOT
BRANCH  14  15
ATOM     15  N   UNL     1       2.525   6.813  19.068  0.00  0.00    +0.000 N 
ATOM     16  C   UNL     1       2.044   7.646  20.041  0.00  0.00    +0.000 C 
ATOM     17  O   UNL     1       2.330   7.513  21.229  0.00  0.00    +0.000 OA
ATOM     18  H   UNL     1       2.275   6.987  18.095  0.00  0.00    +0.000 HD
BRANCH  16  19
ATOM     19  C   UNL     1       1.141   8.743  19.579  0.00  0.00    +0.000 A 
ATOM     20  C   UNL     1       1.288   9.207  18.322  0.00  0.00    +0.000 A 
ATOM     21  C   UNL     1       0.442  10.252  17.788  0.00  0.00    +0.000 A 
ATOM     22  C   UNL     1      -0.536  10.789  18.539  0.00  0.00    +0.000 A 
ATOM     23  N   UNL     1      -0.697  10.331  19.836  0.00  0.00    +0.000 N 
ATOM     24  C   UNL     1       0.072   9.354  20.423  0.00  0.00    +0.000 A 
ATOM     25  O   UNL     1      -0.122   9.005  21.585  0.00  0.00    +0.000 OA
ATOM     26  H   UNL     1      -1.428  10.732  20.420  0.00  0.00    +0.000 HD
BRANCH  22  27
ATOM     27  C   UNL     1      -1.467  11.867  18.025  0.00  0.00    +0.000 C 
ATOM     28  F   UNL     1      -0.796  13.016  17.753  0.00  0.00    +0.000 F 
ATOM     29  F   UNL     1      -2.094  11.493  16.883  0.00  0.00    +0.000 F 
ATOM     30  F   UNL     1      -2.430  12.175  18.929  0.00  0.00    +0.000 F 
ENDBRANCH  22  27
ENDBRANCH  16  19
ENDBRANCH  14  15
BRANCH   1  32
ATOM     31  C   UNL     1       7.078   4.814  14.147  0.00  0.00    +0.000 C 
ATOM     32  O   UNL     1       7.338   5.785  15.153  0.00  0.00    +0.000 OA
ENDBRANCH   1  32
TORSDOF 4
ENDMDL
MODEL 8
REMARK VINA RESULT:      -7.8      4.924      8.742
REMARK  Name = 
REMARK  5 active torsions:
REMARK  status: ('A' for Active; 'I' for Inactive)
REMARK    1  A    between atoms: C_1  and  O_2
REMARK    2  A    between atoms: O_2  and  C_3
REMARK    3  A    between atoms: C_16  and  N_17
REMARK    4  A    between atoms: C_18  and  C_20
REMARK    5  A    between atoms: C_23  and  C_24
REMARK                            x       y       z     vdW  Elec       q    Type
REMARK                         _______ _______ _______ _____ _____    ______ ____
ROOT
ATOM      1  C   UNL     1       3.696  15.359  18.728  0.00  0.00    +0.000 A 
ATOM      2  C   UNL     1       3.257  14.370  17.860  0.00  0.00    +0.000 A 
ATOM      3  C   UNL     1       2.200  13.535  18.235  0.00  0.00    +0.000 A 
ATOM      4  C   UNL     1       1.563  13.659  19.490  0.00  0.00    +0.000 A 
ATOM      5  C   UNL     1       1.988  14.679  20.344  0.00  0.00    +0.000 A 
ATOM      6  C   UNL     1       3.050  15.515  19.955  0.00  0.00    +0.000 A 
ATOM      7  S   UNL     1       1.275  15.013  21.928  0.00  0.00    +0.000 S 
ATOM      8  C   UNL     1      -0.075  13.884  22.029  0.00  0.00    +0.000 A 
ATOM      9  C   UNL     1      -0.923  13.985  23.136  0.00  0.00    +0.000 A 
ATOM     10  N   UNL     1      -1.981  13.178  23.383  0.00  0.00    +0.000 NA
ATOM     11  C   UNL     1      -2.216  12.214  22.476  0.00  0.00    +0.000 A 
ATOM     12  C   UNL     1      -1.446  12.038  21.337  0.00  0.00    +0.000 A 
ATOM     13  C   UNL     1      -0.345  12.886  21.095  0.00  0.00    +0.000 A 
ATOM     14  C   UNL     1       0.469  12.664  19.836  0.00  0.00    +0.000 C 
ENDROOT
BRANCH  14  15
ATOM     15  N   UNL     1       1.041  11.322  19.871  0.00  0.00    +0.000 N 
ATOM     16  C   UNL     1       0.638  10.309  19.044  0.00  0.00    +0.000 C 
ATOM     17  O   UNL     1      -0.265  10.443  18.222  0.00  0.00    +0.000 OA
ATOM     18  H   UNL     1       1.815  11.161  20.515  0.00  0.00    +0.000 HD
BRANCH  16  19
ATOM     19  C   UNL     1       1.365   9.012  19.191  0.00  0.00    +0.000 A 
ATOM     20  C   UNL     1       1.981   8.496  18.109  0.00  0.00    +0.000 A 
ATOM     21  C   UNL     1       2.724   7.257  18.169  0.00  0.00    +0.000 A 
ATOM     22  C   UNL     1       2.832   6.580  19.327  0.00  0.00    +0.000 A 
ATOM     23  N   UNL     1       2.199   7.090  20.449  0.00  0.00    +0.000 N 
ATOM     24  C   UNL     1       1.462   8.252  20.472  0.00  0.00    +0.000 A 
ATOM     25  O   UNL     1       0.919   8.638  21.504  0.00  0.00    +0.000 OA
ATOM     26  H   UNL     1       2.264   6.587  21.330  0.00  0.00    +0.000 HD
BRANCH  22  27
ATOM     27  C   UNL     1       3.617   5.292  19.455  0.00  0.00    +0.000 C 
ATOM     28  F   UNL     1       3.549   4.553  18.317  0.00  0.00    +0.000 F 
ATOM     29  F   UNL     1       4.930   5.521  19.702  0.00  0.00    +0.000 F 
ATOM     30  F   UNL     1       3.148   4.514  20.462  0.00  0.00    +0.000 F 
ENDBRANCH  22  27
ENDBRANCH  16  19
ENDBRANCH  14  15
BRANCH   1  32
ATOM     31  C   UNL     1       6.042  15.697  18.560  0.00  0.00    +0.000 C 
ATOM     32  O   UNL     1       4.726  16.231  18.507  0.00  0.00    +0.000 OA
ENDBRANCH   1  32
TORSDOF 4
ENDMDL
MODEL 9
REMARK VINA RESULT:      -7.3      4.713      9.285
REMARK  Name = 
REMARK  5 active torsions:
REMARK  status: ('A' for Active; 'I' for Inactive)
REMARK    1  A    between atoms: C_1  and  O_2
REMARK    2  A    between atoms: O_2  and  C_3
REMARK    3  A    between atoms: C_16  and  N_17
REMARK    4  A    between atoms: C_18  and  C_20
REMARK    5  A    between atoms: C_23  and  C_24
REMARK                            x       y       z     vdW  Elec       q    Type
REMARK                         _______ _______ _______ _____ _____    ______ ____
ROOT
ATOM      1  C   UNL     1      -0.064  14.391  22.159  0.00  0.00    +0.000 A 
ATOM      2  C   UNL     1       0.973  14.233  21.250  0.00  0.00    +0.000 A 
ATOM      3  C   UNL     1       0.744  13.566  20.043  0.00  0.00    +0.000 A 
ATOM      4  C   UNL     1      -0.522  13.030  19.718  0.00  0.00    +0.000 A 
ATOM      5  C   UNL     1      -1.568  13.222  20.622  0.00  0.00    +0.000 A 
ATOM      6  C   UNL     1      -1.329  13.898  21.832  0.00  0.00    +0.000 A 
ATOM      7  S   UNL     1      -3.227  12.664  20.359  0.00  0.00    +0.000 S 
ATOM      8  C   UNL     1      -3.192  11.992  18.730  0.00  0.00    +0.000 A 
ATOM      9  C   UNL     1      -4.404  11.567  18.177  0.00  0.00    +0.000 A 
ATOM     10  N   UNL     1      -4.548  10.999  16.958  0.00  0.00    +0.000 NA
ATOM     11  C   UNL     1      -3.422  10.845  16.239  0.00  0.00    +0.000 A 
ATOM     12  C   UNL     1      -2.173  11.246  16.687  0.00  0.00    +0.000 A 
ATOM     13  C   UNL     1      -2.040  11.835  17.962  0.00  0.00    +0.000 A 
ATOM     14  C   UNL     1      -0.658  12.263  18.413  0.00  0.00    +0.000 C 
ENDROOT
BRANCH  14  15
ATOM     15  N   UNL     1       0.212  11.092  18.458  0.00  0.00    +0.000 N 
ATOM     16  C   UNL     1       0.146  10.142  19.441  0.00  0.00    +0.000 C 
ATOM     17  O   UNL     1      -0.634  10.218  20.386  0.00  0.00    +0.000 OA
ATOM     18  H   UNL     1       0.861  10.963  17.683  0.00  0.00    +0.000 HD
BRANCH  16  19
ATOM     19  C   UNL     1       1.087   8.990  19.303  0.00  0.00    +0.000 A 
ATOM     20  C   UNL     1       1.628   8.745  18.093  0.00  0.00    +0.000 A 
ATOM     21  C   UNL     1       2.564   7.663  17.877  0.00  0.00    +0.000 A 
ATOM     22  C   UNL     1       2.934   6.866  18.896  0.00  0.00    +0.000 A 
ATOM     23  N   UNL     1       2.382   7.097  20.146  0.00  0.00    +0.000 N 
ATOM     24  C   UNL     1       1.476   8.092  20.431  0.00  0.00    +0.000 A 
ATOM     25  O   UNL     1       1.020   8.230  21.563  0.00  0.00    +0.000 OA
ATOM     26  H   UNL     1       2.645   6.498  20.925  0.00  0.00    +0.000 HD
BRANCH  22  27
ATOM     27  C   UNL     1       3.927   5.735  18.734  0.00  0.00    +0.000 C 
ATOM     28  F   UNL     1       4.469   5.723  17.488  0.00  0.00    +0.000 F 
ATOM     29  F   UNL     1       4.954   5.834  19.613  0.00  0.00    +0.000 F 
ATOM     30  F   UNL     1       3.348   4.524  18.927  0.00  0.00    +0.000 F 
ENDBRANCH  22  27
ENDBRANCH  16  19
ENDBRANCH  14  15
BRANCH   1  32
ATOM     31  C   UNL     1      -1.168  15.012  24.169  0.00  0.00    +0.000 C 
ATOM     32  O   UNL     1       0.015  14.999  23.381  0.00  0.00    +0.000 OA
ENDBRANCH   1  32
TORSDOF 4
ENDMDL
