MODEL 1
REMARK VINA RESULT:      -7.6      0.000      0.000
REMARK  Name = 
REMARK  13 active torsions:
REMARK  status: ('A' for Active; 'I' for Inactive)
REMARK    1  A    between atoms: C_1  and  O_2
REMARK    2  A    between atoms: O_2  and  C_3
REMARK    3  A    between atoms: C_7  and  C_8
REMARK    4  A    between atoms: N_10  and  C_11
REMARK    5  A    between atoms: C_11  and  C_12
REMARK    6  A    between atoms: C_11  and  C_16
REMARK    7  A    between atoms: C_12  and  C_13
REMARK    8  A    between atoms: C_13  and  O_15
REMARK    9  A    between atoms: C_16  and  C_18
REMARK   10  A    between atoms: C_20  and  N_21
REMARK   11  A    between atoms: C_22  and  O_24
REMARK   12  A    between atoms: O_24  and  C_25
REMARK   13  A    between atoms: C_25  and  C_26
REMARK                            x       y       z     vdW  Elec       q    Type
REMARK                         _______ _______ _______ _____ _____    ______ ____
ROOT
ATOM      1  C   UNL     1       1.231   8.597  20.475  0.00  0.00    +0.000 A 
ATOM      2  C   UNL     1       0.860   9.658  19.634  0.00  0.00    +0.000 A 
ATOM      3  C   UNL     1       1.233   9.667  18.292  0.00  0.00    +0.000 A 
ATOM      4  C   UNL     1       1.985   8.616  17.782  0.00  0.00    +0.000 A 
ATOM      5  C   UNL     1       2.348   7.537  18.601  0.00  0.00    +0.000 A 
ATOM      6  C   UNL     1       1.945   7.495  19.950  0.00  0.00    +0.000 A 
ENDROOT
BRANCH   5   7
ATOM      7  C   UNL     1       3.171   6.492  17.957  0.00  0.00    +0.000 C 
ATOM      8  O   UNL     1       2.647   5.419  17.682  0.00  0.00    +0.000 OA
ATOM      9  N   UNL     1       4.503   6.773  17.758  0.00  0.00    +0.000 N 
ATOM     10  H   UNL     1       4.838   7.702  18.006  0.00  0.00    +0.000 HD
BRANCH   9  11
ATOM     11  C   UNL     1       5.457   5.870  17.088  0.00  0.00    +0.000 C 
BRANCH  11  12
ATOM     12  C   UNL     1       6.862   6.189  17.616  0.00  0.00    +0.000 C 
ATOM     13  O   UNL     1       7.667   5.307  17.932  0.00  0.00    +0.000 OA
BRANCH  12  14
ATOM     14  C   UNL     1       7.258   7.649  17.663  0.00  0.00    +0.000 C 
ATOM     15  F   UNL     1       8.388   7.909  16.950  0.00  0.00    +0.000 F 
ENDBRANCH  12  14
ENDBRANCH  11  12
BRANCH  11  16
ATOM     16  C   UNL     1       5.486   5.901  15.556  0.00  0.00    +0.000 C 
BRANCH  16  17
ATOM     17  C   UNL     1       6.375   4.831  14.982  0.00  0.00    +0.000 C 
ATOM     18  O   UNL     1       6.168   3.633  15.093  0.00  0.00    +0.000 OA
BRANCH  17  19
ATOM     19  O   UNL     1       7.497   5.319  14.402  0.00  0.00    +0.000 OA
ATOM     20  H   UNL     1       8.109   4.620  14.096  0.00  0.00    +0.000 HD
ENDBRANCH  17  19
ENDBRANCH  16  17
ENDBRANCH  11  16
ENDBRANCH   9  11
ENDBRANCH   5   7
BRANCH   6  21
ATOM     21  N   UNL     1       2.355   6.419  20.777  0.00  0.00    +0.000 N 
ATOM     22  C   UNL     1       1.610   5.283  20.965  0.00  0.00    +0.000 C 
ATOM     23  O   UNL     1       0.525   5.024  20.469  0.00  0.00    +0.000 OA
ATOM     24  H   UNL     1       3.345   6.282  20.956  0.00  0.00    +0.000 HD
BRANCH  22  25
ATOM     25  O   UNL     1       2.344   4.415  21.712  0.00  0.00    +0.000 OA
BRANCH  25  26
ATOM     26  C   UNL     1       2.172   3.028  21.402  0.00  0.00    +0.000 C 
BRANCH  26  27
ATOM     27  C   UNL     1       2.727   2.708  20.035  0.00  0.00    +0.000 A 
ATOM     28  C   UNL     1       4.077   2.932  19.736  0.00  0.00    +0.000 A 
ATOM     29  C   UNL     1       4.577   2.643  18.464  0.00  0.00    +0.000 A 
ATOM     30  C   UNL     1       3.735   2.123  17.483  0.00  0.00    +0.000 A 
ATOM     31  C   UNL     1       2.393   1.886  17.773  0.00  0.00    +0.000 A 
ATOM     32  C   UNL     1       1.892   2.178  19.043  0.00  0.00    +0.000 A 
ENDBRANCH  26  27
ENDBRANCH  25  26
ENDBRANCH  22  25
ENDBRANCH   6  21
BRANCH   1  34
ATOM     33  C   UNL     1      -0.208   9.262  22.243  0.00  0.00    +0.000 C 
ATOM     34  O   UNL     1       0.998   8.620  21.831  0.00  0.00    +0.000 OA
ENDBRANCH   1  34
TORSDOF 12
ENDMDL
MODEL 2
REMARK VINA RESULT:      -7.5      0.972      1.020
REMARK  Name = 
REMARK  13 active torsions:
REMARK  status: ('A' for Active; 'I' for Inactive)
REMARK    1  A    between atoms: C_1  and  O_2
REMARK    2  A    between atoms: O_2  and  C_3
REMARK    3  A    between atoms: C_7  and  C_8
REMARK    4  A    between atoms: N_10  and  C_11
REMARK    5  A    between atoms: C_11  and  C_12
REMARK    6  A    between atoms: C_11  and  C_16
REMARK    7  A    between atoms: C_12  and  C_13
REMARK    8  A    between atoms: C_13  and  O_15
REMARK    9  A    between atoms: C_16  and  C_18
REMARK   10  A    between atoms: C_20  and  N_21
REMARK   11  A    between atoms: C_22  and  O_24
REMARK   12  A    between atoms: O_24  and  C_25
REMARK   13  A    between atoms: C_25  and  C_26
REMARK                            x       y       z     vdW  Elec       q    Type
REMARK                         _______ _______ _______ _____ _____    ______ ____
ROOT
ATOM      1  C   UNL     1       1.212   8.555  20.202  0.00  0.00    +0.000 A 
ATOM      2  C   UNL     1       0.924   9.593  19.303  0.00  0.00    +0.000 A 
ATOM      3  C   UNL     1       1.467   9.595  18.020  0.00  0.00    +0.000 A 
ATOM      4  C   UNL     1       2.306   8.559  17.629  0.00  0.00    +0.000 A 
ATOM      5  C   UNL     1       2.589   7.503  18.506  0.00  0.00    +0.000 A 
ATOM      6  C   UNL     1       2.017   7.466  19.792  0.00  0.00    +0.000 A 
ENDROOT
BRANCH   5   7
ATOM      7  C   UNL     1       3.517   6.474  17.991  0.00  0.00    +0.000 C 
ATOM      8  O   UNL     1       3.272   5.295  18.219  0.00  0.00    +0.000 OA
ATOM      9  N   UNL     1       4.641   6.912  17.331  0.00  0.00    +0.000 N 
ATOM     10  H   UNL     1       4.745   7.914  17.177  0.00  0.00    +0.000 HD
BRANCH   9  11
ATOM     11  C   UNL     1       5.646   6.029  16.711  0.00  0.00    +0.000 C 
BRANCH  11  12
ATOM     12  C   UNL     1       7.027   6.438  17.239  0.00  0.00    +0.000 C 
ATOM     13  O   UNL     1       7.648   7.407  16.791  0.00  0.00    +0.000 OA
BRANCH  12  14
ATOM     14  C   UNL     1       7.576   5.639  18.401  0.00  0.00    +0.000 C 
ATOM     15  F   UNL     1       6.799   5.733  19.515  0.00  0.00    +0.000 F 
ENDBRANCH  12  14
ENDBRANCH  11  12
BRANCH  11  16
ATOM     16  C   UNL     1       5.693   5.996  15.179  0.00  0.00    +0.000 C 
BRANCH  16  17
ATOM     17  C   UNL     1       6.659   4.965  14.662  0.00  0.00    +0.000 C 
ATOM     18  O   UNL     1       6.451   3.761  14.671  0.00  0.00    +0.000 OA
BRANCH  17  19
ATOM     19  O   UNL     1       7.843   5.489  14.264  0.00  0.00    +0.000 OA
ATOM     20  H   UNL     1       8.166   6.201  14.850  0.00  0.00    +0.000 HD
ENDBRANCH  17  19
ENDBRANCH  16  17
ENDBRANCH  11  16
ENDBRANCH   9  11
ENDBRANCH   5   7
BRANCH   6  21
ATOM     21  N   UNL     1       2.346   6.414  20.683  0.00  0.00    +0.000 N 
ATOM     22  C   UNL     1       1.515   5.353  20.939  0.00  0.00    +0.000 C 
ATOM     23  O   UNL     1       0.413   5.149  20.457  0.00  0.00    +0.000 OA
ATOM     24  H   UNL     1       3.322   6.212  20.872  0.00  0.00    +0.000 HD
BRANCH  22  25
ATOM     25  O   UNL     1       2.183   4.477  21.738  0.00  0.00    +0.000 OA
BRANCH  25  26
ATOM     26  C   UNL     1       1.873   3.093  21.539  0.00  0.00    +0.000 C 
BRANCH  26  27
ATOM     27  C   UNL     1       2.494   2.579  20.262  0.00  0.00    +0.000 A 
ATOM     28  C   UNL     1       3.880   2.412  20.154  0.00  0.00    +0.000 A 
ATOM     29  C   UNL     1       4.444   1.946  18.964  0.00  0.00    +0.000 A 
ATOM     30  C   UNL     1       3.630   1.638  17.876  0.00  0.00    +0.000 A 
ATOM     31  C   UNL     1       2.249   1.789  17.978  0.00  0.00    +0.000 A 
ATOM     32  C   UNL     1       1.684   2.258  19.165  0.00  0.00    +0.000 A 
ENDBRANCH  26  27
ENDBRANCH  25  26
ENDBRANCH  22  25
ENDBRANCH   6  21
BRANCH   1  34
ATOM     33  C   UNL     1       1.482   9.526  22.352  0.00  0.00    +0.000 C 
ATOM     34  O   UNL     1       0.805   8.588  21.516  0.00  0.00    +0.000 OA
ENDBRANCH   1  34
TORSDOF 12
ENDMDL
MODEL 3
REMARK VINA RESULT:      -7.5      1.404      2.444
REMARK  Name = 
REMARK  13 active torsions:
REMARK  status: ('A' for Active; 'I' for Inactive)
REMARK    1  A    between atoms: C_1  and  O_2
REMARK    2  A    between atoms: O_2  and  C_3
REMARK    3  A    between atoms: C_7  and  C_8
REMARK    4  A    between atoms: N_10  and  C_11
REMARK    5  A    between atoms: C_11  and  C_12
REMARK    6  A    between atoms: C_11  and  C_16
REMARK    7  A    between atoms: C_12  and  C_13
REMARK    8  A    between atoms: C_13  and  O_15
REMARK    9  A    between atoms: C_16  and  C_18
REMARK   10  A    between atoms: C_20  and  N_21
REMARK   11  A    between atoms: C_22  and  O_24
REMARK   12  A    between atoms: O_24  and  C_25
REMARK   13  A    between atoms: C_25  and  C_26
REMARK                            x       y       z     vdW  Elec       q    Type
REMARK                         _______ _______ _______ _____ _____    ______ ____
ROOT
ATOM      1  C   UNL     1       1.349   8.403  19.969  0.00  0.00    +0.000 A 
ATOM      2  C   UNL     1       1.104   9.430  19.043  0.00  0.00    +0.000 A 
ATOM      3  C   UNL     1       1.781   9.468  17.827  0.00  0.00    +0.000 A 
ATOM      4  C   UNL     1       2.712   8.480  17.528  0.00  0.00    +0.000 A 
ATOM      5  C   UNL     1       2.955   7.436  18.430  0.00  0.00    +0.000 A 
ATOM      6  C   UNL     1       2.251   7.361  19.648  0.00  0.00    +0.000 A 
ENDROOT
BRANCH   5   7
ATOM      7  C   UNL     1       3.987   6.460  18.018  0.00  0.00    +0.000 C 
ATOM      8  O   UNL     1       3.737   5.264  18.118  0.00  0.00    +0.000 OA
ATOM      9  N   UNL     1       5.197   6.962  17.599  0.00  0.00    +0.000 N 
ATOM     10  H   UNL     1       5.299   7.973  17.536  0.00  0.00    +0.000 HD
BRANCH   9  11
ATOM     11  C   UNL     1       6.318   6.140  17.108  0.00  0.00    +0.000 C 
BRANCH  11  12
ATOM     12  C   UNL     1       5.864   5.437  15.822  0.00  0.00    +0.000 C 
ATOM     13  O   UNL     1       5.404   6.056  14.856  0.00  0.00    +0.000 OA
BRANCH  12  14
ATOM     14  C   UNL     1       6.075   3.941  15.752  0.00  0.00    +0.000 C 
ATOM     15  F   UNL     1       6.081   3.472  14.474  0.00  0.00    +0.000 F 
ENDBRANCH  12  14
ENDBRANCH  11  12
BRANCH  11  16
ATOM     16  C   UNL     1       6.885   5.091  18.070  0.00  0.00    +0.000 C 
BRANCH  16  17
ATOM     17  C   UNL     1       7.656   5.714  19.203  0.00  0.00    +0.000 C 
ATOM     18  O   UNL     1       7.695   5.265  20.338  0.00  0.00    +0.000 OA
BRANCH  17  19
ATOM     19  O   UNL     1       8.238   6.891  18.873  0.00  0.00    +0.000 OA
ATOM     20  H   UNL     1       8.316   7.027  17.908  0.00  0.00    +0.000 HD
ENDBRANCH  17  19
ENDBRANCH  16  17
ENDBRANCH  11  16
ENDBRANCH   9  11
ENDBRANCH   5   7
BRANCH   6  21
ATOM     21  N   UNL     1       2.538   6.323  20.569  0.00  0.00    +0.000 N 
ATOM     22  C   UNL     1       1.651   5.327  20.886  0.00  0.00    +0.000 C 
ATOM     23  O   UNL     1       0.524   5.176  20.441  0.00  0.00    +0.000 OA
ATOM     24  H   UNL     1       3.505   6.066  20.740  0.00  0.00    +0.000 HD
BRANCH  22  25
ATOM     25  O   UNL     1       2.284   4.439  21.700  0.00  0.00    +0.000 OA
BRANCH  25  26
ATOM     26  C   UNL     1       1.983   3.059  21.470  0.00  0.00    +0.000 C 
BRANCH  26  27
ATOM     27  C   UNL     1       2.594   2.582  20.174  0.00  0.00    +0.000 A 
ATOM     28  C   UNL     1       1.802   2.381  19.037  0.00  0.00    +0.000 A 
ATOM     29  C   UNL     1       2.377   1.929  17.846  0.00  0.00    +0.000 A 
ATOM     30  C   UNL     1       3.747   1.681  17.781  0.00  0.00    +0.000 A 
ATOM     31  C   UNL     1       4.545   1.889  18.903  0.00  0.00    +0.000 A 
ATOM     32  C   UNL     1       3.971   2.336  20.094  0.00  0.00    +0.000 A 
ENDBRANCH  26  27
ENDBRANCH  25  26
ENDBRANCH  22  25
ENDBRANCH   6  21
BRANCH   1  34
ATOM     33  C   UNL     1       0.075   9.582  21.589  0.00  0.00    +0.000 C 
ATOM     34  O   UNL     1       0.803   8.408  21.232  0.00  0.00    +0.000 OA
ENDBRANCH   1  34
TORSDOF 12
ENDMDL
MODEL 4
REMARK VINA RESULT:      -7.2      2.754      6.635
REMARK  Name = 
REMARK  13 active torsions:
REMARK  status: ('A' for Active; 'I' for Inactive)
REMARK    1  A    between atoms: C_1  and  O_2
REMARK    2  A    between atoms: O_2  and  C_3
REMARK    3  A    between atoms: C_7  and  C_8
REMARK    4  A    between atoms: N_10  and  C_11
REMARK    5  A    between atoms: C_11  and  C_12
REMARK    6  A    between atoms: C_11  and  C_16
REMARK    7  A    between atoms: C_12  and  C_13
REMARK    8  A    between atoms: C_13  and  O_15
REMARK    9  A    between atoms: C_16  and  C_18
REMARK   10  A    between atoms: C_20  and  N_21
REMARK   11  A    between atoms: C_22  and  O_24
REMARK   12  A    between atoms: O_24  and  C_25
REMARK   13  A    between atoms: C_25  and  C_26
REMARK                            x       y       z     vdW  Elec       q    Type
REMARK                         _______ _______ _______ _____ _____    ______ ____
ROOT
ATOM      1  C   UNL     1       2.474   2.702  18.688  0.00  0.00    +0.000 A 
ATOM      2  C   UNL     1       1.477   2.259  19.572  0.00  0.00    +0.000 A 
ATOM      3  C   UNL     1       0.845   3.150  20.436  0.00  0.00    +0.000 A 
ATOM      4  C   UNL     1       1.208   4.491  20.424  0.00  0.00    +0.000 A 
ATOM      5  C   UNL     1       2.186   4.956  19.534  0.00  0.00    +0.000 A 
ATOM      6  C   UNL     1       2.807   4.075  18.628  0.00  0.00    +0.000 A 
ENDROOT
BRANCH   5   7
ATOM      7  C   UNL     1       2.510   6.395  19.633  0.00  0.00    +0.000 C 
ATOM      8  O   UNL     1       3.613   6.775  19.258  0.00  0.00    +0.000 OA
ATOM      9  N   UNL     1       1.564   7.217  20.201  0.00  0.00    +0.000 N 
ATOM     10  H   UNL     1       0.671   6.805  20.465  0.00  0.00    +0.000 HD
BRANCH   9  11
ATOM     11  C   UNL     1       1.698   8.678  20.334  0.00  0.00    +0.000 C 
BRANCH  11  12
ATOM     12  C   UNL     1       1.158   9.080  21.714  0.00  0.00    +0.000 C 
ATOM     13  O   UNL     1       1.901   9.375  22.655  0.00  0.00    +0.000 OA
BRANCH  12  14
ATOM     14  C   UNL     1      -0.345   9.176  21.856  0.00  0.00    +0.000 C 
ATOM     15  F   UNL     1      -0.962   7.969  21.726  0.00  0.00    +0.000 F 
ENDBRANCH  12  14
ENDBRANCH  11  12
BRANCH  11  16
ATOM     16  C   UNL     1       1.014   9.540  19.267  0.00  0.00    +0.000 C 
BRANCH  16  17
ATOM     17  C   UNL     1       1.941   9.880  18.131  0.00  0.00    +0.000 C 
ATOM     18  O   UNL     1       2.306  11.013  17.857  0.00  0.00    +0.000 OA
BRANCH  17  19
ATOM     19  O   UNL     1       2.266   8.812  17.364  0.00  0.00    +0.000 OA
ATOM     20  H   UNL     1       2.434   9.045  16.429  0.00  0.00    +0.000 HD
ENDBRANCH  17  19
ENDBRANCH  16  17
ENDBRANCH  11  16
ENDBRANCH   9  11
ENDBRANCH   5   7
BRANCH   6  21
ATOM     21  N   UNL     1       3.825   4.551  17.764  0.00  0.00    +0.000 N 
ATOM     22  C   UNL     1       5.164   4.457  18.048  0.00  0.00    +0.000 C 
ATOM     23  O   UNL     1       5.672   3.964  19.042  0.00  0.00    +0.000 OA
ATOM     24  H   UNL     1       3.633   4.634  16.770  0.00  0.00    +0.000 HD
BRANCH  22  25
ATOM     25  O   UNL     1       5.858   4.897  16.963  0.00  0.00    +0.000 OA
BRANCH  25  26
ATOM     26  C   UNL     1       5.078   5.170  15.794  0.00  0.00    +0.000 C 
BRANCH  26  27
ATOM     27  C   UNL     1       5.823   4.772  14.544  0.00  0.00    +0.000 A 
ATOM     28  C   UNL     1       7.084   5.309  14.257  0.00  0.00    +0.000 A 
ATOM     29  C   UNL     1       7.760   4.942  13.090  0.00  0.00    +0.000 A 
ATOM     30  C   UNL     1       7.185   4.032  12.206  0.00  0.00    +0.000 A 
ATOM     31  C   UNL     1       5.937   3.482  12.488  0.00  0.00    +0.000 A 
ATOM     32  C   UNL     1       5.259   3.852  13.651  0.00  0.00    +0.000 A 
ENDBRANCH  26  27
ENDBRANCH  25  26
ENDBRANCH  22  25
ENDBRANCH   6  21
BRANCH   1  34
ATOM     33  C   UNL     1       4.056   0.931  18.638  0.00  0.00    +0.000 C 
ATOM     34  O   UNL     1       3.213   1.831  17.920  0.00  0.00    +0.000 OA
ENDBRANCH   1  34
TORSDOF 12
ENDMDL
MODEL 5
REMARK VINA RESULT:      -7.2      1.145      1.558
REMARK  Name = 
REMARK  13 active torsions:
REMARK  status: ('A' for Active; 'I' for Inactive)
REMARK    1  A    between atoms: C_1  and  O_2
REMARK    2  A    between atoms: O_2  and  C_3
REMARK    3  A    between atoms: C_7  and  C_8
REMARK    4  A    between atoms: N_10  and  C_11
REMARK    5  A    between atoms: C_11  and  C_12
REMARK    6  A    between atoms: C_11  and  C_16
REMARK    7  A    between atoms: C_12  and  C_13
REMARK    8  A    between atoms: C_13  and  O_15
REMARK    9  A    between atoms: C_16  and  C_18
REMARK   10  A    between atoms: C_20  and  N_21
REMARK   11  A    between atoms: C_22  and  O_24
REMARK   12  A    between atoms: O_24  and  C_25
REMARK   13  A    between atoms: C_25  and  C_26
REMARK                            x       y       z     vdW  Elec       q    Type
REMARK                         _______ _______ _______ _____ _____    ______ ____
ROOT
ATOM      1  C   UNL     1       1.286   8.434  20.139  0.00  0.00    +0.000 A 
ATOM      2  C   UNL     1       1.084   9.484  19.230  0.00  0.00    +0.000 A 
ATOM      3  C   UNL     1       1.756   9.509  18.010  0.00  0.00    +0.000 A 
ATOM      4  C   UNL     1       2.639   8.484  17.692  0.00  0.00    +0.000 A 
ATOM      5  C   UNL     1       2.838   7.416  18.577  0.00  0.00    +0.000 A 
ATOM      6  C   UNL     1       2.137   7.357  19.798  0.00  0.00    +0.000 A 
ENDROOT
BRANCH   5   7
ATOM      7  C   UNL     1       3.822   6.401  18.145  0.00  0.00    +0.000 C 
ATOM      8  O   UNL     1       4.012   5.426  18.863  0.00  0.00    +0.000 OA
ATOM      9  N   UNL     1       4.511   6.647  16.981  0.00  0.00    +0.000 N 
ATOM     10  H   UNL     1       4.267   7.479  16.447  0.00  0.00    +0.000 HD
BRANCH   9  11
ATOM     11  C   UNL     1       5.490   5.724  16.377  0.00  0.00    +0.000 C 
BRANCH  11  12
ATOM     12  C   UNL     1       6.881   6.090  16.913  0.00  0.00    +0.000 C 
ATOM     13  O   UNL     1       7.430   7.164  16.648  0.00  0.00    +0.000 OA
BRANCH  12  14
ATOM     14  C   UNL     1       7.531   5.100  17.854  0.00  0.00    +0.000 C 
ATOM     15  F   UNL     1       6.701   4.075  18.190  0.00  0.00    +0.000 F 
ENDBRANCH  12  14
ENDBRANCH  11  12
BRANCH  11  16
ATOM     16  C   UNL     1       5.547   5.676  14.846  0.00  0.00    +0.000 C 
BRANCH  16  17
ATOM     17  C   UNL     1       6.501   4.624  14.346  0.00  0.00    +0.000 C 
ATOM     18  O   UNL     1       7.344   4.815  13.483  0.00  0.00    +0.000 OA
BRANCH  17  19
ATOM     19  O   UNL     1       6.276   3.398  14.876  0.00  0.00    +0.000 OA
ATOM     20  H   UNL     1       6.976   3.110  15.494  0.00  0.00    +0.000 HD
ENDBRANCH  17  19
ENDBRANCH  16  17
ENDBRANCH  11  16
ENDBRANCH   9  11
ENDBRANCH   5   7
BRANCH   6  21
ATOM     21  N   UNL     1       2.381   6.293  20.702  0.00  0.00    +0.000 N 
ATOM     22  C   UNL     1       1.512   5.249  20.893  0.00  0.00    +0.000 C 
ATOM     23  O   UNL     1       0.440   5.072  20.335  0.00  0.00    +0.000 OA
ATOM     24  H   UNL     1       3.337   6.067  20.956  0.00  0.00    +0.000 HD
BRANCH  22  25
ATOM     25  O   UNL     1       2.103   4.354  21.730  0.00  0.00    +0.000 OA
BRANCH  25  26
ATOM     26  C   UNL     1       1.805   2.977  21.479  0.00  0.00    +0.000 C 
BRANCH  26  27
ATOM     27  C   UNL     1       2.474   2.502  20.212  0.00  0.00    +0.000 A 
ATOM     28  C   UNL     1       1.735   2.303  19.040  0.00  0.00    +0.000 A 
ATOM     29  C   UNL     1       2.363   1.853  17.876  0.00  0.00    +0.000 A 
ATOM     30  C   UNL     1       3.734   1.604  17.872  0.00  0.00    +0.000 A 
ATOM     31  C   UNL     1       4.481   1.810  19.029  0.00  0.00    +0.000 A 
ATOM     32  C   UNL     1       3.853   2.256  20.194  0.00  0.00    +0.000 A 
ENDBRANCH  26  27
ENDBRANCH  25  26
ENDBRANCH  22  25
ENDBRANCH   6  21
BRANCH   1  34
ATOM     33  C   UNL     1       0.790   9.697  22.087  0.00  0.00    +0.000 C 
ATOM     34  O   UNL     1       0.746   8.445  21.404  0.00  0.00    +0.000 OA
ENDBRANCH   1  34
TORSDOF 12
ENDMDL
MODEL 6
REMARK VINA RESULT:      -7.0      2.839      6.850
REMARK  Name = 
REMARK  13 active torsions:
REMARK  status: ('A' for Active; 'I' for Inactive)
REMARK    1  A    between atoms: C_1  and  O_2
REMARK    2  A    between atoms: O_2  and  C_3
REMARK    3  A    between atoms: C_7  and  C_8
REMARK    4  A    between atoms: N_10  and  C_11
REMARK    5  A    between atoms: C_11  and  C_12
REMARK    6  A    between atoms: C_11  and  C_16
REMARK    7  A    between atoms: C_12  and  C_13
REMARK    8  A    between atoms: C_13  and  O_15
REMARK    9  A    between atoms: C_16  and  C_18
REMARK   10  A    between atoms: C_20  and  N_21
REMARK   11  A    between atoms: C_22  and  O_24
REMARK   12  A    between atoms: O_24  and  C_25
REMARK   13  A    between atoms: C_25  and  C_26
REMARK                            x       y       z     vdW  Elec       q    Type
REMARK                         _______ _______ _______ _____ _____    ______ ____
ROOT
ATOM      1  C   UNL     1       3.061   2.804  19.563  0.00  0.00    +0.000 A 
ATOM      2  C   UNL     1       2.326   2.410  20.691  0.00  0.00    +0.000 A 
ATOM      3  C   UNL     1       1.639   3.349  21.457  0.00  0.00    +0.000 A 
ATOM      4  C   UNL     1       1.685   4.692  21.101  0.00  0.00    +0.000 A 
ATOM      5  C   UNL     1       2.397   5.102  19.965  0.00  0.00    +0.000 A 
ATOM      6  C   UNL     1       3.065   4.160  19.159  0.00  0.00    +0.000 A 
ENDROOT
BRANCH   5   7
ATOM      7  C   UNL     1       2.400   6.557  19.702  0.00  0.00    +0.000 C 
ATOM      8  O   UNL     1       2.990   6.973  18.712  0.00  0.00    +0.000 OA
ATOM      9  N   UNL     1       1.783   7.366  20.628  0.00  0.00    +0.000 N 
ATOM     10  H   UNL     1       1.306   6.920  21.410  0.00  0.00    +0.000 HD
BRANCH   9  11
ATOM     11  C   UNL     1       1.648   8.828  20.503  0.00  0.00    +0.000 C 
BRANCH  11  12
ATOM     12  C   UNL     1       1.185   9.380  21.858  0.00  0.00    +0.000 C 
ATOM     13  O   UNL     1       1.917   9.394  22.852  0.00  0.00    +0.000 OA
BRANCH  12  14
ATOM     14  C   UNL     1      -0.201   9.985  21.909  0.00  0.00    +0.000 C 
ATOM     15  F   UNL     1      -0.960   9.472  22.916  0.00  0.00    +0.000 F 
ENDBRANCH  12  14
ENDBRANCH  11  12
BRANCH  11  16
ATOM     16  C   UNL     1       0.709   9.349  19.410  0.00  0.00    +0.000 C 
BRANCH  16  17
ATOM     17  C   UNL     1       1.410  10.269  18.447  0.00  0.00    +0.000 C 
ATOM     18  O   UNL     1       1.441  11.485  18.556  0.00  0.00    +0.000 OA
BRANCH  17  19
ATOM     19  O   UNL     1       1.934   9.628  17.375  0.00  0.00    +0.000 OA
ATOM     20  H   UNL     1       1.807  10.112  16.535  0.00  0.00    +0.000 HD
ENDBRANCH  17  19
ENDBRANCH  16  17
ENDBRANCH  11  16
ENDBRANCH   9  11
ENDBRANCH   5   7
BRANCH   6  21
ATOM     21  N   UNL     1       3.816   4.595  18.039  0.00  0.00    +0.000 N 
ATOM     22  C   UNL     1       5.184   4.710  18.043  0.00  0.00    +0.000 C 
ATOM     23  O   UNL     1       5.940   4.462  18.968  0.00  0.00    +0.000 OA
ATOM     24  H   UNL     1       3.429   4.481  17.107  0.00  0.00    +0.000 HD
BRANCH  22  25
ATOM     25  O   UNL     1       5.585   5.033  16.784  0.00  0.00    +0.000 OA
BRANCH  25  26
ATOM     26  C   UNL     1       5.030   4.237  15.731  0.00  0.00    +0.000 C 
BRANCH  26  27
ATOM     27  C   UNL     1       5.881   4.319  14.487  0.00  0.00    +0.000 A 
ATOM     28  C   UNL     1       5.581   3.546  13.358  0.00  0.00    +0.000 A 
ATOM     29  C   UNL     1       6.382   3.621  12.216  0.00  0.00    +0.000 A 
ATOM     30  C   UNL     1       7.485   4.472  12.190  0.00  0.00    +0.000 A 
ATOM     31  C   UNL     1       7.786   5.254  13.303  0.00  0.00    +0.000 A 
ATOM     32  C   UNL     1       6.988   5.176  14.446  0.00  0.00    +0.000 A 
ENDBRANCH  26  27
ENDBRANCH  25  26
ENDBRANCH  22  25
ENDBRANCH   6  21
BRANCH   1  34
ATOM     33  C   UNL     1       4.757   1.145  19.651  0.00  0.00    +0.000 C 
ATOM     34  O   UNL     1       3.860   1.928  18.864  0.00  0.00    +0.000 OA
ENDBRANCH   1  34
TORSDOF 12
ENDMDL
MODEL 7
REMARK VINA RESULT:      -6.8      2.718      6.768
REMARK  Name = 
REMARK  13 active torsions:
REMARK  status: ('A' for Active; 'I' for Inactive)
REMARK    1  A    between atoms: C_1  and  O_2
REMARK    2  A    between atoms: O_2  and  C_3
REMARK    3  A    between atoms: C_7  and  C_8
REMARK    4  A    between atoms: N_10  and  C_11
REMARK    5  A    between atoms: C_11  and  C_12
REMARK    6  A    between atoms: C_11  and  C_16
REMARK    7  A    between atoms: C_12  and  C_13
REMARK    8  A    between atoms: C_13  and  O_15
REMARK    9  A    between atoms: C_16  and  C_18
REMARK   10  A    between atoms: C_20  and  N_21
REMARK   11  A    between atoms: C_22  and  O_24
REMARK   12  A    between atoms: O_24  and  C_25
REMARK   13  A    between atoms: C_25  and  C_26
REMARK                            x       y       z     vdW  Elec       q    Type
REMARK                         _______ _______ _______ _____ _____    ______ ____
ROOT
ATOM      1  C   UNL     1       3.632   2.991  20.125  0.00  0.00    +0.000 A 
ATOM      2  C   UNL     1       2.675   2.515  21.035  0.00  0.00    +0.000 A 
ATOM      3  C   UNL     1       1.637   3.335  21.471  0.00  0.00    +0.000 A 
ATOM      4  C   UNL     1       1.550   4.640  21.002  0.00  0.00    +0.000 A 
ATOM      5  C   UNL     1       2.485   5.128  20.078  0.00  0.00    +0.000 A 
ATOM      6  C   UNL     1       3.517   4.299  19.598  0.00  0.00    +0.000 A 
ENDROOT
BRANCH   5   7
ATOM      7  C   UNL     1       2.309   6.539  19.673  0.00  0.00    +0.000 C 
ATOM      8  O   UNL     1       2.552   6.851  18.513  0.00  0.00    +0.000 OA
ATOM      9  N   UNL     1       1.937   7.433  20.650  0.00  0.00    +0.000 N 
ATOM     10  H   UNL     1       1.742   7.070  21.582  0.00  0.00    +0.000 HD
BRANCH   9  11
ATOM     11  C   UNL     1       1.671   8.863  20.417  0.00  0.00    +0.000 C 
BRANCH  11  12
ATOM     12  C   UNL     1       1.151   9.470  21.728  0.00  0.00    +0.000 C 
ATOM     13  O   UNL     1       1.806   9.442  22.775  0.00  0.00    +0.000 OA
BRANCH  12  14
ATOM     14  C   UNL     1      -0.183  10.180  21.669  0.00  0.00    +0.000 C 
ATOM     15  F   UNL     1      -0.055  11.535  21.641  0.00  0.00    +0.000 F 
ENDBRANCH  12  14
ENDBRANCH  11  12
BRANCH  11  16
ATOM     16  C   UNL     1       0.693   9.215  19.289  0.00  0.00    +0.000 C 
BRANCH  16  17
ATOM     17  C   UNL     1       1.317  10.110  18.253  0.00  0.00    +0.000 C 
ATOM     18  O   UNL     1       2.110   9.731  17.404  0.00  0.00    +0.000 OA
BRANCH  17  19
ATOM     19  O   UNL     1       0.993  11.416  18.404  0.00  0.00    +0.000 OA
ATOM     20  H   UNL     1       0.075  11.619  18.135  0.00  0.00    +0.000 HD
ENDBRANCH  17  19
ENDBRANCH  16  17
ENDBRANCH  11  16
ENDBRANCH   9  11
ENDBRANCH   5   7
BRANCH   6  21
ATOM     21  N   UNL     1       4.479   4.818  18.696  0.00  0.00    +0.000 N 
ATOM     22  C   UNL     1       4.493   4.528  17.355  0.00  0.00    +0.000 C 
ATOM     23  O   UNL     1       3.711   3.813  16.749  0.00  0.00    +0.000 OA
ATOM     24  H   UNL     1       4.950   5.689  18.920  0.00  0.00    +0.000 HD
BRANCH  22  25
ATOM     25  O   UNL     1       5.465   5.279  16.770  0.00  0.00    +0.000 OA
BRANCH  25  26
ATOM     26  C   UNL     1       6.648   4.573  16.382  0.00  0.00    +0.000 C 
BRANCH  26  27
ATOM     27  C   UNL     1       6.756   4.484  14.879  0.00  0.00    +0.000 A 
ATOM     28  C   UNL     1       5.960   3.589  14.153  0.00  0.00    +0.000 A 
ATOM     29  C   UNL     1       6.075   3.507  12.764  0.00  0.00    +0.000 A 
ATOM     30  C   UNL     1       6.980   4.323  12.087  0.00  0.00    +0.000 A 
ATOM     31  C   UNL     1       7.768   5.226  12.798  0.00  0.00    +0.000 A 
ATOM     32  C   UNL     1       7.656   5.305  14.188  0.00  0.00    +0.000 A 
ENDBRANCH  26  27
ENDBRANCH  25  26
ENDBRANCH  22  25
ENDBRANCH   6  21
BRANCH   1  34
ATOM     33  C   UNL     1       5.223   1.352  20.771  0.00  0.00    +0.000 C 
ATOM     34  O   UNL     1       4.744   2.258  19.778  0.00  0.00    +0.000 OA
ENDBRANCH   1  34
TORSDOF 12
ENDMDL
MODEL 8
REMARK VINA RESULT:      -6.6      2.781      6.701
REMARK  Name = 
REMARK  13 active torsions:
REMARK  status: ('A' for Active; 'I' for Inactive)
REMARK    1  A    between atoms: C_1  and  O_2
REMARK    2  A    between atoms: O_2  and  C_3
REMARK    3  A    between atoms: C_7  and  C_8
REMARK    4  A    between atoms: N_10  and  C_11
REMARK    5  A    between atoms: C_11  and  C_12
REMARK    6  A    between atoms: C_11  and  C_16
REMARK    7  A    between atoms: C_12  and  C_13
REMARK    8  A    between atoms: C_13  and  O_15
REMARK    9  A    between atoms: C_16  and  C_18
REMARK   10  A    between atoms: C_20  and  N_21
REMARK   11  A    between atoms: C_22  and  O_24
REMARK   12  A    between atoms: O_24  and  C_25
REMARK   13  A    between atoms: C_25  and  C_26
REMARK                            x       y       z     vdW  Elec       q    Type
REMARK                         _______ _______ _______ _____ _____    ______ ____
ROOT
ATOM      1  C   UNL     1       3.228   2.924  19.945  0.00  0.00    +0.000 A 
ATOM      2  C   UNL     1       2.151   2.527  20.754  0.00  0.00    +0.000 A 
ATOM      3  C   UNL     1       1.189   3.448  21.160  0.00  0.00    +0.000 A 
ATOM      4  C   UNL     1       1.299   4.776  20.763  0.00  0.00    +0.000 A 
ATOM      5  C   UNL     1       2.355   5.187  19.938  0.00  0.00    +0.000 A 
ATOM      6  C   UNL     1       3.314   4.260  19.487  0.00  0.00    +0.000 A 
ENDROOT
BRANCH   5   7
ATOM      7  C   UNL     1       2.384   6.627  19.605  0.00  0.00    +0.000 C 
ATOM      8  O   UNL     1       2.946   6.979  18.574  0.00  0.00    +0.000 OA
ATOM      9  N   UNL     1       1.823   7.495  20.512  0.00  0.00    +0.000 N 
ATOM     10  H   UNL     1       1.365   7.100  21.332  0.00  0.00    +0.000 HD
BRANCH   9  11
ATOM     11  C   UNL     1       1.721   8.953  20.321  0.00  0.00    +0.000 C 
BRANCH  11  12
ATOM     12  C   UNL     1       1.101   9.556  21.589  0.00  0.00    +0.000 C 
ATOM     13  O   UNL     1       1.104  10.770  21.815  0.00  0.00    +0.000 OA
BRANCH  12  14
ATOM     14  C   UNL     1       0.409   8.596  22.532  0.00  0.00    +0.000 C 
ATOM     15  F   UNL     1      -0.931   8.513  22.305  0.00  0.00    +0.000 F 
ENDBRANCH  12  14
ENDBRANCH  11  12
BRANCH  11  16
ATOM     16  C   UNL     1       0.927   9.441  19.104  0.00  0.00    +0.000 C 
BRANCH  16  17
ATOM     17  C   UNL     1       1.767  10.273  18.173  0.00  0.00    +0.000 C 
ATOM     18  O   UNL     1       1.946  11.475  18.297  0.00  0.00    +0.000 OA
BRANCH  17  19
ATOM     19  O   UNL     1       2.240   9.580  17.110  0.00  0.00    +0.000 OA
ATOM     20  H   UNL     1       2.520   8.670  17.336  0.00  0.00    +0.000 HD
ENDBRANCH  17  19
ENDBRANCH  16  17
ENDBRANCH  11  16
ENDBRANCH   9  11
ENDBRANCH   5   7
BRANCH   6  21
ATOM     21  N   UNL     1       4.400   4.698  18.689  0.00  0.00    +0.000 N 
ATOM     22  C   UNL     1       4.522   4.410  17.353  0.00  0.00    +0.000 C 
ATOM     23  O   UNL     1       3.746   3.764  16.666  0.00  0.00    +0.000 OA
ATOM     24  H   UNL     1       4.918   5.526  18.967  0.00  0.00    +0.000 HD
BRANCH  22  25
ATOM     25  O   UNL     1       5.605   5.078  16.873  0.00  0.00    +0.000 OA
BRANCH  25  26
ATOM     26  C   UNL     1       5.389   5.839  15.680  0.00  0.00    +0.000 C 
BRANCH  26  27
ATOM     27  C   UNL     1       5.999   5.152  14.483  0.00  0.00    +0.000 A 
ATOM     28  C   UNL     1       7.269   5.515  14.016  0.00  0.00    +0.000 A 
ATOM     29  C   UNL     1       7.819   4.879  12.900  0.00  0.00    +0.000 A 
ATOM     30  C   UNL     1       7.111   3.872  12.247  0.00  0.00    +0.000 A 
ATOM     31  C   UNL     1       5.853   3.495  12.711  0.00  0.00    +0.000 A 
ATOM     32  C   UNL     1       5.300   4.133  13.823  0.00  0.00    +0.000 A 
ENDBRANCH  26  27
ENDBRANCH  25  26
ENDBRANCH  22  25
ENDBRANCH   6  21
BRANCH   1  34
ATOM     33  C   UNL     1       3.978   1.068  18.668  0.00  0.00    +0.000 C 
ATOM     34  O   UNL     1       4.267   2.075  19.637  0.00  0.00    +0.000 OA
ENDBRANCH   1  34
TORSDOF 12
ENDMDL
MODEL 9
REMARK VINA RESULT:      -6.5      2.786      6.948
REMARK  Name = 
REMARK  13 active torsions:
REMARK  status: ('A' for Active; 'I' for Inactive)
REMARK    1  A    between atoms: C_1  and  O_2
REMARK    2  A    between atoms: O_2  and  C_3
REMARK    3  A    between atoms: C_7  and  C_8
REMARK    4  A    between atoms: N_10  and  C_11
REMARK    5  A    between atoms: C_11  and  C_12
REMARK    6  A    between atoms: C_11  and  C_16
REMARK    7  A    between atoms: C_12  and  C_13
REMARK    8  A    between atoms: C_13  and  O_15
REMARK    9  A    between atoms: C_16  and  C_18
REMARK   10  A    between atoms: C_20  and  N_21
REMARK   11  A    between atoms: C_22  and  O_24
REMARK   12  A    between atoms: O_24  and  C_25
REMARK   13  A    between atoms: C_25  and  C_26
REMARK                            x       y       z     vdW  Elec       q    Type
REMARK                         _______ _______ _______ _____ _____    ______ ____
ROOT
ATOM      1  C   UNL     1       3.733   3.366  19.956  0.00  0.00    +0.000 A 
ATOM      2  C   UNL     1       2.769   2.911  20.869  0.00  0.00    +0.000 A 
ATOM      3  C   UNL     1       1.715   3.733  21.261  0.00  0.00    +0.000 A 
ATOM      4  C   UNL     1       1.620   5.020  20.744  0.00  0.00    +0.000 A 
ATOM      5  C   UNL     1       2.562   5.485  19.816  0.00  0.00    +0.000 A 
ATOM      6  C   UNL     1       3.611   4.652  19.380  0.00  0.00    +0.000 A 
ENDROOT
BRANCH   5   7
ATOM      7  C   UNL     1       2.376   6.878  19.359  0.00  0.00    +0.000 C 
ATOM      8  O   UNL     1       2.685   7.165  18.207  0.00  0.00    +0.000 OA
ATOM      9  N   UNL     1       1.919   7.789  20.282  0.00  0.00    +0.000 N 
ATOM     10  H   UNL     1       1.674   7.447  21.210  0.00  0.00    +0.000 HD
BRANCH   9  11
ATOM     11  C   UNL     1       1.631   9.205  19.990  0.00  0.00    +0.000 C 
BRANCH  11  12
ATOM     12  C   UNL     1       0.826   9.778  21.164  0.00  0.00    +0.000 C 
ATOM     13  O   UNL     1       1.284  10.641  21.921  0.00  0.00    +0.000 OA
BRANCH  12  14
ATOM     14  C   UNL     1      -0.598   9.293  21.316  0.00  0.00    +0.000 C 
ATOM     15  F   UNL     1      -0.670   7.977  21.655  0.00  0.00    +0.000 F 
ENDBRANCH  12  14
ENDBRANCH  11  12
BRANCH  11  16
ATOM     16  C   UNL     1       0.884   9.508  18.686  0.00  0.00    +0.000 C 
BRANCH  16  17
ATOM     17  C   UNL     1       0.742  10.986  18.442  0.00  0.00    +0.000 C 
ATOM     18  O   UNL     1      -0.314  11.595  18.510  0.00  0.00    +0.000 OA
BRANCH  17  19
ATOM     19  O   UNL     1       1.891  11.578  18.038  0.00  0.00    +0.000 OA
ATOM     20  H   UNL     1       2.197  12.282  18.644  0.00  0.00    +0.000 HD
ENDBRANCH  17  19
ENDBRANCH  16  17
ENDBRANCH  11  16
ENDBRANCH   9  11
ENDBRANCH   5   7
BRANCH   6  21
ATOM     21  N   UNL     1       4.579   5.150  18.473  0.00  0.00    +0.000 N 
ATOM     22  C   UNL     1       4.678   4.737  17.169  0.00  0.00    +0.000 C 
ATOM     23  O   UNL     1       3.975   3.915  16.603  0.00  0.00    +0.000 OA
ATOM     24  H   UNL     1       4.980   6.069  18.632  0.00  0.00    +0.000 HD
BRANCH  22  25
ATOM     25  O   UNL     1       5.625   5.496  16.555  0.00  0.00    +0.000 OA
BRANCH  25  26
ATOM     26  C   UNL     1       6.826   4.811  16.183  0.00  0.00    +0.000 C 
BRANCH  26  27
ATOM     27  C   UNL     1       6.912   4.650  14.684  0.00  0.00    +0.000 A 
ATOM     28  C   UNL     1       6.123   3.706  14.016  0.00  0.00    +0.000 A 
ATOM     29  C   UNL     1       6.220   3.558  12.630  0.00  0.00    +0.000 A 
ATOM     30  C   UNL     1       7.099   4.356  11.900  0.00  0.00    +0.000 A 
ATOM     31  C   UNL     1       7.879   5.307  12.554  0.00  0.00    +0.000 A 
ATOM     32  C   UNL     1       7.787   5.452  13.939  0.00  0.00    +0.000 A 
ENDBRANCH  26  27
ENDBRANCH  25  26
ENDBRANCH  22  25
ENDBRANCH   6  21
BRANCH   1  34
ATOM     33  C   UNL     1       4.664   1.227  19.510  0.00  0.00    +0.000 C 
ATOM     34  O   UNL     1       4.858   2.634  19.650  0.00  0.00    +0.000 OA
ENDBRANCH   1  34
TORSDOF 12
ENDMDL
