MODEL 1
REMARK VINA RESULT:      -7.6      0.000      0.000
REMARK  Name = 
REMARK  6 active torsions:
REMARK  status: ('A' for Active; 'I' for Inactive)
REMARK    1  A    between atoms: C_1  and  C_2
REMARK    2  A    between atoms: C_2  and  C_3
REMARK    3  A    between atoms: C_7  and  C_8
REMARK    4  A    between atoms: C_16  and  C_17
REMARK    5  A    between atoms: C_16  and  C_18
REMARK    6  A    between atoms: N_19  and  C_20
REMARK                            x       y       z     vdW  Elec       q    Type
REMARK                         _______ _______ _______ _____ _____    ______ ____
ROOT
ATOM      1  C   UNL     1       5.064   4.856  16.488  0.00  0.00    +0.000 A 
ATOM      2  C   UNL     1       4.507   3.686  16.965  0.00  0.00    +0.000 A 
ATOM      3  C   UNL     1       3.582   3.912  18.024  0.00  0.00    +0.000 A 
ATOM      4  C   UNL     1       3.450   5.246  18.295  0.00  0.00    +0.000 A 
ATOM      5  S   UNL     1       4.441   6.218  17.329  0.00  0.00    +0.000 S 
ATOM      6  C   UNL     1       2.553   5.769  19.275  0.00  0.00    +0.000 C 
ATOM      7  O   UNL     1       2.410   6.948  19.583  0.00  0.00    +0.000 OA
ATOM      8  N   UNL     1       1.772   4.817  19.872  0.00  0.00    +0.000 N 
ATOM      9  C   UNL     1       1.997   3.378  19.847  0.00  0.00    +0.000 C 
ATOM     10  C   UNL     1       2.640   2.970  21.183  0.00  0.00    +0.000 C 
ATOM     11  C   UNL     1       0.614   2.725  19.681  0.00  0.00    +0.000 C 
ATOM     12  N   UNL     1       2.866   2.978  18.719  0.00  0.00    +0.000 N 
ATOM     13  C   UNL     1       3.194   1.561  18.554  0.00  0.00    +0.000 C 
ATOM     14  H   UNL     1       1.169   5.196  20.586  0.00  0.00    +0.000 HD
ENDROOT
BRANCH   1  19
ATOM     15  C   UNL     1       6.104   4.434  14.071  0.00  0.00    +0.000 A 
ATOM     16  N   UNL     1       7.250   4.743  13.442  0.00  0.00    +0.000 NA
ATOM     17  N   UNL     1       7.938   5.462  14.337  0.00  0.00    +0.000 N 
ATOM     18  C   UNL     1       7.281   5.637  15.514  0.00  0.00    +0.000 A 
ATOM     19  C   UNL     1       6.087   4.959  15.397  0.00  0.00    +0.000 A 
ATOM     20  H   UNL     1       8.856   5.804  14.075  0.00  0.00    +0.000 HD
BRANCH  15  22
ATOM     21  C   UNL     1       5.401   3.199  11.949  0.00  0.00    +0.000 C 
ATOM     22  C   UNL     1       5.046   3.648  13.359  0.00  0.00    +0.000 C 
ENDBRANCH  15  22
ENDBRANCH   1  19
TORSDOF 2
ENDMDL
MODEL 2
REMARK VINA RESULT:      -7.5      3.190      6.157
REMARK  Name = 
REMARK  6 active torsions:
REMARK  status: ('A' for Active; 'I' for Inactive)
REMARK    1  A    between atoms: C_1  and  C_2
REMARK    2  A    between atoms: C_2  and  C_3
REMARK    3  A    between atoms: C_7  and  C_8
REMARK    4  A    between atoms: C_16  and  C_17
REMARK    5  A    between atoms: C_16  and  C_18
REMARK    6  A    between atoms: N_19  and  C_20
REMARK                            x       y       z     vdW  Elec       q    Type
REMARK                         _______ _______ _______ _____ _____    ______ ____
ROOT
ATOM      1  C   UNL     1       2.626   7.143  18.774  0.00  0.00    +0.000 A 
ATOM      2  C   UNL     1       2.287   6.020  19.503  0.00  0.00    +0.000 A 
ATOM      3  C   UNL     1       3.164   4.925  19.262  0.00  0.00    +0.000 A 
ATOM      4  C   UNL     1       4.152   5.261  18.378  0.00  0.00    +0.000 A 
ATOM      5  S   UNL     1       4.020   6.850  17.812  0.00  0.00    +0.000 S 
ATOM      6  C   UNL     1       5.202   4.374  17.990  0.00  0.00    +0.000 C 
ATOM      7  O   UNL     1       6.097   4.608  17.184  0.00  0.00    +0.000 OA
ATOM      8  N   UNL     1       5.178   3.172  18.643  0.00  0.00    +0.000 N 
ATOM      9  C   UNL     1       4.059   2.622  19.394  0.00  0.00    +0.000 C 
ATOM     10  C   UNL     1       3.349   1.585  18.507  0.00  0.00    +0.000 C 
ATOM     11  C   UNL     1       4.660   1.955  20.643  0.00  0.00    +0.000 C 
ATOM     12  N   UNL     1       3.106   3.675  19.811  0.00  0.00    +0.000 N 
ATOM     13  C   UNL     1       1.919   3.285  20.574  0.00  0.00    +0.000 C 
ATOM     14  H   UNL     1       5.904   2.544  18.332  0.00  0.00    +0.000 HD
ENDROOT
BRANCH   1  19
ATOM     15  C   UNL     1       1.206   9.135  19.829  0.00  0.00    +0.000 A 
ATOM     16  N   UNL     1       0.654  10.274  19.380  0.00  0.00    +0.000 NA
ATOM     17  N   UNL     1       0.995  10.323  18.087  0.00  0.00    +0.000 N 
ATOM     18  C   UNL     1       1.751   9.268  17.684  0.00  0.00    +0.000 A 
ATOM     19  C   UNL     1       1.892   8.449  18.783  0.00  0.00    +0.000 A 
ATOM     20  H   UNL     1       0.675  11.112  17.535  0.00  0.00    +0.000 HD
BRANCH  15  22
ATOM     21  C   UNL     1      -0.363   8.556  21.759  0.00  0.00    +0.000 C 
ATOM     22  C   UNL     1       1.064   8.750  21.269  0.00  0.00    +0.000 C 
ENDBRANCH  15  22
ENDBRANCH   1  19
TORSDOF 2
ENDMDL
MODEL 3
REMARK VINA RESULT:      -7.3      1.111      2.381
REMARK  Name = 
REMARK  6 active torsions:
REMARK  status: ('A' for Active; 'I' for Inactive)
REMARK    1  A    between atoms: C_1  and  C_2
REMARK    2  A    between atoms: C_2  and  C_3
REMARK    3  A    between atoms: C_7  and  C_8
REMARK    4  A    between atoms: C_16  and  C_17
REMARK    5  A    between atoms: C_16  and  C_18
REMARK    6  A    between atoms: N_19  and  C_20
REMARK                            x       y       z     vdW  Elec       q    Type
REMARK                         _______ _______ _______ _____ _____    ______ ____
ROOT
ATOM      1  C   UNL     1       4.762   5.036  17.185  0.00  0.00    +0.000 A 
ATOM      2  C   UNL     1       4.199   3.840  17.588  0.00  0.00    +0.000 A 
ATOM      3  C   UNL     1       3.222   4.011  18.608  0.00  0.00    +0.000 A 
ATOM      4  C   UNL     1       3.058   5.331  18.927  0.00  0.00    +0.000 A 
ATOM      5  S   UNL     1       4.079   6.355  18.050  0.00  0.00    +0.000 S 
ATOM      6  C   UNL     1       2.107   5.802  19.883  0.00  0.00    +0.000 C 
ATOM      7  O   UNL     1       1.933   6.966  20.231  0.00  0.00    +0.000 OA
ATOM      8  N   UNL     1       1.313   4.816  20.402  0.00  0.00    +0.000 N 
ATOM      9  C   UNL     1       1.560   3.383  20.330  0.00  0.00    +0.000 C 
ATOM     10  C   UNL     1       2.144   2.928  21.678  0.00  0.00    +0.000 C 
ATOM     11  C   UNL     1       0.197   2.720  20.072  0.00  0.00    +0.000 C 
ATOM     12  N   UNL     1       2.488   3.041  19.230  0.00  0.00    +0.000 N 
ATOM     13  C   UNL     1       2.844   1.636  19.024  0.00  0.00    +0.000 C 
ATOM     14  H   UNL     1       0.671   5.158  21.102  0.00  0.00    +0.000 HD
ENDROOT
BRANCH   1  19
ATOM     15  C   UNL     1       7.036   5.965  16.153  0.00  0.00    +0.000 A 
ATOM     16  N   UNL     1       7.693   5.842  14.988  0.00  0.00    +0.000 NA
ATOM     17  N   UNL     1       6.939   5.001  14.268  0.00  0.00    +0.000 N 
ATOM     18  C   UNL     1       5.828   4.571  14.923  0.00  0.00    +0.000 A 
ATOM     19  C   UNL     1       5.834   5.197  16.150  0.00  0.00    +0.000 A 
ATOM     20  H   UNL     1       7.246   4.764  13.331  0.00  0.00    +0.000 HD
BRANCH  15  22
ATOM     21  C   UNL     1       7.801   6.121  18.585  0.00  0.00    +0.000 C 
ATOM     22  C   UNL     1       7.603   6.817  17.247  0.00  0.00    +0.000 C 
ENDBRANCH  15  22
ENDBRANCH   1  19
TORSDOF 2
ENDMDL
MODEL 4
REMARK VINA RESULT:      -7.1      3.301      6.826
REMARK  Name = 
REMARK  6 active torsions:
REMARK  status: ('A' for Active; 'I' for Inactive)
REMARK    1  A    between atoms: C_1  and  C_2
REMARK    2  A    between atoms: C_2  and  C_3
REMARK    3  A    between atoms: C_7  and  C_8
REMARK    4  A    between atoms: C_16  and  C_17
REMARK    5  A    between atoms: C_16  and  C_18
REMARK    6  A    between atoms: N_19  and  C_20
REMARK                            x       y       z     vdW  Elec       q    Type
REMARK                         _______ _______ _______ _____ _____    ______ ____
ROOT
ATOM      1  C   UNL     1       2.550   7.478  18.624  0.00  0.00    +0.000 A 
ATOM      2  C   UNL     1       3.457   7.357  17.588  0.00  0.00    +0.000 A 
ATOM      3  C   UNL     1       4.170   6.125  17.626  0.00  0.00    +0.000 A 
ATOM      4  C   UNL     1       3.762   5.344  18.672  0.00  0.00    +0.000 A 
ATOM      5  S   UNL     1       2.572   6.080  19.622  0.00  0.00    +0.000 S 
ATOM      6  C   UNL     1       4.270   4.034  18.926  0.00  0.00    +0.000 C 
ATOM      7  O   UNL     1       3.965   3.298  19.860  0.00  0.00    +0.000 OA
ATOM      8  N   UNL     1       5.151   3.591  17.978  0.00  0.00    +0.000 N 
ATOM      9  C   UNL     1       5.834   4.410  16.987  0.00  0.00    +0.000 C 
ATOM     10  C   UNL     1       7.268   4.665  17.480  0.00  0.00    +0.000 C 
ATOM     11  C   UNL     1       5.840   3.597  15.681  0.00  0.00    +0.000 C 
ATOM     12  N   UNL     1       5.136   5.695  16.761  0.00  0.00    +0.000 N 
ATOM     13  C   UNL     1       5.699   6.639  15.794  0.00  0.00    +0.000 C 
ATOM     14  H   UNL     1       5.528   2.679  18.189  0.00  0.00    +0.000 HD
ENDROOT
BRANCH   1  19
ATOM     15  C   UNL     1       1.046   9.128  20.077  0.00  0.00    +0.000 A 
ATOM     16  N   UNL     1       0.300  10.220  19.841  0.00  0.00    +0.000 NA
ATOM     17  N   UNL     1       0.456  10.453  18.532  0.00  0.00    +0.000 N 
ATOM     18  C   UNL     1       1.277   9.563  17.915  0.00  0.00    +0.000 A 
ATOM     19  C   UNL     1       1.666   8.660  18.881  0.00  0.00    +0.000 A 
ATOM     20  H   UNL     1      -0.033  11.243  18.123  0.00  0.00    +0.000 HD
BRANCH  15  22
ATOM     21  C   UNL     1       0.449   9.387  22.547  0.00  0.00    +0.000 C 
ATOM     22  C   UNL     1       1.149   8.577  21.466  0.00  0.00    +0.000 C 
ENDBRANCH  15  22
ENDBRANCH   1  19
TORSDOF 2
ENDMDL
MODEL 5
REMARK VINA RESULT:      -7.1      1.907      2.244
REMARK  Name = 
REMARK  6 active torsions:
REMARK  status: ('A' for Active; 'I' for Inactive)
REMARK    1  A    between atoms: C_1  and  C_2
REMARK    2  A    between atoms: C_2  and  C_3
REMARK    3  A    between atoms: C_7  and  C_8
REMARK    4  A    between atoms: C_16  and  C_17
REMARK    5  A    between atoms: C_16  and  C_18
REMARK    6  A    between atoms: N_19  and  C_20
REMARK                            x       y       z     vdW  Elec       q    Type
REMARK                         _______ _______ _______ _____ _____    ______ ____
ROOT
ATOM      1  C   UNL     1       6.175   4.622  15.387  0.00  0.00    +0.000 A 
ATOM      2  C   UNL     1       4.901   4.223  15.744  0.00  0.00    +0.000 A 
ATOM      3  C   UNL     1       4.680   4.290  17.148  0.00  0.00    +0.000 A 
ATOM      4  C   UNL     1       5.784   4.761  17.806  0.00  0.00    +0.000 A 
ATOM      5  S   UNL     1       7.082   5.085  16.771  0.00  0.00    +0.000 S 
ATOM      6  C   UNL     1       5.831   4.979  19.216  0.00  0.00    +0.000 C 
ATOM      7  O   UNL     1       6.796   5.372  19.865  0.00  0.00    +0.000 OA
ATOM      8  N   UNL     1       4.640   4.749  19.850  0.00  0.00    +0.000 N 
ATOM      9  C   UNL     1       3.502   4.021  19.307  0.00  0.00    +0.000 C 
ATOM     10  C   UNL     1       3.516   2.601  19.895  0.00  0.00    +0.000 C 
ATOM     11  C   UNL     1       2.244   4.787  19.753  0.00  0.00    +0.000 C 
ATOM     12  N   UNL     1       3.542   3.963  17.829  0.00  0.00    +0.000 N 
ATOM     13  C   UNL     1       2.467   3.261  17.125  0.00  0.00    +0.000 C 
ATOM     14  H   UNL     1       4.698   4.873  20.850  0.00  0.00    +0.000 HD
ENDROOT
BRANCH   1  19
ATOM     15  C   UNL     1       6.348   3.929  12.819  0.00  0.00    +0.000 A 
ATOM     16  N   UNL     1       7.151   4.233  11.786  0.00  0.00    +0.000 NA
ATOM     17  N   UNL     1       8.010   5.130  12.284  0.00  0.00    +0.000 N 
ATOM     18  C   UNL     1       7.790   5.425  13.593  0.00  0.00    +0.000 A 
ATOM     19  C   UNL     1       6.729   4.643  13.994  0.00  0.00    +0.000 A 
ATOM     20  H   UNL     1       8.726   5.502  11.669  0.00  0.00    +0.000 HD
BRANCH  15  22
ATOM     21  C   UNL     1       4.301   3.247  11.452  0.00  0.00    +0.000 C 
ATOM     22  C   UNL     1       5.218   2.964  12.633  0.00  0.00    +0.000 C 
ENDBRANCH  15  22
ENDBRANCH   1  19
TORSDOF 2
ENDMDL
MODEL 6
REMARK VINA RESULT:      -7.0      1.155      1.425
REMARK  Name = 
REMARK  6 active torsions:
REMARK  status: ('A' for Active; 'I' for Inactive)
REMARK    1  A    between atoms: C_1  and  C_2
REMARK    2  A    between atoms: C_2  and  C_3
REMARK    3  A    between atoms: C_7  and  C_8
REMARK    4  A    between atoms: C_16  and  C_17
REMARK    5  A    between atoms: C_16  and  C_18
REMARK    6  A    between atoms: N_19  and  C_20
REMARK                            x       y       z     vdW  Elec       q    Type
REMARK                         _______ _______ _______ _____ _____    ______ ____
ROOT
ATOM      1  C   UNL     1       4.843   5.344  17.807  0.00  0.00    +0.000 A 
ATOM      2  C   UNL     1       4.308   4.084  17.999  0.00  0.00    +0.000 A 
ATOM      3  C   UNL     1       3.222   4.085  18.919  0.00  0.00    +0.000 A 
ATOM      4  C   UNL     1       2.954   5.346  19.375  0.00  0.00    +0.000 A 
ATOM      5  S   UNL     1       4.004   6.514  18.745  0.00  0.00    +0.000 S 
ATOM      6  C   UNL     1       1.885   5.653  20.271  0.00  0.00    +0.000 C 
ATOM      7  O   UNL     1       1.612   6.756  20.735  0.00  0.00    +0.000 OA
ATOM      8  N   UNL     1       1.096   4.579  20.577  0.00  0.00    +0.000 N 
ATOM      9  C   UNL     1       1.427   3.177  20.360  0.00  0.00    +0.000 C 
ATOM     10  C   UNL     1       1.892   2.581  21.699  0.00  0.00    +0.000 C 
ATOM     11  C   UNL     1       0.136   2.496  19.876  0.00  0.00    +0.000 C 
ATOM     12  N   UNL     1       2.481   3.014  19.335  0.00  0.00    +0.000 N 
ATOM     13  C   UNL     1       2.933   1.663  19.001  0.00  0.00    +0.000 C 
ATOM     14  H   UNL     1       0.367   4.803  21.238  0.00  0.00    +0.000 HD
ENDROOT
BRANCH   1  19
ATOM     15  C   UNL     1       6.409   5.150  15.661  0.00  0.00    +0.000 A 
ATOM     16  N   UNL     1       7.549   5.721  15.239  0.00  0.00    +0.000 NA
ATOM     17  N   UNL     1       7.854   6.604  16.198  0.00  0.00    +0.000 N 
ATOM     18  C   UNL     1       6.955   6.631  17.217  0.00  0.00    +0.000 A 
ATOM     19  C   UNL     1       6.006   5.677  16.924  0.00  0.00    +0.000 A 
ATOM     20  H   UNL     1       8.698   7.158  16.090  0.00  0.00    +0.000 HD
BRANCH  15  22
ATOM     21  C   UNL     1       6.349   3.880  13.445  0.00  0.00    +0.000 C 
ATOM     22  C   UNL     1       5.732   4.115  14.816  0.00  0.00    +0.000 C 
ENDBRANCH  15  22
ENDBRANCH   1  19
TORSDOF 2
ENDMDL
MODEL 7
REMARK VINA RESULT:      -6.9      3.348      6.616
REMARK  Name = 
REMARK  6 active torsions:
REMARK  status: ('A' for Active; 'I' for Inactive)
REMARK    1  A    between atoms: C_1  and  C_2
REMARK    2  A    between atoms: C_2  and  C_3
REMARK    3  A    between atoms: C_7  and  C_8
REMARK    4  A    between atoms: C_16  and  C_17
REMARK    5  A    between atoms: C_16  and  C_18
REMARK    6  A    between atoms: N_19  and  C_20
REMARK                            x       y       z     vdW  Elec       q    Type
REMARK                         _______ _______ _______ _____ _____    ______ ____
ROOT
ATOM      1  C   UNL     1       1.850   7.446  20.022  0.00  0.00    +0.000 A 
ATOM      2  C   UNL     1       1.821   6.214  20.646  0.00  0.00    +0.000 A 
ATOM      3  C   UNL     1       2.511   5.211  19.908  0.00  0.00    +0.000 A 
ATOM      4  C   UNL     1       3.061   5.721  18.765  0.00  0.00    +0.000 A 
ATOM      5  S   UNL     1       2.731   7.366  18.549  0.00  0.00    +0.000 S 
ATOM      6  C   UNL     1       3.853   4.954  17.857  0.00  0.00    +0.000 C 
ATOM      7  O   UNL     1       4.348   5.347  16.804  0.00  0.00    +0.000 OA
ATOM      8  N   UNL     1       4.081   3.671  18.272  0.00  0.00    +0.000 N 
ATOM      9  C   UNL     1       3.355   2.961  19.316  0.00  0.00    +0.000 C 
ATOM     10  C   UNL     1       2.334   2.029  18.642  0.00  0.00    +0.000 C 
ATOM     11  C   UNL     1       4.402   2.153  20.100  0.00  0.00    +0.000 C 
ATOM     12  N   UNL     1       2.666   3.893  20.236  0.00  0.00    +0.000 N 
ATOM     13  C   UNL     1       1.885   3.338  21.342  0.00  0.00    +0.000 C 
ATOM     14  H   UNL     1       4.611   3.131  17.604  0.00  0.00    +0.000 HD
ENDROOT
BRANCH   1  19
ATOM     15  C   UNL     1       0.527   9.752  19.835  0.00  0.00    +0.000 A 
ATOM     16  N   UNL     1       0.123  10.708  20.687  0.00  0.00    +0.000 NA
ATOM     17  N   UNL     1       0.509  10.268  21.890  0.00  0.00    +0.000 N 
ATOM     18  C   UNL     1       1.137   9.063  21.852  0.00  0.00    +0.000 A 
ATOM     19  C   UNL     1       1.198   8.698  20.525  0.00  0.00    +0.000 A 
ATOM     20  H   UNL     1       0.308  10.845  22.700  0.00  0.00    +0.000 HD
BRANCH  15  22
ATOM     21  C   UNL     1      -1.192  10.265  18.017  0.00  0.00    +0.000 C 
ATOM     22  C   UNL     1       0.237   9.880  18.371  0.00  0.00    +0.000 C 
ENDBRANCH  15  22
ENDBRANCH   1  19
TORSDOF 2
ENDMDL
MODEL 8
REMARK VINA RESULT:      -6.9      3.165      6.630
REMARK  Name = 
REMARK  6 active torsions:
REMARK  status: ('A' for Active; 'I' for Inactive)
REMARK    1  A    between atoms: C_1  and  C_2
REMARK    2  A    between atoms: C_2  and  C_3
REMARK    3  A    between atoms: C_7  and  C_8
REMARK    4  A    between atoms: C_16  and  C_17
REMARK    5  A    between atoms: C_16  and  C_18
REMARK    6  A    between atoms: N_19  and  C_20
REMARK                            x       y       z     vdW  Elec       q    Type
REMARK                         _______ _______ _______ _____ _____    ______ ____
ROOT
ATOM      1  C   UNL     1       2.563   6.904  19.358  0.00  0.00    +0.000 A 
ATOM      2  C   UNL     1       3.316   7.022  18.205  0.00  0.00    +0.000 A 
ATOM      3  C   UNL     1       4.072   5.849  17.923  0.00  0.00    +0.000 A 
ATOM      4  C   UNL     1       3.848   4.874  18.856  0.00  0.00    +0.000 A 
ATOM      5  S   UNL     1       2.780   5.358  20.075  0.00  0.00    +0.000 S 
ATOM      6  C   UNL     1       4.435   3.574  18.798  0.00  0.00    +0.000 C 
ATOM      7  O   UNL     1       4.296   2.669  19.616  0.00  0.00    +0.000 OA
ATOM      8  N   UNL     1       5.187   3.358  17.676  0.00  0.00    +0.000 N 
ATOM      9  C   UNL     1       5.690   4.378  16.766  0.00  0.00    +0.000 C 
ATOM     10  C   UNL     1       7.169   4.632  17.100  0.00  0.00    +0.000 C 
ATOM     11  C   UNL     1       5.538   3.807  15.346  0.00  0.00    +0.000 C 
ATOM     12  N   UNL     1       4.920   5.637  16.873  0.00  0.00    +0.000 N 
ATOM     13  C   UNL     1       5.302   6.767  16.025  0.00  0.00    +0.000 C 
ATOM     14  H   UNL     1       5.624   2.448  17.665  0.00  0.00    +0.000 HD
ENDROOT
BRANCH   1  19
ATOM     15  C   UNL     1       1.223   9.207  19.406  0.00  0.00    +0.000 A 
ATOM     16  N   UNL     1       0.470   9.870  20.298  0.00  0.00    +0.000 NA
ATOM     17  N   UNL     1       0.433   9.066  21.367  0.00  0.00    +0.000 N 
ATOM     18  C   UNL     1       1.124   7.908  21.200  0.00  0.00    +0.000 A 
ATOM     19  C   UNL     1       1.682   7.966  19.941  0.00  0.00    +0.000 A 
ATOM     20  H   UNL     1      -0.086   9.374  22.183  0.00  0.00    +0.000 HD
BRANCH  15  22
ATOM     21  C   UNL     1       2.155  11.145  18.029  0.00  0.00    +0.000 C 
ATOM     22  C   UNL     1       1.464   9.789  18.047  0.00  0.00    +0.000 C 
ENDBRANCH  15  22
ENDBRANCH   1  19
TORSDOF 2
ENDMDL
MODEL 9
REMARK VINA RESULT:      -6.6      4.261      6.776
REMARK  Name = 
REMARK  6 active torsions:
REMARK  status: ('A' for Active; 'I' for Inactive)
REMARK    1  A    between atoms: C_1  and  C_2
REMARK    2  A    between atoms: C_2  and  C_3
REMARK    3  A    between atoms: C_7  and  C_8
REMARK    4  A    between atoms: C_16  and  C_17
REMARK    5  A    between atoms: C_16  and  C_18
REMARK    6  A    between atoms: N_19  and  C_20
REMARK                            x       y       z     vdW  Elec       q    Type
REMARK                         _______ _______ _______ _____ _____    ______ ____
ROOT
ATOM      1  C   UNL     1       1.887   8.972  18.691  0.00  0.00    +0.000 A 
ATOM      2  C   UNL     1       2.745   8.352  17.803  0.00  0.00    +0.000 A 
ATOM      3  C   UNL     1       3.110   7.041  18.218  0.00  0.00    +0.000 A 
ATOM      4  C   UNL     1       2.498   6.700  19.393  0.00  0.00    +0.000 A 
ATOM      5  S   UNL     1       1.528   7.938  20.016  0.00  0.00    +0.000 S 
ATOM      6  C   UNL     1       2.642   5.425  20.019  0.00  0.00    +0.000 C 
ATOM      7  O   UNL     1       2.143   5.071  21.083  0.00  0.00    +0.000 OA
ATOM      8  N   UNL     1       3.390   4.537  19.296  0.00  0.00    +0.000 N 
ATOM      9  C   UNL     1       4.278   4.859  18.188  0.00  0.00    +0.000 C 
ATOM     10  C   UNL     1       5.721   4.875  18.717  0.00  0.00    +0.000 C 
ATOM     11  C   UNL     1       4.089   3.747  17.142  0.00  0.00    +0.000 C 
ATOM     12  N   UNL     1       3.943   6.166  17.579  0.00  0.00    +0.000 N 
ATOM     13  C   UNL     1       4.746   6.641  16.451  0.00  0.00    +0.000 C 
ATOM     14  H   UNL     1       3.512   3.653  19.767  0.00  0.00    +0.000 HD
ENDROOT
BRANCH   1  19
ATOM     15  C   UNL     1      -0.000  10.851  18.605  0.00  0.00    +0.000 A 
ATOM     16  N   UNL     1      -0.037  12.177  18.400  0.00  0.00    +0.000 NA
ATOM     17  N   UNL     1       1.246  12.527  18.245  0.00  0.00    +0.000 N 
ATOM     18  C   UNL     1       2.110  11.482  18.350  0.00  0.00    +0.000 A 
ATOM     19  C   UNL     1       1.339  10.360  18.558  0.00  0.00    +0.000 A 
ATOM     20  H   UNL     1       1.461  13.503  18.070  0.00  0.00    +0.000 HD
BRANCH  15  22
ATOM     21  C   UNL     1      -2.276  10.106  17.716  0.00  0.00    +0.000 C 
ATOM     22  C   UNL     1      -1.269  10.095  18.856  0.00  0.00    +0.000 C 
ENDBRANCH  15  22
ENDBRANCH   1  19
TORSDOF 2
ENDMDL
