MODEL 1
REMARK VINA RESULT:      -7.7      0.000      0.000
REMARK  Name = 
REMARK  5 active torsions:
REMARK  status: ('A' for Active; 'I' for Inactive)
REMARK    1  A    between atoms: O_1  and  C_2
REMARK    2  A    between atoms: C_5  and  C_6
REMARK    3  A    between atoms: C_10  and  O_11
REMARK    4  A    between atoms: C_13  and  O_14
REMARK    5  A    between atoms: C_17  and  O_18
REMARK                            x       y       z     vdW  Elec       q    Type
REMARK                         _______ _______ _______ _____ _____    ______ ____
ROOT
ATOM      1  C   UNL     1       2.706   4.016  18.130  0.00  0.00    +0.000 C 
ATOM      2  O   UNL     1       3.471   4.072  16.890  0.00  0.00    +0.000 OA
ATOM      3  C   UNL     1       4.839   4.081  17.053  0.00  0.00    +0.000 A 
ATOM      4  C   UNL     1       5.625   4.356  15.941  0.00  0.00    +0.000 A 
ATOM      5  C   UNL     1       6.829   5.015  16.151  0.00  0.00    +0.000 A 
ATOM      6  C   UNL     1       7.185   5.420  17.433  0.00  0.00    +0.000 A 
ATOM      7  C   UNL     1       6.476   4.911  18.518  0.00  0.00    +0.000 A 
ATOM      8  C   UNL     1       5.387   4.079  18.328  0.00  0.00    +0.000 A 
ATOM      9  C   UNL     1       4.747   3.238  19.392  0.00  0.00    +0.000 C 
ATOM     10  C   UNL     1       3.307   2.886  19.016  0.00  0.00    +0.000 C 
ENDROOT
BRANCH   1  14
ATOM     11  C   UNL     1       1.756   7.820  20.086  0.00  0.00    +0.000 A 
ATOM     12  C   UNL     1       2.264   7.774  18.800  0.00  0.00    +0.000 A 
ATOM     13  C   UNL     1       2.567   6.537  18.227  0.00  0.00    +0.000 A 
ATOM     14  C   UNL     1       2.379   5.313  18.909  0.00  0.00    +0.000 A 
ATOM     15  C   UNL     1       1.878   5.400  20.222  0.00  0.00    +0.000 A 
ATOM     16  C   UNL     1       1.550   6.644  20.798  0.00  0.00    +0.000 A 
BRANCH  11  17
ATOM     17  O   UNL     1       1.445   9.007  20.677  0.00  0.00    +0.000 OA
ATOM     18  H   UNL     1       1.431   9.717  20.008  0.00  0.00    +0.000 HD
ENDBRANCH  11  17
ENDBRANCH   1  14
BRANCH   5  19
ATOM     19  O   UNL     1       7.637   5.371  15.114  0.00  0.00    +0.000 OA
ATOM     20  H   UNL     1       7.369   6.254  14.803  0.00  0.00    +0.000 HD
ENDBRANCH   5  19
BRANCH   7  21
ATOM     21  O   UNL     1       6.739   5.373  19.773  0.00  0.00    +0.000 OA
ATOM     22  H   UNL     1       6.805   4.574  20.329  0.00  0.00    +0.000 HD
ENDBRANCH   7  21
BRANCH  10  23
ATOM     23  O   UNL     1       2.526   2.552  20.152  0.00  0.00    +0.000 OA
ATOM     24  H   UNL     1       1.598   2.760  19.938  0.00  0.00    +0.000 HD
ENDBRANCH  10  23
TORSDOF 5
ENDMDL
MODEL 2
REMARK VINA RESULT:      -7.5      0.212      1.088
REMARK  Name = 
REMARK  5 active torsions:
REMARK  status: ('A' for Active; 'I' for Inactive)
REMARK    1  A    between atoms: O_1  and  C_2
REMARK    2  A    between atoms: C_5  and  C_6
REMARK    3  A    between atoms: C_10  and  O_11
REMARK    4  A    between atoms: C_13  and  O_14
REMARK    5  A    between atoms: C_17  and  O_18
REMARK                            x       y       z     vdW  Elec       q    Type
REMARK                         _______ _______ _______ _____ _____    ______ ____
ROOT
ATOM      1  C   UNL     1       2.719   3.952  18.022  0.00  0.00    +0.000 C 
ATOM      2  O   UNL     1       3.509   3.976  16.796  0.00  0.00    +0.000 OA
ATOM      3  C   UNL     1       4.873   4.001  16.987  0.00  0.00    +0.000 A 
ATOM      4  C   UNL     1       5.681   4.248  15.883  0.00  0.00    +0.000 A 
ATOM      5  C   UNL     1       6.875   4.922  16.097  0.00  0.00    +0.000 A 
ATOM      6  C   UNL     1       7.202   5.369  17.372  0.00  0.00    +0.000 A 
ATOM      7  C   UNL     1       6.474   4.888  18.459  0.00  0.00    +0.000 A 
ATOM      8  C   UNL     1       5.395   4.042  18.272  0.00  0.00    +0.000 A 
ATOM      9  C   UNL     1       4.740   3.229  19.348  0.00  0.00    +0.000 C 
ATOM     10  C   UNL     1       3.311   2.854  18.954  0.00  0.00    +0.000 C 
ENDROOT
BRANCH   1  14
ATOM     11  C   UNL     1       1.731   7.540  20.335  0.00  0.00    +0.000 A 
ATOM     12  C   UNL     1       1.496   6.270  20.833  0.00  0.00    +0.000 A 
ATOM     13  C   UNL     1       1.812   5.158  20.049  0.00  0.00    +0.000 A 
ATOM     14  C   UNL     1       2.367   5.270  18.754  0.00  0.00    +0.000 A 
ATOM     15  C   UNL     1       2.574   6.577  18.273  0.00  0.00    +0.000 A 
ATOM     16  C   UNL     1       2.277   7.703  19.067  0.00  0.00    +0.000 A 
BRANCH  11  17
ATOM     17  O   UNL     1       1.438   8.648  21.071  0.00  0.00    +0.000 OA
ATOM     18  H   UNL     1       1.539   8.451  22.021  0.00  0.00    +0.000 HD
ENDBRANCH  11  17
ENDBRANCH   1  14
BRANCH   5  19
ATOM     19  O   UNL     1       7.701   5.252  15.066  0.00  0.00    +0.000 OA
ATOM     20  H   UNL     1       8.440   5.778  15.419  0.00  0.00    +0.000 HD
ENDBRANCH   5  19
BRANCH   7  21
ATOM     21  O   UNL     1       6.708   5.389  19.703  0.00  0.00    +0.000 OA
ATOM     22  H   UNL     1       5.941   5.962  19.895  0.00  0.00    +0.000 HD
ENDBRANCH   7  21
BRANCH  10  23
ATOM     23  O   UNL     1       2.509   2.549  20.084  0.00  0.00    +0.000 OA
ATOM     24  H   UNL     1       1.831   3.246  20.157  0.00  0.00    +0.000 HD
ENDBRANCH  10  23
TORSDOF 5
ENDMDL
MODEL 3
REMARK VINA RESULT:      -7.1      2.122      5.717
REMARK  Name = 
REMARK  5 active torsions:
REMARK  status: ('A' for Active; 'I' for Inactive)
REMARK    1  A    between atoms: O_1  and  C_2
REMARK    2  A    between atoms: C_5  and  C_6
REMARK    3  A    between atoms: C_10  and  O_11
REMARK    4  A    between atoms: C_13  and  O_14
REMARK    5  A    between atoms: C_17  and  O_18
REMARK                            x       y       z     vdW  Elec       q    Type
REMARK                         _______ _______ _______ _____ _____    ______ ____
ROOT
ATOM      1  C   UNL     1       4.990   5.669  18.147  0.00  0.00    +0.000 C 
ATOM      2  O   UNL     1       3.595   5.697  18.574  0.00  0.00    +0.000 OA
ATOM      3  C   UNL     1       3.142   4.530  19.148  0.00  0.00    +0.000 A 
ATOM      4  C   UNL     1       1.777   4.403  19.375  0.00  0.00    +0.000 A 
ATOM      5  C   UNL     1       1.226   3.132  19.293  0.00  0.00    +0.000 A 
ATOM      6  C   UNL     1       2.025   2.050  18.943  0.00  0.00    +0.000 A 
ATOM      7  C   UNL     1       3.410   2.204  18.962  0.00  0.00    +0.000 A 
ATOM      8  C   UNL     1       3.983   3.431  19.246  0.00  0.00    +0.000 A 
ATOM      9  C   UNL     1       5.425   3.650  19.594  0.00  0.00    +0.000 C 
ATOM     10  C   UNL     1       5.840   5.095  19.318  0.00  0.00    +0.000 C 
ENDROOT
BRANCH   1  14
ATOM     11  C   UNL     1       6.342   4.130  14.275  0.00  0.00    +0.000 A 
ATOM     12  C   UNL     1       7.081   5.062  14.982  0.00  0.00    +0.000 A 
ATOM     13  C   UNL     1       6.598   5.535  16.203  0.00  0.00    +0.000 A 
ATOM     14  C   UNL     1       5.373   5.102  16.760  0.00  0.00    +0.000 A 
ATOM     15  C   UNL     1       4.638   4.168  16.003  0.00  0.00    +0.000 A 
ATOM     16  C   UNL     1       5.131   3.671  14.779  0.00  0.00    +0.000 A 
BRANCH  11  17
ATOM     17  O   UNL     1       6.782   3.644  13.081  0.00  0.00    +0.000 OA
ATOM     18  H   UNL     1       7.756   3.674  13.049  0.00  0.00    +0.000 HD
ENDBRANCH  11  17
ENDBRANCH   1  14
BRANCH   5  19
ATOM     19  O   UNL     1      -0.111   2.923  19.449  0.00  0.00    +0.000 OA
ATOM     20  H   UNL     1      -0.319   2.020  19.151  0.00  0.00    +0.000 HD
ENDBRANCH   5  19
BRANCH   7  21
ATOM     21  O   UNL     1       4.208   1.191  18.523  0.00  0.00    +0.000 OA
ATOM     22  H   UNL     1       3.648   0.393  18.559  0.00  0.00    +0.000 HD
ENDBRANCH   7  21
BRANCH  10  23
ATOM     23  O   UNL     1       7.242   5.224  19.144  0.00  0.00    +0.000 OA
ATOM     24  H   UNL     1       7.451   6.176  19.167  0.00  0.00    +0.000 HD
ENDBRANCH  10  23
TORSDOF 5
ENDMDL
MODEL 4
REMARK VINA RESULT:      -7.0      2.173      5.725
REMARK  Name = 
REMARK  5 active torsions:
REMARK  status: ('A' for Active; 'I' for Inactive)
REMARK    1  A    between atoms: O_1  and  C_2
REMARK    2  A    between atoms: C_5  and  C_6
REMARK    3  A    between atoms: C_10  and  O_11
REMARK    4  A    between atoms: C_13  and  O_14
REMARK    5  A    between atoms: C_17  and  O_18
REMARK                            x       y       z     vdW  Elec       q    Type
REMARK                         _______ _______ _______ _____ _____    ______ ____
ROOT
ATOM      1  C   UNL     1       4.961   5.681  18.107  0.00  0.00    +0.000 C 
ATOM      2  O   UNL     1       3.532   5.654  18.399  0.00  0.00    +0.000 OA
ATOM      3  C   UNL     1       3.076   4.479  18.954  0.00  0.00    +0.000 A 
ATOM      4  C   UNL     1       1.702   4.296  19.053  0.00  0.00    +0.000 A 
ATOM      5  C   UNL     1       1.217   3.000  18.948  0.00  0.00    +0.000 A 
ATOM      6  C   UNL     1       2.091   1.948  18.701  0.00  0.00    +0.000 A 
ATOM      7  C   UNL     1       3.460   2.165  18.848  0.00  0.00    +0.000 A 
ATOM      8  C   UNL     1       3.950   3.421  19.157  0.00  0.00    +0.000 A 
ATOM      9  C   UNL     1       5.342   3.710  19.635  0.00  0.00    +0.000 C 
ATOM     10  C   UNL     1       5.719   5.168  19.367  0.00  0.00    +0.000 C 
ENDROOT
BRANCH   1  14
ATOM     11  C   UNL     1       6.220   4.025  14.251  0.00  0.00    +0.000 A 
ATOM     12  C   UNL     1       4.951   3.801  14.756  0.00  0.00    +0.000 A 
ATOM     13  C   UNL     1       4.604   4.336  15.998  0.00  0.00    +0.000 A 
ATOM     14  C   UNL     1       5.500   5.105  16.776  0.00  0.00    +0.000 A 
ATOM     15  C   UNL     1       6.788   5.296  16.239  0.00  0.00    +0.000 A 
ATOM     16  C   UNL     1       7.137   4.777  14.976  0.00  0.00    +0.000 A 
BRANCH  11  17
ATOM     17  O   UNL     1       6.593   3.522  13.042  0.00  0.00    +0.000 OA
ATOM     18  H   UNL     1       7.394   2.975  13.143  0.00  0.00    +0.000 HD
ENDBRANCH  11  17
ENDBRANCH   1  14
BRANCH   5  19
ATOM     19  O   UNL     1      -0.119   2.735  18.981  0.00  0.00    +0.000 OA
ATOM     20  H   UNL     1      -0.321   2.085  18.286  0.00  0.00    +0.000 HD
ENDBRANCH   5  19
BRANCH   7  21
ATOM     21  O   UNL     1       4.339   1.180  18.511  0.00  0.00    +0.000 OA
ATOM     22  H   UNL     1       4.294   1.122  17.538  0.00  0.00    +0.000 HD
ENDBRANCH   7  21
BRANCH  10  23
ATOM     23  O   UNL     1       7.124   5.356  19.324  0.00  0.00    +0.000 OA
ATOM     24  H   UNL     1       7.434   5.447  20.244  0.00  0.00    +0.000 HD
ENDBRANCH  10  23
TORSDOF 5
ENDMDL
MODEL 5
REMARK VINA RESULT:      -6.9      2.002      5.777
REMARK  Name = 
REMARK  5 active torsions:
REMARK  status: ('A' for Active; 'I' for Inactive)
REMARK    1  A    between atoms: O_1  and  C_2
REMARK    2  A    between atoms: C_5  and  C_6
REMARK    3  A    between atoms: C_10  and  O_11
REMARK    4  A    between atoms: C_13  and  O_14
REMARK    5  A    between atoms: C_17  and  O_18
REMARK                            x       y       z     vdW  Elec       q    Type
REMARK                         _______ _______ _______ _____ _____    ______ ____
ROOT
ATOM      1  C   UNL     1       5.414   6.517  17.378  0.00  0.00    +0.000 C 
ATOM      2  O   UNL     1       4.111   6.659  18.019  0.00  0.00    +0.000 OA
ATOM      3  C   UNL     1       3.847   5.731  19.003  0.00  0.00    +0.000 A 
ATOM      4  C   UNL     1       2.552   5.662  19.501  0.00  0.00    +0.000 A 
ATOM      5  C   UNL     1       2.090   4.423  19.924  0.00  0.00    +0.000 A 
ATOM      6  C   UNL     1       2.897   3.299  19.793  0.00  0.00    +0.000 A 
ATOM      7  C   UNL     1       4.250   3.474  19.511  0.00  0.00    +0.000 A 
ATOM      8  C   UNL     1       4.771   4.736  19.287  0.00  0.00    +0.000 A 
ATOM      9  C   UNL     1       6.231   5.079  19.281  0.00  0.00    +0.000 C 
ATOM     10  C   UNL     1       6.486   6.365  18.495  0.00  0.00    +0.000 C 
ENDROOT
BRANCH   1  14
ATOM     11  C   UNL     1       6.215   3.829  14.012  0.00  0.00    +0.000 A 
ATOM     12  C   UNL     1       7.013   4.931  14.265  0.00  0.00    +0.000 A 
ATOM     13  C   UNL     1       6.705   5.768  15.339  0.00  0.00    +0.000 A 
ATOM     14  C   UNL     1       5.601   5.540  16.193  0.00  0.00    +0.000 A 
ATOM     15  C   UNL     1       4.801   4.420  15.894  0.00  0.00    +0.000 A 
ATOM     16  C   UNL     1       5.119   3.560  14.824  0.00  0.00    +0.000 A 
BRANCH  11  17
ATOM     17  O   UNL     1       6.485   2.989  12.975  0.00  0.00    +0.000 OA
ATOM     18  H   UNL     1       5.958   2.173  13.063  0.00  0.00    +0.000 HD
ENDBRANCH  11  17
ENDBRANCH   1  14
BRANCH   5  19
ATOM     19  O   UNL     1       0.817   4.254  20.376  0.00  0.00    +0.000 OA
ATOM     20  H   UNL     1       0.531   3.348  20.163  0.00  0.00    +0.000 HD
ENDBRANCH   5  19
BRANCH   7  21
ATOM     21  O   UNL     1       5.037   2.387  19.276  0.00  0.00    +0.000 OA
ATOM     22  H   UNL     1       5.818   2.510  19.849  0.00  0.00    +0.000 HD
ENDBRANCH   7  21
BRANCH  10  23
ATOM     23  O   UNL     1       7.827   6.454  18.039  0.00  0.00    +0.000 OA
ATOM     24  H   UNL     1       7.797   6.601  17.075  0.00  0.00    +0.000 HD
ENDBRANCH  10  23
TORSDOF 5
ENDMDL
MODEL 6
REMARK VINA RESULT:      -6.8      2.187      3.731
REMARK  Name = 
REMARK  5 active torsions:
REMARK  status: ('A' for Active; 'I' for Inactive)
REMARK    1  A    between atoms: O_1  and  C_2
REMARK    2  A    between atoms: C_5  and  C_6
REMARK    3  A    between atoms: C_10  and  O_11
REMARK    4  A    between atoms: C_13  and  O_14
REMARK    5  A    between atoms: C_17  and  O_18
REMARK                            x       y       z     vdW  Elec       q    Type
REMARK                         _______ _______ _______ _____ _____    ______ ____
ROOT
ATOM      1  C   UNL     1       5.248   5.386  16.325  0.00  0.00    +0.000 C 
ATOM      2  O   UNL     1       5.870   6.702  16.231  0.00  0.00    +0.000 OA
ATOM      3  C   UNL     1       7.042   6.841  16.942  0.00  0.00    +0.000 A 
ATOM      4  C   UNL     1       7.571   8.118  17.083  0.00  0.00    +0.000 A 
ATOM      5  C   UNL     1       8.270   8.401  18.248  0.00  0.00    +0.000 A 
ATOM      6  C   UNL     1       8.376   7.438  19.245  0.00  0.00    +0.000 A 
ATOM      7  C   UNL     1       8.034   6.121  18.945  0.00  0.00    +0.000 A 
ATOM      8  C   UNL     1       7.522   5.786  17.704  0.00  0.00    +0.000 A 
ATOM      9  C   UNL     1       7.408   4.391  17.166  0.00  0.00    +0.000 C 
ATOM     10  C   UNL     1       6.349   4.316  16.066  0.00  0.00    +0.000 C 
ENDROOT
BRANCH   1  14
ATOM     11  C   UNL     1       2.539   4.173  19.547  0.00  0.00    +0.000 A 
ATOM     12  C   UNL     1       2.467   3.604  18.287  0.00  0.00    +0.000 A 
ATOM     13  C   UNL     1       3.341   4.038  17.289  0.00  0.00    +0.000 A 
ATOM     14  C   UNL     1       4.309   5.045  17.506  0.00  0.00    +0.000 A 
ATOM     15  C   UNL     1       4.340   5.615  18.794  0.00  0.00    +0.000 A 
ATOM     16  C   UNL     1       3.474   5.166  19.812  0.00  0.00    +0.000 A 
BRANCH  11  17
ATOM     17  O   UNL     1       1.704   3.774  20.547  0.00  0.00    +0.000 OA
ATOM     18  H   UNL     1       0.885   3.405  20.167  0.00  0.00    +0.000 HD
ENDBRANCH  11  17
ENDBRANCH   1  14
BRANCH   5  19
ATOM     19  O   UNL     1       8.776   9.641  18.492  0.00  0.00    +0.000 OA
ATOM     20  H   UNL     1       9.138   9.655  19.395  0.00  0.00    +0.000 HD
ENDBRANCH   5  19
BRANCH   7  21
ATOM     21  O   UNL     1       8.031   5.183  19.933  0.00  0.00    +0.000 OA
ATOM     22  H   UNL     1       7.435   5.538  20.619  0.00  0.00    +0.000 HD
ENDBRANCH   7  21
BRANCH  10  23
ATOM     23  O   UNL     1       5.855   2.997  15.891  0.00  0.00    +0.000 OA
ATOM     24  H   UNL     1       6.583   2.383  16.101  0.00  0.00    +0.000 HD
ENDBRANCH  10  23
TORSDOF 5
ENDMDL
MODEL 7
REMARK VINA RESULT:      -6.8      2.065      3.604
REMARK  Name = 
REMARK  5 active torsions:
REMARK  status: ('A' for Active; 'I' for Inactive)
REMARK    1  A    between atoms: O_1  and  C_2
REMARK    2  A    between atoms: C_5  and  C_6
REMARK    3  A    between atoms: C_10  and  O_11
REMARK    4  A    between atoms: C_13  and  O_14
REMARK    5  A    between atoms: C_17  and  O_18
REMARK                            x       y       z     vdW  Elec       q    Type
REMARK                         _______ _______ _______ _____ _____    ______ ____
ROOT
ATOM      1  C   UNL     1       5.268   5.434  16.156  0.00  0.00    +0.000 C 
ATOM      2  O   UNL     1       5.937   6.730  16.103  0.00  0.00    +0.000 OA
ATOM      3  C   UNL     1       7.072   6.827  16.877  0.00  0.00    +0.000 A 
ATOM      4  C   UNL     1       7.634   8.086  17.053  0.00  0.00    +0.000 A 
ATOM      5  C   UNL     1       8.277   8.342  18.256  0.00  0.00    +0.000 A 
ATOM      6  C   UNL     1       8.298   7.372  19.252  0.00  0.00    +0.000 A 
ATOM      7  C   UNL     1       7.929   6.069  18.928  0.00  0.00    +0.000 A 
ATOM      8  C   UNL     1       7.475   5.755  17.659  0.00  0.00    +0.000 A 
ATOM      9  C   UNL     1       7.345   4.366  17.108  0.00  0.00    +0.000 C 
ATOM     10  C   UNL     1       6.346   4.329  15.952  0.00  0.00    +0.000 C 
ENDROOT
BRANCH   1  14
ATOM     11  C   UNL     1       2.348   4.821  19.363  0.00  0.00    +0.000 A 
ATOM     12  C   UNL     1       2.974   6.041  19.178  0.00  0.00    +0.000 A 
ATOM     13  C   UNL     1       3.911   6.180  18.152  0.00  0.00    +0.000 A 
ATOM     14  C   UNL     1       4.256   5.120  17.283  0.00  0.00    +0.000 A 
ATOM     15  C   UNL     1       3.613   3.888  17.514  0.00  0.00    +0.000 A 
ATOM     16  C   UNL     1       2.651   3.747  18.534  0.00  0.00    +0.000 A 
BRANCH  11  17
ATOM     17  O   UNL     1       1.427   4.647  20.352  0.00  0.00    +0.000 OA
ATOM     18  H   UNL     1       0.754   4.000  20.068  0.00  0.00    +0.000 HD
ENDBRANCH  11  17
ENDBRANCH   1  14
BRANCH   5  19
ATOM     19  O   UNL     1       8.809   9.564  18.534  0.00  0.00    +0.000 OA
ATOM     20  H   UNL     1       8.259  10.244  18.106  0.00  0.00    +0.000 HD
ENDBRANCH   5  19
BRANCH   7  21
ATOM     21  O   UNL     1       7.843   5.127  19.909  0.00  0.00    +0.000 OA
ATOM     22  H   UNL     1       7.058   5.378  20.432  0.00  0.00    +0.000 HD
ENDBRANCH   7  21
BRANCH  10  23
ATOM     23  O   UNL     1       5.820   3.028  15.743  0.00  0.00    +0.000 OA
ATOM     24  H   UNL     1       5.915   2.538  16.581  0.00  0.00    +0.000 HD
ENDBRANCH  10  23
TORSDOF 5
ENDMDL
MODEL 8
REMARK VINA RESULT:      -6.7      2.030      5.808
REMARK  Name = 
REMARK  5 active torsions:
REMARK  status: ('A' for Active; 'I' for Inactive)
REMARK    1  A    between atoms: O_1  and  C_2
REMARK    2  A    between atoms: C_5  and  C_6
REMARK    3  A    between atoms: C_10  and  O_11
REMARK    4  A    between atoms: C_13  and  O_14
REMARK    5  A    between atoms: C_17  and  O_18
REMARK                            x       y       z     vdW  Elec       q    Type
REMARK                         _______ _______ _______ _____ _____    ______ ____
ROOT
ATOM      1  C   UNL     1       5.496   6.613  17.382  0.00  0.00    +0.000 C 
ATOM      2  O   UNL     1       4.143   6.691  17.920  0.00  0.00    +0.000 OA
ATOM      3  C   UNL     1       3.846   5.750  18.881  0.00  0.00    +0.000 A 
ATOM      4  C   UNL     1       2.521   5.618  19.276  0.00  0.00    +0.000 A 
ATOM      5  C   UNL     1       2.086   4.357  19.662  0.00  0.00    +0.000 A 
ATOM      6  C   UNL     1       2.954   3.273  19.595  0.00  0.00    +0.000 A 
ATOM      7  C   UNL     1       4.315   3.512  19.420  0.00  0.00    +0.000 A 
ATOM      8  C   UNL     1       4.792   4.799  19.237  0.00  0.00    +0.000 A 
ATOM      9  C   UNL     1       6.230   5.209  19.345  0.00  0.00    +0.000 C 
ATOM     10  C   UNL     1       6.485   6.509  18.580  0.00  0.00    +0.000 C 
ENDROOT
BRANCH   1  14
ATOM     11  C   UNL     1       6.142   3.843  14.049  0.00  0.00    +0.000 A 
ATOM     12  C   UNL     1       4.973   3.825  14.790  0.00  0.00    +0.000 A 
ATOM     13  C   UNL     1       4.823   4.717  15.854  0.00  0.00    +0.000 A 
ATOM     14  C   UNL     1       5.822   5.649  16.216  0.00  0.00    +0.000 A 
ATOM     15  C   UNL     1       7.005   5.626  15.453  0.00  0.00    +0.000 A 
ATOM     16  C   UNL     1       7.154   4.742  14.364  0.00  0.00    +0.000 A 
BRANCH  11  17
ATOM     17  O   UNL     1       6.323   2.990  13.003  0.00  0.00    +0.000 OA
ATOM     18  H   UNL     1       6.735   2.164  13.316  0.00  0.00    +0.000 HD
ENDBRANCH  11  17
ENDBRANCH   1  14
BRANCH   5  19
ATOM     19  O   UNL     1       0.791   4.127  20.014  0.00  0.00    +0.000 OA
ATOM     20  H   UNL     1       0.392   3.535  19.353  0.00  0.00    +0.000 HD
ENDBRANCH   5  19
BRANCH   7  21
ATOM     21  O   UNL     1       5.168   2.464  19.248  0.00  0.00    +0.000 OA
ATOM     22  H   UNL     1       4.897   1.805  19.915  0.00  0.00    +0.000 HD
ENDBRANCH   7  21
BRANCH  10  23
ATOM     23  O   UNL     1       7.851   6.662  18.229  0.00  0.00    +0.000 OA
ATOM     24  H   UNL     1       7.928   7.485  17.713  0.00  0.00    +0.000 HD
ENDBRANCH  10  23
TORSDOF 5
ENDMDL
MODEL 9
REMARK VINA RESULT:      -6.7      2.023      4.831
REMARK  Name = 
REMARK  5 active torsions:
REMARK  status: ('A' for Active; 'I' for Inactive)
REMARK    1  A    between atoms: O_1  and  C_2
REMARK    2  A    between atoms: C_5  and  C_6
REMARK    3  A    between atoms: C_10  and  O_11
REMARK    4  A    between atoms: C_13  and  O_14
REMARK    5  A    between atoms: C_17  and  O_18
REMARK                            x       y       z     vdW  Elec       q    Type
REMARK                         _______ _______ _______ _____ _____    ______ ____
ROOT
ATOM      1  C   UNL     1       4.814   4.731  18.595  0.00  0.00    +0.000 C 
ATOM      2  O   UNL     1       4.556   4.103  19.887  0.00  0.00    +0.000 OA
ATOM      3  C   UNL     1       3.466   3.262  19.915  0.00  0.00    +0.000 A 
ATOM      4  C   UNL     1       3.027   2.805  21.151  0.00  0.00    +0.000 A 
ATOM      5  C   UNL     1       1.669   2.566  21.304  0.00  0.00    +0.000 A 
ATOM      6  C   UNL     1       0.795   2.832  20.257  0.00  0.00    +0.000 A 
ATOM      7  C   UNL     1       1.319   3.058  18.986  0.00  0.00    +0.000 A 
ATOM      8  C   UNL     1       2.686   3.096  18.779  0.00  0.00    +0.000 A 
ATOM      9  C   UNL     1       3.359   3.024  17.441  0.00  0.00    +0.000 C 
ATOM     10  C   UNL     1       4.765   3.621  17.504  0.00  0.00    +0.000 C 
ENDROOT
BRANCH   1  14
ATOM     11  C   UNL     1       2.640   8.435  17.730  0.00  0.00    +0.000 A 
ATOM     12  C   UNL     1       2.282   7.615  18.786  0.00  0.00    +0.000 A 
ATOM     13  C   UNL     1       2.995   6.436  19.009  0.00  0.00    +0.000 A 
ATOM     14  C   UNL     1       4.080   6.033  18.197  0.00  0.00    +0.000 A 
ATOM     15  C   UNL     1       4.403   6.882  17.120  0.00  0.00    +0.000 A 
ATOM     16  C   UNL     1       3.700   8.085  16.902  0.00  0.00    +0.000 A 
BRANCH  11  17
ATOM     17  O   UNL     1       1.969   9.594  17.483  0.00  0.00    +0.000 OA
ATOM     18  H   UNL     1       2.380  10.327  17.977  0.00  0.00    +0.000 HD
ENDBRANCH  11  17
ENDBRANCH   1  14
BRANCH   5  19
ATOM     19  O   UNL     1       1.146   2.168  22.497  0.00  0.00    +0.000 OA
ATOM     20  H   UNL     1       1.229   2.902  23.131  0.00  0.00    +0.000 HD
ENDBRANCH   5  19
BRANCH   7  21
ATOM     21  O   UNL     1       0.489   3.422  17.969  0.00  0.00    +0.000 OA
ATOM     22  H   UNL     1       0.193   2.582  17.570  0.00  0.00    +0.000 HD
ENDBRANCH   7  21
BRANCH  10  23
ATOM     23  O   UNL     1       5.227   4.033  16.228  0.00  0.00    +0.000 OA
ATOM     24  H   UNL     1       6.116   4.415  16.349  0.00  0.00    +0.000 HD
ENDBRANCH  10  23
TORSDOF 5
ENDMDL
