MODEL 1
REMARK VINA RESULT:      -6.8      0.000      0.000
REMARK  Name = 
REMARK  16 active torsions:
REMARK  status: ('A' for Active; 'I' for Inactive)
REMARK    1  A    between atoms: C_1  and  C_2
REMARK    2  A    between atoms: C_2  and  C_3
REMARK    3  A    between atoms: C_3  and  C_4
REMARK    4  A    between atoms: C_4  and  C_5
REMARK    5  A    between atoms: C_5  and  O_6
REMARK    6  A    between atoms: O_6  and  C_7
REMARK    7  A    between atoms: C_7  and  C_9
REMARK    8  A    between atoms: C_9  and  S_10
REMARK    9  A    between atoms: S_10  and  C_11
REMARK   10  A    between atoms: C_14  and  C_15
REMARK   11  A    between atoms: C_17  and  O_18
REMARK   12  A    between atoms: O_18  and  C_19
REMARK   13  A    between atoms: C_20  and  O_21
REMARK   14  A    between atoms: O_21  and  C_22
REMARK   15  A    between atoms: C_23  and  O_24
REMARK   16  A    between atoms: O_24  and  C_25
REMARK                            x       y       z     vdW  Elec       q    Type
REMARK                         _______ _______ _______ _____ _____    ______ ____
ROOT
ATOM      1  C   UNL     1       7.792   7.103  18.213  0.00  0.00    +0.000 A 
ATOM      2  N   UNL     1       7.119   7.760  17.288  0.00  0.00    +0.000 NA
ATOM      3  N   UNL     1       7.568   9.066  17.333  0.00  0.00    +0.000 NA
ATOM      4  C   UNL     1       8.484   9.113  18.283  0.00  0.00    +0.000 A 
ATOM      5  O   UNL     1       8.665   7.906  18.897  0.00  0.00    +0.000 OA
ENDROOT
BRANCH   4   6
ATOM      6  C   UNL     1       9.279  10.241  18.757  0.00  0.00    +0.000 A 
ATOM      7  C   UNL     1       9.079  10.710  20.057  0.00  0.00    +0.000 A 
ATOM      8  C   UNL     1       9.822  11.781  20.566  0.00  0.00    +0.000 A 
ATOM      9  C   UNL     1      10.762  12.444  19.748  0.00  0.00    +0.000 A 
ATOM     10  C   UNL     1      10.960  11.993  18.422  0.00  0.00    +0.000 A 
ATOM     11  C   UNL     1      10.230  10.886  17.955  0.00  0.00    +0.000 A 
BRANCH   8  12
ATOM     12  O   UNL     1       9.660  12.240  21.853  0.00  0.00    +0.000 OA
ATOM     13  C   UNL     1       8.433  11.884  22.488  0.00  0.00    +0.000 C 
ENDBRANCH   8  12
BRANCH   9  14
ATOM     14  O   UNL     1      11.360  13.541  20.319  0.00  0.00    +0.000 OA
ATOM     15  C   UNL     1      10.756  14.814  20.122  0.00  0.00    +0.000 C 
ENDBRANCH   9  14
BRANCH  10  16
ATOM     16  O   UNL     1      11.836  12.690  17.632  0.00  0.00    +0.000 OA
ATOM     17  C   UNL     1      11.314  13.571  16.647  0.00  0.00    +0.000 C 
ENDBRANCH  10  16
ENDBRANCH   4   6
BRANCH   1  18
ATOM     18  S   UNL     1       7.624   5.404  18.551  0.00  0.00    +0.000 S 
BRANCH  18  19
ATOM     19  C   UNL     1       5.850   5.313  18.949  0.00  0.00    +0.000 C 
BRANCH  19  20
ATOM     20  C   UNL     1       5.092   4.387  18.020  0.00  0.00    +0.000 C 
ATOM     21  O   UNL     1       5.219   4.326  16.801  0.00  0.00    +0.000 OA
BRANCH  20  22
ATOM     22  O   UNL     1       4.180   3.664  18.735  0.00  0.00    +0.000 OA
BRANCH  22  23
ATOM     23  C   UNL     1       3.539   2.605  18.005  0.00  0.00    +0.000 C 
BRANCH  23  24
ATOM     24  C   UNL     1       2.017   2.575  18.151  0.00  0.00    +0.000 C 
BRANCH  24  25
ATOM     25  C   UNL     1       1.533   3.813  18.911  0.00  0.00    +0.000 C 
BRANCH  25  27
ATOM     26  C   UNL     1       1.767   3.152  21.330  0.00  0.00    +0.000 C 
ATOM     27  C   UNL     1       0.795   3.443  20.196  0.00  0.00    +0.000 C 
ENDBRANCH  25  27
ENDBRANCH  24  25
ENDBRANCH  23  24
ENDBRANCH  22  23
ENDBRANCH  20  22
ENDBRANCH  19  20
ENDBRANCH  18  19
ENDBRANCH   1  18
TORSDOF 12
ENDMDL
MODEL 2
REMARK VINA RESULT:      -6.7      0.737      2.582
REMARK  Name = 
REMARK  16 active torsions:
REMARK  status: ('A' for Active; 'I' for Inactive)
REMARK    1  A    between atoms: C_1  and  C_2
REMARK    2  A    between atoms: C_2  and  C_3
REMARK    3  A    between atoms: C_3  and  C_4
REMARK    4  A    between atoms: C_4  and  C_5
REMARK    5  A    between atoms: C_5  and  O_6
REMARK    6  A    between atoms: O_6  and  C_7
REMARK    7  A    between atoms: C_7  and  C_9
REMARK    8  A    between atoms: C_9  and  S_10
REMARK    9  A    between atoms: S_10  and  C_11
REMARK   10  A    between atoms: C_14  and  C_15
REMARK   11  A    between atoms: C_17  and  O_18
REMARK   12  A    between atoms: O_18  and  C_19
REMARK   13  A    between atoms: C_20  and  O_21
REMARK   14  A    between atoms: O_21  and  C_22
REMARK   15  A    between atoms: C_23  and  O_24
REMARK   16  A    between atoms: O_24  and  C_25
REMARK                            x       y       z     vdW  Elec       q    Type
REMARK                         _______ _______ _______ _____ _____    ______ ____
ROOT
ATOM      1  C   UNL     1       7.644   7.125  17.914  0.00  0.00    +0.000 A 
ATOM      2  N   UNL     1       6.967   7.863  17.055  0.00  0.00    +0.000 NA
ATOM      3  N   UNL     1       7.423   9.157  17.208  0.00  0.00    +0.000 NA
ATOM      4  C   UNL     1       8.348   9.119  18.149  0.00  0.00    +0.000 A 
ATOM      5  O   UNL     1       8.528   7.862  18.657  0.00  0.00    +0.000 OA
ENDROOT
BRANCH   4   6
ATOM      6  C   UNL     1       9.153  10.198  18.711  0.00  0.00    +0.000 A 
ATOM      7  C   UNL     1      10.128  10.801  17.913  0.00  0.00    +0.000 A 
ATOM      8  C   UNL     1      10.920  11.847  18.398  0.00  0.00    +0.000 A 
ATOM      9  C   UNL     1      10.778  12.284  19.732  0.00  0.00    +0.000 A 
ATOM     10  C   UNL     1       9.809  11.670  20.559  0.00  0.00    +0.000 A 
ATOM     11  C   UNL     1       8.997  10.651  20.028  0.00  0.00    +0.000 A 
BRANCH   8  12
ATOM     12  O   UNL     1      11.867  12.472  17.619  0.00  0.00    +0.000 OA
ATOM     13  C   UNL     1      11.368  13.423  16.680  0.00  0.00    +0.000 C 
ENDBRANCH   8  12
BRANCH   9  14
ATOM     14  O   UNL     1      11.674  13.248  20.128  0.00  0.00    +0.000 OA
ATOM     15  C   UNL     1      11.218  14.593  20.214  0.00  0.00    +0.000 C 
ENDBRANCH   9  14
BRANCH  10  16
ATOM     16  O   UNL     1       9.731  12.074  21.865  0.00  0.00    +0.000 OA
ATOM     17  C   UNL     1       8.469  12.035  22.518  0.00  0.00    +0.000 C 
ENDBRANCH  10  16
ENDBRANCH   4   6
BRANCH   1  18
ATOM     18  S   UNL     1       7.470   5.404  18.106  0.00  0.00    +0.000 S 
BRANCH  18  19
ATOM     19  C   UNL     1       6.217   5.337  19.424  0.00  0.00    +0.000 C 
BRANCH  19  20
ATOM     20  C   UNL     1       4.809   5.206  18.882  0.00  0.00    +0.000 C 
ATOM     21  O   UNL     1       4.098   6.127  18.493  0.00  0.00    +0.000 OA
BRANCH  20  22
ATOM     22  O   UNL     1       4.408   3.902  18.952  0.00  0.00    +0.000 OA
BRANCH  22  23
ATOM     23  C   UNL     1       3.969   3.335  17.707  0.00  0.00    +0.000 C 
BRANCH  23  24
ATOM     24  C   UNL     1       3.169   2.041  17.855  0.00  0.00    +0.000 C 
BRANCH  24  25
ATOM     25  C   UNL     1       2.362   2.063  19.157  0.00  0.00    +0.000 C 
BRANCH  25  27
ATOM     26  C   UNL     1       0.972   3.925  20.130  0.00  0.00    +0.000 C 
ATOM     27  C   UNL     1       1.083   2.887  19.023  0.00  0.00    +0.000 C 
ENDBRANCH  25  27
ENDBRANCH  24  25
ENDBRANCH  23  24
ENDBRANCH  22  23
ENDBRANCH  20  22
ENDBRANCH  19  20
ENDBRANCH  18  19
ENDBRANCH   1  18
TORSDOF 12
ENDMDL
MODEL 3
REMARK VINA RESULT:      -6.5      6.189      9.978
REMARK  Name = 
REMARK  16 active torsions:
REMARK  status: ('A' for Active; 'I' for Inactive)
REMARK    1  A    between atoms: C_1  and  C_2
REMARK    2  A    between atoms: C_2  and  C_3
REMARK    3  A    between atoms: C_3  and  C_4
REMARK    4  A    between atoms: C_4  and  C_5
REMARK    5  A    between atoms: C_5  and  O_6
REMARK    6  A    between atoms: O_6  and  C_7
REMARK    7  A    between atoms: C_7  and  C_9
REMARK    8  A    between atoms: C_9  and  S_10
REMARK    9  A    between atoms: S_10  and  C_11
REMARK   10  A    between atoms: C_14  and  C_15
REMARK   11  A    between atoms: C_17  and  O_18
REMARK   12  A    between atoms: O_18  and  C_19
REMARK   13  A    between atoms: C_20  and  O_21
REMARK   14  A    between atoms: O_21  and  C_22
REMARK   15  A    between atoms: C_23  and  O_24
REMARK   16  A    between atoms: O_24  and  C_25
REMARK                            x       y       z     vdW  Elec       q    Type
REMARK                         _______ _______ _______ _____ _____    ______ ____
ROOT
ATOM      1  C   UNL     1       1.425   9.756  18.847  0.00  0.00    +0.000 A 
ATOM      2  N   UNL     1       1.830   9.937  17.605  0.00  0.00    +0.000 NA
ATOM      3  N   UNL     1       2.417   8.750  17.211  0.00  0.00    +0.000 NA
ATOM      4  C   UNL     1       2.328   7.929  18.240  0.00  0.00    +0.000 A 
ATOM      5  O   UNL     1       1.725   8.507  19.322  0.00  0.00    +0.000 OA
ENDROOT
BRANCH   4   6
ATOM      6  C   UNL     1       2.787   6.551  18.377  0.00  0.00    +0.000 A 
ATOM      7  C   UNL     1       4.089   6.313  18.824  0.00  0.00    +0.000 A 
ATOM      8  C   UNL     1       4.577   5.012  18.984  0.00  0.00    +0.000 A 
ATOM      9  C   UNL     1       3.769   3.905  18.646  0.00  0.00    +0.000 A 
ATOM     10  C   UNL     1       2.455   4.130  18.172  0.00  0.00    +0.000 A 
ATOM     11  C   UNL     1       1.979   5.449  18.066  0.00  0.00    +0.000 A 
BRANCH   8  12
ATOM     12  O   UNL     1       5.847   4.756  19.449  0.00  0.00    +0.000 OA
ATOM     13  C   UNL     1       6.892   5.519  18.847  0.00  0.00    +0.000 C 
ENDBRANCH   8  12
BRANCH   9  14
ATOM     14  O   UNL     1       4.385   2.682  18.749  0.00  0.00    +0.000 OA
ATOM     15  C   UNL     1       4.323   2.001  19.997  0.00  0.00    +0.000 C 
ENDBRANCH   9  14
BRANCH  10  16
ATOM     16  O   UNL     1       1.714   3.041  17.798  0.00  0.00    +0.000 OA
ATOM     17  C   UNL     1       0.858   2.436  18.758  0.00  0.00    +0.000 C 
ENDBRANCH  10  16
ENDBRANCH   4   6
BRANCH   1  18
ATOM     18  S   UNL     1       0.591  10.945  19.807  0.00  0.00    +0.000 S 
BRANCH  18  19
ATOM     19  C   UNL     1      -0.209   9.878  21.045  0.00  0.00    +0.000 C 
BRANCH  19  20
ATOM     20  C   UNL     1       0.506   9.897  22.380  0.00  0.00    +0.000 C 
ATOM     21  O   UNL     1       1.627   9.453  22.604  0.00  0.00    +0.000 OA
BRANCH  20  22
ATOM     22  O   UNL     1      -0.317  10.426  23.334  0.00  0.00    +0.000 OA
BRANCH  22  23
ATOM     23  C   UNL     1      -1.005  11.625  22.944  0.00  0.00    +0.000 C 
BRANCH  23  24
ATOM     24  C   UNL     1      -2.436  11.727  23.471  0.00  0.00    +0.000 C 
BRANCH  24  25
ATOM     25  C   UNL     1      -3.289  12.581  22.528  0.00  0.00    +0.000 C 
BRANCH  25  27
ATOM     26  C   UNL     1      -4.781  12.526  24.557  0.00  0.00    +0.000 C 
ATOM     27  C   UNL     1      -4.453  13.248  23.258  0.00  0.00    +0.000 C 
ENDBRANCH  25  27
ENDBRANCH  24  25
ENDBRANCH  23  24
ENDBRANCH  22  23
ENDBRANCH  20  22
ENDBRANCH  19  20
ENDBRANCH  18  19
ENDBRANCH   1  18
TORSDOF 12
ENDMDL
MODEL 4
REMARK VINA RESULT:      -6.5      0.863      2.664
REMARK  Name = 
REMARK  16 active torsions:
REMARK  status: ('A' for Active; 'I' for Inactive)
REMARK    1  A    between atoms: C_1  and  C_2
REMARK    2  A    between atoms: C_2  and  C_3
REMARK    3  A    between atoms: C_3  and  C_4
REMARK    4  A    between atoms: C_4  and  C_5
REMARK    5  A    between atoms: C_5  and  O_6
REMARK    6  A    between atoms: O_6  and  C_7
REMARK    7  A    between atoms: C_7  and  C_9
REMARK    8  A    between atoms: C_9  and  S_10
REMARK    9  A    between atoms: S_10  and  C_11
REMARK   10  A    between atoms: C_14  and  C_15
REMARK   11  A    between atoms: C_17  and  O_18
REMARK   12  A    between atoms: O_18  and  C_19
REMARK   13  A    between atoms: C_20  and  O_21
REMARK   14  A    between atoms: O_21  and  C_22
REMARK   15  A    between atoms: C_23  and  O_24
REMARK   16  A    between atoms: O_24  and  C_25
REMARK                            x       y       z     vdW  Elec       q    Type
REMARK                         _______ _______ _______ _____ _____    ______ ____
ROOT
ATOM      1  C   UNL     1       7.836   7.189  18.199  0.00  0.00    +0.000 A 
ATOM      2  N   UNL     1       7.271   7.833  17.196  0.00  0.00    +0.000 NA
ATOM      3  N   UNL     1       7.742   9.130  17.252  0.00  0.00    +0.000 NA
ATOM      4  C   UNL     1       8.563   9.186  18.285  0.00  0.00    +0.000 A 
ATOM      5  O   UNL     1       8.656   7.993  18.945  0.00  0.00    +0.000 OA
ENDROOT
BRANCH   4   6
ATOM      6  C   UNL     1       9.333  10.311  18.805  0.00  0.00    +0.000 A 
ATOM      7  C   UNL     1      10.282  10.920  17.980  0.00  0.00    +0.000 A 
ATOM      8  C   UNL     1      11.039  12.009  18.424  0.00  0.00    +0.000 A 
ATOM      9  C   UNL     1      10.890  12.485  19.744  0.00  0.00    +0.000 A 
ATOM     10  C   UNL     1       9.948  11.865  20.598  0.00  0.00    +0.000 A 
ATOM     11  C   UNL     1       9.169  10.802  20.107  0.00  0.00    +0.000 A 
BRANCH   8  12
ATOM     12  O   UNL     1      11.959  12.640  17.619  0.00  0.00    +0.000 OA
ATOM     13  C   UNL     1      11.418  13.436  16.565  0.00  0.00    +0.000 C 
ENDBRANCH   8  12
BRANCH   9  14
ATOM     14  O   UNL     1      11.753  13.492  20.101  0.00  0.00    +0.000 OA
ATOM     15  C   UNL     1      11.250  14.822  20.153  0.00  0.00    +0.000 C 
ENDBRANCH   9  14
BRANCH  10  16
ATOM     16  O   UNL     1       9.864  12.310  21.891  0.00  0.00    +0.000 OA
ATOM     17  C   UNL     1       8.622  12.196  22.572  0.00  0.00    +0.000 C 
ENDBRANCH  10  16
ENDBRANCH   4   6
BRANCH   1  18
ATOM     18  S   UNL     1       7.599   5.503  18.563  0.00  0.00    +0.000 S 
BRANCH  18  19
ATOM     19  C   UNL     1       6.993   4.894  16.959  0.00  0.00    +0.000 C 
BRANCH  19  20
ATOM     20  C   UNL     1       5.482   4.814  16.899  0.00  0.00    +0.000 C 
ATOM     21  O   UNL     1       4.711   5.767  16.859  0.00  0.00    +0.000 OA
BRANCH  20  22
ATOM     22  O   UNL     1       5.088   3.507  16.967  0.00  0.00    +0.000 OA
BRANCH  22  23
ATOM     23  C   UNL     1       4.001   3.248  17.871  0.00  0.00    +0.000 C 
BRANCH  23  24
ATOM     24  C   UNL     1       4.315   3.562  19.334  0.00  0.00    +0.000 C 
BRANCH  24  25
ATOM     25  C   UNL     1       3.275   4.534  19.902  0.00  0.00    +0.000 C 
BRANCH  25  27
ATOM     26  C   UNL     1       0.896   3.775  20.225  0.00  0.00    +0.000 C 
ATOM     27  C   UNL     1       2.289   3.834  20.834  0.00  0.00    +0.000 C 
ENDBRANCH  25  27
ENDBRANCH  24  25
ENDBRANCH  23  24
ENDBRANCH  22  23
ENDBRANCH  20  22
ENDBRANCH  19  20
ENDBRANCH  18  19
ENDBRANCH   1  18
TORSDOF 12
ENDMDL
MODEL 5
REMARK VINA RESULT:      -6.4      0.928      1.041
REMARK  Name = 
REMARK  16 active torsions:
REMARK  status: ('A' for Active; 'I' for Inactive)
REMARK    1  A    between atoms: C_1  and  C_2
REMARK    2  A    between atoms: C_2  and  C_3
REMARK    3  A    between atoms: C_3  and  C_4
REMARK    4  A    between atoms: C_4  and  C_5
REMARK    5  A    between atoms: C_5  and  O_6
REMARK    6  A    between atoms: O_6  and  C_7
REMARK    7  A    between atoms: C_7  and  C_9
REMARK    8  A    between atoms: C_9  and  S_10
REMARK    9  A    between atoms: S_10  and  C_11
REMARK   10  A    between atoms: C_14  and  C_15
REMARK   11  A    between atoms: C_17  and  O_18
REMARK   12  A    between atoms: O_18  and  C_19
REMARK   13  A    between atoms: C_20  and  O_21
REMARK   14  A    between atoms: O_21  and  C_22
REMARK   15  A    between atoms: C_23  and  O_24
REMARK   16  A    between atoms: O_24  and  C_25
REMARK                            x       y       z     vdW  Elec       q    Type
REMARK                         _______ _______ _______ _____ _____    ______ ____
ROOT
ATOM      1  C   UNL     1       7.803   7.167  18.205  0.00  0.00    +0.000 A 
ATOM      2  N   UNL     1       7.179   7.824  17.246  0.00  0.00    +0.000 NA
ATOM      3  N   UNL     1       7.661   9.118  17.283  0.00  0.00    +0.000 NA
ATOM      4  C   UNL     1       8.545   9.160  18.262  0.00  0.00    +0.000 A 
ATOM      5  O   UNL     1       8.673   7.960  18.905  0.00  0.00    +0.000 OA
ENDROOT
BRANCH   4   6
ATOM      6  C   UNL     1       9.353  10.276  18.743  0.00  0.00    +0.000 A 
ATOM      7  C   UNL     1       9.159  10.739  20.046  0.00  0.00    +0.000 A 
ATOM      8  C   UNL     1       9.914  11.798  20.561  0.00  0.00    +0.000 A 
ATOM      9  C   UNL     1      10.861  12.455  19.746  0.00  0.00    +0.000 A 
ATOM     10  C   UNL     1      11.054  12.011  18.418  0.00  0.00    +0.000 A 
ATOM     11  C   UNL     1      10.312  10.914  17.944  0.00  0.00    +0.000 A 
BRANCH   8  12
ATOM     12  O   UNL     1       9.757  12.252  21.850  0.00  0.00    +0.000 OA
ATOM     13  C   UNL     1       8.487  11.996  22.447  0.00  0.00    +0.000 C 
ENDBRANCH   8  12
BRANCH   9  14
ATOM     14  O   UNL     1      11.472  13.542  20.324  0.00  0.00    +0.000 OA
ATOM     15  C   UNL     1      10.935  14.833  20.059  0.00  0.00    +0.000 C 
ENDBRANCH   9  14
BRANCH  10  16
ATOM     16  O   UNL     1      11.938  12.702  17.632  0.00  0.00    +0.000 OA
ATOM     17  C   UNL     1      11.431  13.469  16.548  0.00  0.00    +0.000 C 
ENDBRANCH  10  16
ENDBRANCH   4   6
BRANCH   1  18
ATOM     18  S   UNL     1       7.580   5.480  18.568  0.00  0.00    +0.000 S 
BRANCH  18  19
ATOM     19  C   UNL     1       7.255   4.817  16.904  0.00  0.00    +0.000 C 
BRANCH  19  20
ATOM     20  C   UNL     1       5.798   4.928  16.507  0.00  0.00    +0.000 C 
ATOM     21  O   UNL     1       5.374   5.289  15.414  0.00  0.00    +0.000 OA
BRANCH  20  22
ATOM     22  O   UNL     1       5.005   4.630  17.579  0.00  0.00    +0.000 OA
BRANCH  22  23
ATOM     23  C   UNL     1       4.236   3.423  17.447  0.00  0.00    +0.000 C 
BRANCH  23  24
ATOM     24  C   UNL     1       3.201   3.215  18.553  0.00  0.00    +0.000 C 
BRANCH  24  25
ATOM     25  C   UNL     1       3.459   4.186  19.709  0.00  0.00    +0.000 C 
BRANCH  25  27
ATOM     26  C   UNL     1       1.070   3.894  20.451  0.00  0.00    +0.000 C 
ATOM     27  C   UNL     1       2.180   4.891  20.158  0.00  0.00    +0.000 C 
ENDBRANCH  25  27
ENDBRANCH  24  25
ENDBRANCH  23  24
ENDBRANCH  22  23
ENDBRANCH  20  22
ENDBRANCH  19  20
ENDBRANCH  18  19
ENDBRANCH   1  18
TORSDOF 12
ENDMDL
MODEL 6
REMARK VINA RESULT:      -6.3      6.298     10.054
REMARK  Name = 
REMARK  16 active torsions:
REMARK  status: ('A' for Active; 'I' for Inactive)
REMARK    1  A    between atoms: C_1  and  C_2
REMARK    2  A    between atoms: C_2  and  C_3
REMARK    3  A    between atoms: C_3  and  C_4
REMARK    4  A    between atoms: C_4  and  C_5
REMARK    5  A    between atoms: C_5  and  O_6
REMARK    6  A    between atoms: O_6  and  C_7
REMARK    7  A    between atoms: C_7  and  C_9
REMARK    8  A    between atoms: C_9  and  S_10
REMARK    9  A    between atoms: S_10  and  C_11
REMARK   10  A    between atoms: C_14  and  C_15
REMARK   11  A    between atoms: C_17  and  O_18
REMARK   12  A    between atoms: O_18  and  C_19
REMARK   13  A    between atoms: C_20  and  O_21
REMARK   14  A    between atoms: O_21  and  C_22
REMARK   15  A    between atoms: C_23  and  O_24
REMARK   16  A    between atoms: O_24  and  C_25
REMARK                            x       y       z     vdW  Elec       q    Type
REMARK                         _______ _______ _______ _____ _____    ______ ____
ROOT
ATOM      1  C   UNL     1       1.441   9.617  19.266  0.00  0.00    +0.000 A 
ATOM      2  N   UNL     1       1.761  10.008  18.048  0.00  0.00    +0.000 NA
ATOM      3  N   UNL     1       2.278   8.900  17.406  0.00  0.00    +0.000 NA
ATOM      4  C   UNL     1       2.236   7.909  18.278  0.00  0.00    +0.000 A 
ATOM      5  O   UNL     1       1.733   8.297  19.488  0.00  0.00    +0.000 OA
ENDROOT
BRANCH   4   6
ATOM      6  C   UNL     1       2.658   6.520  18.132  0.00  0.00    +0.000 A 
ATOM      7  C   UNL     1       4.020   6.237  18.009  0.00  0.00    +0.000 A 
ATOM      8  C   UNL     1       4.481   4.922  17.878  0.00  0.00    +0.000 A 
ATOM      9  C   UNL     1       3.562   3.852  17.821  0.00  0.00    +0.000 A 
ATOM     10  C   UNL     1       2.178   4.125  17.924  0.00  0.00    +0.000 A 
ATOM     11  C   UNL     1       1.750   5.453  18.100  0.00  0.00    +0.000 A 
BRANCH   8  12
ATOM     12  O   UNL     1       5.819   4.620  17.782  0.00  0.00    +0.000 OA
ATOM     13  C   UNL     1       6.663   5.222  18.763  0.00  0.00    +0.000 C 
ENDBRANCH   8  12
BRANCH   9  14
ATOM     14  O   UNL     1       4.120   2.618  17.592  0.00  0.00    +0.000 OA
ATOM     15  C   UNL     1       4.038   1.642  18.625  0.00  0.00    +0.000 C 
ENDBRANCH   9  14
BRANCH  10  16
ATOM     16  O   UNL     1       1.307   3.075  17.808  0.00  0.00    +0.000 OA
ATOM     17  C   UNL     1       0.611   2.634  18.966  0.00  0.00    +0.000 C 
ENDBRANCH  10  16
ENDBRANCH   4   6
BRANCH   1  18
ATOM     18  S   UNL     1       0.719  10.630  20.483  0.00  0.00    +0.000 S 
BRANCH  18  19
ATOM     19  C   UNL     1      -0.992  10.726  19.871  0.00  0.00    +0.000 C 
BRANCH  19  20
ATOM     20  C   UNL     1      -1.270  12.007  19.114  0.00  0.00    +0.000 C 
ATOM     21  O   UNL     1      -1.343  13.131  19.600  0.00  0.00    +0.000 OA
BRANCH  20  22
ATOM     22  O   UNL     1      -1.500  11.723  17.797  0.00  0.00    +0.000 OA
BRANCH  22  23
ATOM     23  C   UNL     1      -1.847  10.355  17.524  0.00  0.00    +0.000 C 
BRANCH  23  24
ATOM     24  C   UNL     1      -3.254  10.166  16.959  0.00  0.00    +0.000 C 
BRANCH  24  25
ATOM     25  C   UNL     1      -3.389  10.893  15.617  0.00  0.00    +0.000 C 
BRANCH  25  27
ATOM     26  C   UNL     1      -4.013   9.913  13.383  0.00  0.00    +0.000 C 
ATOM     27  C   UNL     1      -2.932  10.022  14.448  0.00  0.00    +0.000 C 
ENDBRANCH  25  27
ENDBRANCH  24  25
ENDBRANCH  23  24
ENDBRANCH  22  23
ENDBRANCH  20  22
ENDBRANCH  19  20
ENDBRANCH  18  19
ENDBRANCH   1  18
TORSDOF 12
ENDMDL
MODEL 7
REMARK VINA RESULT:      -6.3      6.775      9.982
REMARK  Name = 
REMARK  16 active torsions:
REMARK  status: ('A' for Active; 'I' for Inactive)
REMARK    1  A    between atoms: C_1  and  C_2
REMARK    2  A    between atoms: C_2  and  C_3
REMARK    3  A    between atoms: C_3  and  C_4
REMARK    4  A    between atoms: C_4  and  C_5
REMARK    5  A    between atoms: C_5  and  O_6
REMARK    6  A    between atoms: O_6  and  C_7
REMARK    7  A    between atoms: C_7  and  C_9
REMARK    8  A    between atoms: C_9  and  S_10
REMARK    9  A    between atoms: S_10  and  C_11
REMARK   10  A    between atoms: C_14  and  C_15
REMARK   11  A    between atoms: C_17  and  O_18
REMARK   12  A    between atoms: O_18  and  C_19
REMARK   13  A    between atoms: C_20  and  O_21
REMARK   14  A    between atoms: O_21  and  C_22
REMARK   15  A    between atoms: C_23  and  O_24
REMARK   16  A    between atoms: O_24  and  C_25
REMARK                            x       y       z     vdW  Elec       q    Type
REMARK                         _______ _______ _______ _____ _____    ______ ____
ROOT
ATOM      1  C   UNL     1       1.268   9.596  19.202  0.00  0.00    +0.000 A 
ATOM      2  N   UNL     1       1.694   9.876  17.986  0.00  0.00    +0.000 NA
ATOM      3  N   UNL     1       2.352   8.749  17.535  0.00  0.00    +0.000 NA
ATOM      4  C   UNL     1       2.281   7.860  18.508  0.00  0.00    +0.000 A 
ATOM      5  O   UNL     1       1.622   8.337  19.607  0.00  0.00    +0.000 OA
ENDROOT
BRANCH   4   6
ATOM      6  C   UNL     1       2.809   6.501  18.572  0.00  0.00    +0.000 A 
ATOM      7  C   UNL     1       2.487   5.701  19.671  0.00  0.00    +0.000 A 
ATOM      8  C   UNL     1       2.957   4.388  19.776  0.00  0.00    +0.000 A 
ATOM      9  C   UNL     1       3.814   3.860  18.786  0.00  0.00    +0.000 A 
ATOM     10  C   UNL     1       4.166   4.665  17.678  0.00  0.00    +0.000 A 
ATOM     11  C   UNL     1       3.640   5.966  17.578  0.00  0.00    +0.000 A 
BRANCH   8  12
ATOM     12  O   UNL     1       2.631   3.574  20.837  0.00  0.00    +0.000 OA
ATOM     13  C   UNL     1       1.261   3.182  20.918  0.00  0.00    +0.000 C 
ENDBRANCH   8  12
BRANCH   9  14
ATOM     14  O   UNL     1       4.292   2.598  19.044  0.00  0.00    +0.000 OA
ATOM     15  C   UNL     1       3.625   1.492  18.447  0.00  0.00    +0.000 C 
ENDBRANCH   9  14
BRANCH  10  16
ATOM     16  O   UNL     1       5.043   4.148  16.763  0.00  0.00    +0.000 OA
ATOM     17  C   UNL     1       6.402   4.561  16.812  0.00  0.00    +0.000 C 
ENDBRANCH  10  16
ENDBRANCH   4   6
BRANCH   1  18
ATOM     18  S   UNL     1       0.348  10.677  20.210  0.00  0.00    +0.000 S 
BRANCH  18  19
ATOM     19  C   UNL     1      -0.346   9.504  21.417  0.00  0.00    +0.000 C 
BRANCH  19  20
ATOM     20  C   UNL     1      -0.337  10.049  22.830  0.00  0.00    +0.000 C 
ATOM     21  O   UNL     1       0.508   9.813  23.687  0.00  0.00    +0.000 OA
BRANCH  20  22
ATOM     22  O   UNL     1      -1.459  10.798  23.042  0.00  0.00    +0.000 OA
BRANCH  22  23
ATOM     23  C   UNL     1      -1.257  12.220  22.993  0.00  0.00    +0.000 C 
BRANCH  23  24
ATOM     24  C   UNL     1      -2.487  13.042  23.379  0.00  0.00    +0.000 C 
BRANCH  24  25
ATOM     25  C   UNL     1      -3.009  13.817  22.165  0.00  0.00    +0.000 C 
BRANCH  25  27
ATOM     26  C   UNL     1      -3.662  12.610  20.053  0.00  0.00    +0.000 C 
ATOM     27  C   UNL     1      -2.517  13.216  20.850  0.00  0.00    +0.000 C 
ENDBRANCH  25  27
ENDBRANCH  24  25
ENDBRANCH  23  24
ENDBRANCH  22  23
ENDBRANCH  20  22
ENDBRANCH  19  20
ENDBRANCH  18  19
ENDBRANCH   1  18
TORSDOF 12
ENDMDL
MODEL 8
REMARK VINA RESULT:      -6.3      6.244      9.962
REMARK  Name = 
REMARK  16 active torsions:
REMARK  status: ('A' for Active; 'I' for Inactive)
REMARK    1  A    between atoms: C_1  and  C_2
REMARK    2  A    between atoms: C_2  and  C_3
REMARK    3  A    between atoms: C_3  and  C_4
REMARK    4  A    between atoms: C_4  and  C_5
REMARK    5  A    between atoms: C_5  and  O_6
REMARK    6  A    between atoms: O_6  and  C_7
REMARK    7  A    between atoms: C_7  and  C_9
REMARK    8  A    between atoms: C_9  and  S_10
REMARK    9  A    between atoms: S_10  and  C_11
REMARK   10  A    between atoms: C_14  and  C_15
REMARK   11  A    between atoms: C_17  and  O_18
REMARK   12  A    between atoms: O_18  and  C_19
REMARK   13  A    between atoms: C_20  and  O_21
REMARK   14  A    between atoms: O_21  and  C_22
REMARK   15  A    between atoms: C_23  and  O_24
REMARK   16  A    between atoms: O_24  and  C_25
REMARK                            x       y       z     vdW  Elec       q    Type
REMARK                         _______ _______ _______ _____ _____    ______ ____
ROOT
ATOM      1  C   UNL     1       1.384   9.399  18.885  0.00  0.00    +0.000 A 
ATOM      2  N   UNL     1       1.892   9.666  17.697  0.00  0.00    +0.000 NA
ATOM      3  N   UNL     1       2.605   8.546  17.318  0.00  0.00    +0.000 NA
ATOM      4  C   UNL     1       2.481   7.673  18.300  0.00  0.00    +0.000 A 
ATOM      5  O   UNL     1       1.734   8.155  19.338  0.00  0.00    +0.000 OA
ENDROOT
BRANCH   4   6
ATOM      6  C   UNL     1       3.031   6.328  18.428  0.00  0.00    +0.000 A 
ATOM      7  C   UNL     1       2.164   5.234  18.372  0.00  0.00    +0.000 A 
ATOM      8  C   UNL     1       2.640   3.923  18.478  0.00  0.00    +0.000 A 
ATOM      9  C   UNL     1       4.014   3.683  18.694  0.00  0.00    +0.000 A 
ATOM     10  C   UNL     1       4.901   4.781  18.774  0.00  0.00    +0.000 A 
ATOM     11  C   UNL     1       4.398   6.085  18.619  0.00  0.00    +0.000 A 
BRANCH   8  12
ATOM     12  O   UNL     1       1.806   2.831  18.398  0.00  0.00    +0.000 OA
ATOM     13  C   UNL     1       0.792   2.752  19.399  0.00  0.00    +0.000 C 
ENDBRANCH   8  12
BRANCH   9  14
ATOM     14  O   UNL     1       4.352   2.364  18.881  0.00  0.00    +0.000 OA
ATOM     15  C   UNL     1       4.516   1.896  20.215  0.00  0.00    +0.000 C 
ENDBRANCH   9  14
BRANCH  10  16
ATOM     16  O   UNL     1       6.219   4.522  19.042  0.00  0.00    +0.000 OA
ATOM     17  C   UNL     1       7.195   5.479  18.651  0.00  0.00    +0.000 C 
ENDBRANCH  10  16
ENDBRANCH   4   6
BRANCH   1  18
ATOM     18  S   UNL     1       0.371  10.477  19.802  0.00  0.00    +0.000 S 
BRANCH  18  19
ATOM     19  C   UNL     1      -0.017   9.433  21.241  0.00  0.00    +0.000 C 
BRANCH  19  20
ATOM     20  C   UNL     1       0.080  10.187  22.551  0.00  0.00    +0.000 C 
ATOM     21  O   UNL     1       0.378   9.706  23.639  0.00  0.00    +0.000 OA
BRANCH  20  22
ATOM     22  O   UNL     1      -0.286  11.489  22.360  0.00  0.00    +0.000 OA
BRANCH  22  23
ATOM     23  C   UNL     1      -1.458  11.902  23.083  0.00  0.00    +0.000 C 
BRANCH  23  24
ATOM     24  C   UNL     1      -1.608  13.417  23.221  0.00  0.00    +0.000 C 
BRANCH  24  25
ATOM     25  C   UNL     1      -3.061  13.831  22.963  0.00  0.00    +0.000 C 
BRANCH  25  27
ATOM     26  C   UNL     1      -4.070  13.069  20.785  0.00  0.00    +0.000 C 
ATOM     27  C   UNL     1      -3.849  12.733  22.252  0.00  0.00    +0.000 C 
ENDBRANCH  25  27
ENDBRANCH  24  25
ENDBRANCH  23  24
ENDBRANCH  22  23
ENDBRANCH  20  22
ENDBRANCH  19  20
ENDBRANCH  18  19
ENDBRANCH   1  18
TORSDOF 12
ENDMDL
MODEL 9
REMARK VINA RESULT:      -6.3      6.878     10.223
REMARK  Name = 
REMARK  16 active torsions:
REMARK  status: ('A' for Active; 'I' for Inactive)
REMARK    1  A    between atoms: C_1  and  C_2
REMARK    2  A    between atoms: C_2  and  C_3
REMARK    3  A    between atoms: C_3  and  C_4
REMARK    4  A    between atoms: C_4  and  C_5
REMARK    5  A    between atoms: C_5  and  O_6
REMARK    6  A    between atoms: O_6  and  C_7
REMARK    7  A    between atoms: C_7  and  C_9
REMARK    8  A    between atoms: C_9  and  S_10
REMARK    9  A    between atoms: S_10  and  C_11
REMARK   10  A    between atoms: C_14  and  C_15
REMARK   11  A    between atoms: C_17  and  O_18
REMARK   12  A    between atoms: O_18  and  C_19
REMARK   13  A    between atoms: C_20  and  O_21
REMARK   14  A    between atoms: O_21  and  C_22
REMARK   15  A    between atoms: C_23  and  O_24
REMARK   16  A    between atoms: O_24  and  C_25
REMARK                            x       y       z     vdW  Elec       q    Type
REMARK                         _______ _______ _______ _____ _____    ______ ____
ROOT
ATOM      1  C   UNL     1       1.284   9.631  18.667  0.00  0.00    +0.000 A 
ATOM      2  N   UNL     1       1.981   9.805  17.561  0.00  0.00    +0.000 NA
ATOM      3  N   UNL     1       2.721   8.653  17.382  0.00  0.00    +0.000 NA
ATOM      4  C   UNL     1       2.422   7.856  18.391  0.00  0.00    +0.000 A 
ATOM      5  O   UNL     1       1.529   8.420  19.258  0.00  0.00    +0.000 OA
ENDROOT
BRANCH   4   6
ATOM      6  C   UNL     1       2.915   6.518  18.701  0.00  0.00    +0.000 A 
ATOM      7  C   UNL     1       3.857   5.931  17.853  0.00  0.00    +0.000 A 
ATOM      8  C   UNL     1       4.372   4.656  18.110  0.00  0.00    +0.000 A 
ATOM      9  C   UNL     1       3.906   3.913  19.216  0.00  0.00    +0.000 A 
ATOM     10  C   UNL     1       2.936   4.486  20.072  0.00  0.00    +0.000 A 
ATOM     11  C   UNL     1       2.472   5.787  19.812  0.00  0.00    +0.000 A 
BRANCH   8  12
ATOM     12  O   UNL     1       5.320   4.071  17.302  0.00  0.00    +0.000 OA
ATOM     13  C   UNL     1       5.092   4.183  15.898  0.00  0.00    +0.000 C 
ENDBRANCH   8  12
BRANCH   9  14
ATOM     14  O   UNL     1       4.407   2.637  19.313  0.00  0.00    +0.000 OA
ATOM     15  C   UNL     1       3.693   1.585  18.674  0.00  0.00    +0.000 C 
ENDBRANCH   9  14
BRANCH  10  16
ATOM     16  O   UNL     1       2.460   3.721  21.103  0.00  0.00    +0.000 OA
ATOM     17  C   UNL     1       1.196   3.088  20.956  0.00  0.00    +0.000 C 
ENDBRANCH  10  16
ENDBRANCH   4   6
BRANCH   1  18
ATOM     18  S   UNL     1       0.162  10.784  19.331  0.00  0.00    +0.000 S 
BRANCH  18  19
ATOM     19  C   UNL     1      -0.383   9.903  20.827  0.00  0.00    +0.000 C 
BRANCH  19  20
ATOM     20  C   UNL     1       0.182  10.507  22.096  0.00  0.00    +0.000 C 
ATOM     21  O   UNL     1       0.509   9.890  23.105  0.00  0.00    +0.000 OA
BRANCH  20  22
ATOM     22  O   UNL     1       0.211  11.868  21.984  0.00  0.00    +0.000 OA
BRANCH  22  23
ATOM     23  C   UNL     1      -1.079  12.503  21.968  0.00  0.00    +0.000 C 
BRANCH  23  24
ATOM     24  C   UNL     1      -2.017  12.045  23.085  0.00  0.00    +0.000 C 
BRANCH  24  25
ATOM     25  C   UNL     1      -3.415  12.637  22.878  0.00  0.00    +0.000 C 
BRANCH  25  27
ATOM     26  C   UNL     1      -4.821  12.360  24.949  0.00  0.00    +0.000 C 
ATOM     27  C   UNL     1      -3.943  13.307  24.145  0.00  0.00    +0.000 C 
ENDBRANCH  25  27
ENDBRANCH  24  25
ENDBRANCH  23  24
ENDBRANCH  22  23
ENDBRANCH  20  22
ENDBRANCH  19  20
ENDBRANCH  18  19
ENDBRANCH   1  18
TORSDOF 12
ENDMDL
