MODEL 1
REMARK VINA RESULT:      -6.4      0.000      0.000
REMARK  Name = 
REMARK  9 active torsions:
REMARK  status: ('A' for Active; 'I' for Inactive)
REMARK    1  A    between atoms: C_1  and  C_2
REMARK    2  A    between atoms: C_2  and  O_3
REMARK    3  A    between atoms: O_3  and  C_4
REMARK    4  A    between atoms: C_6  and  C_7
REMARK    5  A    between atoms: C_9  and  C_10
REMARK    6  A    between atoms: C_15  and  O_16
REMARK    7  A    between atoms: N_22  and  C_23
REMARK    8  A    between atoms: C_23  and  C_24
REMARK    9  A    between atoms: C_32  and  O_33
REMARK                            x       y       z     vdW  Elec       q    Type
REMARK                         _______ _______ _______ _____ _____    ______ ____
ROOT
ATOM      1  C   UNL     1      -0.799  12.585  19.577  0.00  0.00    +0.000 C 
ATOM      2  C   UNL     1       0.561  13.172  19.672  0.00  0.00    +0.000 A 
ATOM      3  C   UNL     1       1.325  14.267  20.120  0.00  0.00    +0.000 A 
ATOM      4  N   UNL     1       2.625  14.092  19.759  0.00  0.00    +0.000 NA
ATOM      5  N   UNL     1       2.660  12.921  19.088  0.00  0.00    +0.000 N 
ATOM      6  C   UNL     1       1.459  12.331  19.079  0.00  0.00    +0.000 A 
ATOM      7  C   UNL     1       0.882  11.116  18.655  0.00  0.00    +0.000 C 
ATOM      8  O   UNL     1       1.437  10.179  18.100  0.00  0.00    +0.000 OA
ATOM      9  N   UNL     1      -0.446  11.228  19.051  0.00  0.00    +0.000 N 
ATOM     10  H   UNL     1       3.536  12.600  18.688  0.00  0.00    +0.000 HD
ENDROOT
BRANCH   1  13
ATOM     11  C   UNL     1      -3.692  12.854  22.041  0.00  0.00    +0.000 A 
ATOM     12  C   UNL     1      -2.866  12.977  20.914  0.00  0.00    +0.000 A 
ATOM     13  C   UNL     1      -1.522  12.544  20.900  0.00  0.00    +0.000 A 
ATOM     14  C   UNL     1      -1.000  12.008  22.081  0.00  0.00    +0.000 A 
ATOM     15  C   UNL     1      -1.816  11.862  23.208  0.00  0.00    +0.000 A 
ATOM     16  C   UNL     1      -3.164  12.245  23.173  0.00  0.00    +0.000 A 
BRANCH  16  17
ATOM     17  O   UNL     1      -3.942  11.951  24.256  0.00  0.00    +0.000 OA
ATOM     18  H   UNL     1      -3.887  10.989  24.395  0.00  0.00    +0.000 HD
ENDBRANCH  16  17
BRANCH  11  19
ATOM     19  O   UNL     1      -4.955  13.317  21.815  0.00  0.00    +0.000 OA
BRANCH  19  21
ATOM     20  C   UNL     1      -6.783  11.908  20.995  0.00  0.00    +0.000 C 
ATOM     21  C   UNL     1      -5.701  12.925  20.668  0.00  0.00    +0.000 C 
ENDBRANCH  19  21
ENDBRANCH  11  19
ENDBRANCH   1  13
BRANCH   3  22
ATOM     22  C   UNL     1       0.931  15.442  20.902  0.00  0.00    +0.000 A 
ATOM     23  C   UNL     1      -0.126  16.243  20.429  0.00  0.00    +0.000 A 
ATOM     24  C   UNL     1      -0.541  17.380  21.125  0.00  0.00    +0.000 A 
ATOM     25  C   UNL     1       0.101  17.737  22.306  0.00  0.00    +0.000 A 
ATOM     26  C   UNL     1       1.152  16.960  22.790  0.00  0.00    +0.000 A 
ATOM     27  C   UNL     1       1.558  15.814  22.097  0.00  0.00    +0.000 A 
BRANCH  27  28
ATOM     28  O   UNL     1       2.559  15.046  22.630  0.00  0.00    +0.000 OA
ATOM     29  H   UNL     1       2.374  14.907  23.573  0.00  0.00    +0.000 HD
ENDBRANCH  27  28
ENDBRANCH   3  22
BRANCH   9  30
ATOM     30  C   UNL     1      -1.410  10.161  18.865  0.00  0.00    +0.000 C 
BRANCH  30  31
ATOM     31  C   UNL     1      -2.359  10.387  17.725  0.00  0.00    +0.000 A 
ATOM     32  C   UNL     1      -3.577  11.054  17.898  0.00  0.00    +0.000 A 
ATOM     33  C   UNL     1      -4.405  11.283  16.803  0.00  0.00    +0.000 A 
ATOM     34  C   UNL     1      -3.981  10.843  15.560  0.00  0.00    +0.000 A 
ATOM     35  N   UNL     1      -2.809  10.209  15.348  0.00  0.00    +0.000 NA
ATOM     36  C   UNL     1      -2.025  10.003  16.431  0.00  0.00    +0.000 A 
ENDBRANCH  30  31
ENDBRANCH   9  30
TORSDOF 8
ENDMDL
MODEL 2
REMARK VINA RESULT:      -6.4      0.898      1.086
REMARK  Name = 
REMARK  9 active torsions:
REMARK  status: ('A' for Active; 'I' for Inactive)
REMARK    1  A    between atoms: C_1  and  C_2
REMARK    2  A    between atoms: C_2  and  O_3
REMARK    3  A    between atoms: O_3  and  C_4
REMARK    4  A    between atoms: C_6  and  C_7
REMARK    5  A    between atoms: C_9  and  C_10
REMARK    6  A    between atoms: C_15  and  O_16
REMARK    7  A    between atoms: N_22  and  C_23
REMARK    8  A    between atoms: C_23  and  C_24
REMARK    9  A    between atoms: C_32  and  O_33
REMARK                            x       y       z     vdW  Elec       q    Type
REMARK                         _______ _______ _______ _____ _____    ______ ____
ROOT
ATOM      1  C   UNL     1      -0.850  12.635  19.649  0.00  0.00    +0.000 C 
ATOM      2  C   UNL     1       0.487  13.273  19.755  0.00  0.00    +0.000 A 
ATOM      3  C   UNL     1       1.204  14.400  20.205  0.00  0.00    +0.000 A 
ATOM      4  N   UNL     1       2.514  14.271  19.859  0.00  0.00    +0.000 NA
ATOM      5  N   UNL     1       2.599  13.099  19.195  0.00  0.00    +0.000 N 
ATOM      6  C   UNL     1       1.422  12.464  19.177  0.00  0.00    +0.000 A 
ATOM      7  C   UNL     1       0.896  11.225  18.755  0.00  0.00    +0.000 C 
ATOM      8  O   UNL     1       1.492  10.306  18.211  0.00  0.00    +0.000 OA
ATOM      9  N   UNL     1      -0.440  11.289  19.135  0.00  0.00    +0.000 N 
ATOM     10  H   UNL     1       3.492  12.809  18.808  0.00  0.00    +0.000 HD
ENDROOT
BRANCH   1  13
ATOM     11  C   UNL     1      -3.755  12.914  22.097  0.00  0.00    +0.000 A 
ATOM     12  C   UNL     1      -2.916  13.048  20.981  0.00  0.00    +0.000 A 
ATOM     13  C   UNL     1      -1.586  12.575  20.964  0.00  0.00    +0.000 A 
ATOM     14  C   UNL     1      -1.090  11.987  22.132  0.00  0.00    +0.000 A 
ATOM     15  C   UNL     1      -1.920  11.830  23.247  0.00  0.00    +0.000 A 
ATOM     16  C   UNL     1      -3.255  12.254  23.213  0.00  0.00    +0.000 A 
BRANCH  16  17
ATOM     17  O   UNL     1      -4.051  11.951  24.280  0.00  0.00    +0.000 OA
ATOM     18  H   UNL     1      -4.224  12.783  24.754  0.00  0.00    +0.000 HD
ENDBRANCH  16  17
BRANCH  11  19
ATOM     19  O   UNL     1      -5.001  13.422  21.876  0.00  0.00    +0.000 OA
BRANCH  19  21
ATOM     20  C   UNL     1      -6.302  12.065  20.306  0.00  0.00    +0.000 C 
ATOM     21  C   UNL     1      -6.138  12.578  21.727  0.00  0.00    +0.000 C 
ENDBRANCH  19  21
ENDBRANCH  11  19
ENDBRANCH   1  13
BRANCH   3  22
ATOM     22  C   UNL     1       0.757  15.563  20.975  0.00  0.00    +0.000 A 
ATOM     23  C   UNL     1       0.334  15.370  22.304  0.00  0.00    +0.000 A 
ATOM     24  C   UNL     1      -0.111  16.438  23.085  0.00  0.00    +0.000 A 
ATOM     25  C   UNL     1      -0.146  17.719  22.545  0.00  0.00    +0.000 A 
ATOM     26  C   UNL     1       0.266  17.932  21.230  0.00  0.00    +0.000 A 
ATOM     27  C   UNL     1       0.723  16.862  20.453  0.00  0.00    +0.000 A 
BRANCH  27  28
ATOM     28  O   UNL     1       1.168  17.117  19.183  0.00  0.00    +0.000 OA
ATOM     29  H   UNL     1       1.498  18.030  19.148  0.00  0.00    +0.000 HD
ENDBRANCH  27  28
ENDBRANCH   3  22
BRANCH   9  30
ATOM     30  C   UNL     1      -1.361  10.186  18.945  0.00  0.00    +0.000 C 
BRANCH  30  31
ATOM     31  C   UNL     1      -2.320  10.380  17.808  0.00  0.00    +0.000 A 
ATOM     32  C   UNL     1      -3.551  11.022  17.980  0.00  0.00    +0.000 A 
ATOM     33  C   UNL     1      -4.389  11.221  16.887  0.00  0.00    +0.000 A 
ATOM     34  C   UNL     1      -3.963  10.778  15.647  0.00  0.00    +0.000 A 
ATOM     35  N   UNL     1      -2.778  10.168  15.435  0.00  0.00    +0.000 NA
ATOM     36  C   UNL     1      -1.984   9.989  16.516  0.00  0.00    +0.000 A 
ENDBRANCH  30  31
ENDBRANCH   9  30
TORSDOF 8
ENDMDL
MODEL 3
REMARK VINA RESULT:      -6.3      2.353      7.200
REMARK  Name = 
REMARK  9 active torsions:
REMARK  status: ('A' for Active; 'I' for Inactive)
REMARK    1  A    between atoms: C_1  and  C_2
REMARK    2  A    between atoms: C_2  and  O_3
REMARK    3  A    between atoms: O_3  and  C_4
REMARK    4  A    between atoms: C_6  and  C_7
REMARK    5  A    between atoms: C_9  and  C_10
REMARK    6  A    between atoms: C_15  and  O_16
REMARK    7  A    between atoms: N_22  and  C_23
REMARK    8  A    between atoms: C_23  and  C_24
REMARK    9  A    between atoms: C_32  and  O_33
REMARK                            x       y       z     vdW  Elec       q    Type
REMARK                         _______ _______ _______ _____ _____    ______ ____
ROOT
ATOM      1  C   UNL     1      -1.470  13.162  20.148  0.00  0.00    +0.000 C 
ATOM      2  C   UNL     1      -2.875  12.706  20.000  0.00  0.00    +0.000 A 
ATOM      3  C   UNL     1      -3.801  12.045  19.169  0.00  0.00    +0.000 A 
ATOM      4  N   UNL     1      -5.031  12.068  19.751  0.00  0.00    +0.000 NA
ATOM      5  N   UNL     1      -4.871  12.746  20.907  0.00  0.00    +0.000 N 
ATOM      6  C   UNL     1      -3.590  13.077  21.103  0.00  0.00    +0.000 A 
ATOM      7  C   UNL     1      -2.793  13.671  22.104  0.00  0.00    +0.000 C 
ATOM      8  O   UNL     1      -3.154  14.096  23.192  0.00  0.00    +0.000 OA
ATOM      9  N   UNL     1      -1.509  13.623  21.572  0.00  0.00    +0.000 N 
ATOM     10  H   UNL     1      -5.677  12.919  21.500  0.00  0.00    +0.000 HD
ENDROOT
BRANCH   1  13
ATOM     11  C   UNL     1       0.175   9.736  20.413  0.00  0.00    +0.000 A 
ATOM     12  C   UNL     1      -0.602  10.879  20.649  0.00  0.00    +0.000 A 
ATOM     13  C   UNL     1      -0.462  12.068  19.900  0.00  0.00    +0.000 A 
ATOM     14  C   UNL     1       0.527  12.100  18.912  0.00  0.00    +0.000 A 
ATOM     15  C   UNL     1       1.298  10.962  18.652  0.00  0.00    +0.000 A 
ATOM     16  C   UNL     1       1.094   9.777  19.371  0.00  0.00    +0.000 A 
BRANCH  16  17
ATOM     17  O   UNL     1       1.780   8.663  18.980  0.00  0.00    +0.000 OA
ATOM     18  H   UNL     1       1.427   7.915  19.493  0.00  0.00    +0.000 HD
ENDBRANCH  16  17
BRANCH  11  19
ATOM     19  O   UNL     1      -0.152   8.703  21.240  0.00  0.00    +0.000 OA
BRANCH  19  21
ATOM     20  C   UNL     1       0.440   9.415  23.508  0.00  0.00    +0.000 C 
ATOM     21  C   UNL     1      -0.642   8.927  22.559  0.00  0.00    +0.000 C 
ENDBRANCH  19  21
ENDBRANCH  11  19
ENDBRANCH   1  13
BRANCH   3  22
ATOM     22  C   UNL     1      -3.604  11.352  17.893  0.00  0.00    +0.000 A 
ATOM     23  C   UNL     1      -2.603  10.365  17.809  0.00  0.00    +0.000 A 
ATOM     24  C   UNL     1      -2.362   9.678  16.618  0.00  0.00    +0.000 A 
ATOM     25  C   UNL     1      -3.117   9.972  15.488  0.00  0.00    +0.000 A 
ATOM     26  C   UNL     1      -4.111  10.948  15.548  0.00  0.00    +0.000 A 
ATOM     27  C   UNL     1      -4.359  11.627  16.746  0.00  0.00    +0.000 A 
BRANCH  27  28
ATOM     28  O   UNL     1      -5.378  12.542  16.783  0.00  0.00    +0.000 OA
ATOM     29  H   UNL     1      -5.096  13.297  17.325  0.00  0.00    +0.000 HD
ENDBRANCH  27  28
ENDBRANCH   3  22
BRANCH   9  30
ATOM     30  C   UNL     1      -0.343  14.081  22.302  0.00  0.00    +0.000 C 
BRANCH  30  31
ATOM     31  C   UNL     1       0.436  15.153  21.598  0.00  0.00    +0.000 A 
ATOM     32  C   UNL     1       1.708  14.916  21.066  0.00  0.00    +0.000 A 
ATOM     33  C   UNL     1       2.373  15.927  20.381  0.00  0.00    +0.000 A 
ATOM     34  C   UNL     1       1.738  17.150  20.240  0.00  0.00    +0.000 A 
ATOM     35  N   UNL     1       0.507  17.415  20.725  0.00  0.00    +0.000 NA
ATOM     36  C   UNL     1      -0.116  16.412  21.385  0.00  0.00    +0.000 A 
ENDBRANCH  30  31
ENDBRANCH   9  30
TORSDOF 8
ENDMDL
MODEL 4
REMARK VINA RESULT:      -6.3      2.066      2.639
REMARK  Name = 
REMARK  9 active torsions:
REMARK  status: ('A' for Active; 'I' for Inactive)
REMARK    1  A    between atoms: C_1  and  C_2
REMARK    2  A    between atoms: C_2  and  O_3
REMARK    3  A    between atoms: O_3  and  C_4
REMARK    4  A    between atoms: C_6  and  C_7
REMARK    5  A    between atoms: C_9  and  C_10
REMARK    6  A    between atoms: C_15  and  O_16
REMARK    7  A    between atoms: N_22  and  C_23
REMARK    8  A    between atoms: C_23  and  C_24
REMARK    9  A    between atoms: C_32  and  O_33
REMARK                            x       y       z     vdW  Elec       q    Type
REMARK                         _______ _______ _______ _____ _____    ______ ____
ROOT
ATOM      1  C   UNL     1      -0.081  12.975  18.827  0.00  0.00    +0.000 C 
ATOM      2  C   UNL     1       1.315  13.443  18.636  0.00  0.00    +0.000 A 
ATOM      3  C   UNL     1       2.185  14.551  18.679  0.00  0.00    +0.000 A 
ATOM      4  N   UNL     1       3.429  14.166  18.283  0.00  0.00    +0.000 NA
ATOM      5  N   UNL     1       3.324  12.854  17.986  0.00  0.00    +0.000 N 
ATOM      6  C   UNL     1       2.096  12.393  18.247  0.00  0.00    +0.000 A 
ATOM      7  C   UNL     1       1.407  11.162  18.248  0.00  0.00    +0.000 C 
ATOM      8  O   UNL     1       1.845  10.060  17.950  0.00  0.00    +0.000 OA
ATOM      9  N   UNL     1       0.135  11.499  18.698  0.00  0.00    +0.000 N 
ATOM     10  H   UNL     1       4.134  12.356  17.630  0.00  0.00    +0.000 HD
ENDROOT
BRANCH   1  13
ATOM     11  C   UNL     1      -0.894  12.784  22.544  0.00  0.00    +0.000 A 
ATOM     12  C   UNL     1      -0.526  12.471  21.228  0.00  0.00    +0.000 A 
ATOM     13  C   UNL     1      -0.666  13.380  20.157  0.00  0.00    +0.000 A 
ATOM     14  C   UNL     1      -1.234  14.627  20.434  0.00  0.00    +0.000 A 
ATOM     15  C   UNL     1      -1.590  14.962  21.746  0.00  0.00    +0.000 A 
ATOM     16  C   UNL     1      -1.382  14.061  22.798  0.00  0.00    +0.000 A 
BRANCH  16  17
ATOM     17  O   UNL     1      -1.620  14.494  24.070  0.00  0.00    +0.000 OA
ATOM     18  H   UNL     1      -2.411  15.061  24.035  0.00  0.00    +0.000 HD
ENDBRANCH  16  17
BRANCH  11  19
ATOM     19  O   UNL     1      -0.646  11.762  23.412  0.00  0.00    +0.000 OA
BRANCH  19  21
ATOM     20  C   UNL     1       0.124   9.449  23.180  0.00  0.00    +0.000 C 
ATOM     21  C   UNL     1      -1.040  10.424  23.125  0.00  0.00    +0.000 C 
ENDBRANCH  19  21
ENDBRANCH  11  19
ENDBRANCH   1  13
BRANCH   3  22
ATOM     22  C   UNL     1       1.944  15.930  19.109  0.00  0.00    +0.000 A 
ATOM     23  C   UNL     1       0.996  16.700  18.407  0.00  0.00    +0.000 A 
ATOM     24  C   UNL     1       0.729  18.022  18.764  0.00  0.00    +0.000 A 
ATOM     25  C   UNL     1       1.413  18.600  19.828  0.00  0.00    +0.000 A 
ATOM     26  C   UNL     1       2.358  17.858  20.535  0.00  0.00    +0.000 A 
ATOM     27  C   UNL     1       2.615  16.528  20.183  0.00  0.00    +0.000 A 
BRANCH  27  28
ATOM     28  O   UNL     1       3.512  15.813  20.931  0.00  0.00    +0.000 OA
ATOM     29  H   UNL     1       3.885  15.108  20.377  0.00  0.00    +0.000 HD
ENDBRANCH  27  28
ENDBRANCH   3  22
BRANCH   9  30
ATOM     30  C   UNL     1      -0.905  10.511  18.912  0.00  0.00    +0.000 C 
BRANCH  30  31
ATOM     31  C   UNL     1      -2.062  10.627  17.963  0.00  0.00    +0.000 A 
ATOM     32  C   UNL     1      -3.197  11.387  18.270  0.00  0.00    +0.000 A 
ATOM     33  C   UNL     1      -4.225  11.504  17.340  0.00  0.00    +0.000 A 
ATOM     34  C   UNL     1      -4.082  10.862  16.122  0.00  0.00    +0.000 A 
ATOM     35  N   UNL     1      -2.999  10.133  15.781  0.00  0.00    +0.000 NA
ATOM     36  C   UNL     1      -2.015  10.038  16.705  0.00  0.00    +0.000 A 
ENDBRANCH  30  31
ENDBRANCH   9  30
TORSDOF 8
ENDMDL
MODEL 5
REMARK VINA RESULT:      -6.3      6.444     10.694
REMARK  Name = 
REMARK  9 active torsions:
REMARK  status: ('A' for Active; 'I' for Inactive)
REMARK    1  A    between atoms: C_1  and  C_2
REMARK    2  A    between atoms: C_2  and  O_3
REMARK    3  A    between atoms: O_3  and  C_4
REMARK    4  A    between atoms: C_6  and  C_7
REMARK    5  A    between atoms: C_9  and  C_10
REMARK    6  A    between atoms: C_15  and  O_16
REMARK    7  A    between atoms: N_22  and  C_23
REMARK    8  A    between atoms: C_23  and  C_24
REMARK    9  A    between atoms: C_32  and  O_33
REMARK                            x       y       z     vdW  Elec       q    Type
REMARK                         _______ _______ _______ _____ _____    ______ ____
ROOT
ATOM      1  C   UNL     1       2.453   6.797  18.255  0.00  0.00    +0.000 C 
ATOM      2  C   UNL     1       2.315   5.951  19.467  0.00  0.00    +0.000 A 
ATOM      3  C   UNL     1       2.437   4.652  19.998  0.00  0.00    +0.000 A 
ATOM      4  N   UNL     1       2.043   4.654  21.300  0.00  0.00    +0.000 NA
ATOM      5  N   UNL     1       1.669   5.924  21.563  0.00  0.00    +0.000 N 
ATOM      6  C   UNL     1       1.881   6.721  20.508  0.00  0.00    +0.000 A 
ATOM      7  C   UNL     1       1.798   8.091  20.187  0.00  0.00    +0.000 C 
ATOM      8  O   UNL     1       1.447   9.010  20.913  0.00  0.00    +0.000 OA
ATOM      9  N   UNL     1       2.243   8.146  18.870  0.00  0.00    +0.000 N 
ATOM     10  H   UNL     1       1.301   6.157  22.479  0.00  0.00    +0.000 HD
ENDROOT
BRANCH   1  13
ATOM     11  C   UNL     1       6.059   5.680  17.744  0.00  0.00    +0.000 A 
ATOM     12  C   UNL     1       4.817   6.009  18.307  0.00  0.00    +0.000 A 
ATOM     13  C   UNL     1       3.792   6.649  17.577  0.00  0.00    +0.000 A 
ATOM     14  C   UNL     1       4.059   6.996  16.249  0.00  0.00    +0.000 A 
ATOM     15  C   UNL     1       5.286   6.658  15.667  0.00  0.00    +0.000 A 
ATOM     16  C   UNL     1       6.262   5.969  16.399  0.00  0.00    +0.000 A 
BRANCH  16  17
ATOM     17  O   UNL     1       7.379   5.547  15.739  0.00  0.00    +0.000 OA
ATOM     18  H   UNL     1       7.921   6.336  15.560  0.00  0.00    +0.000 HD
ENDBRANCH  16  17
BRANCH  11  19
ATOM     19  O   UNL     1       6.881   5.047  18.628  0.00  0.00    +0.000 OA
BRANCH  19  21
ATOM     20  C   UNL     1       8.185   7.119  18.715  0.00  0.00    +0.000 C 
ATOM     21  C   UNL     1       7.936   5.736  19.294  0.00  0.00    +0.000 C 
ENDBRANCH  19  21
ENDBRANCH  11  19
ENDBRANCH   1  13
BRANCH   3  22
ATOM     22  C   UNL     1       2.941   3.421  19.384  0.00  0.00    +0.000 A 
ATOM     23  C   UNL     1       3.983   2.724  20.026  0.00  0.00    +0.000 A 
ATOM     24  C   UNL     1       4.511   1.550  19.486  0.00  0.00    +0.000 A 
ATOM     25  C   UNL     1       4.007   1.057  18.287  0.00  0.00    +0.000 A 
ATOM     26  C   UNL     1       2.977   1.732  17.633  0.00  0.00    +0.000 A 
ATOM     27  C   UNL     1       2.442   2.902  18.183  0.00  0.00    +0.000 A 
BRANCH  27  28
ATOM     28  O   UNL     1       1.397   3.510  17.540  0.00  0.00    +0.000 OA
ATOM     29  H   UNL     1       0.713   2.843  17.362  0.00  0.00    +0.000 HD
ENDBRANCH  27  28
ENDBRANCH   3  22
BRANCH   9  30
ATOM     30  C   UNL     1       2.381   9.393  18.142  0.00  0.00    +0.000 C 
BRANCH  30  31
ATOM     31  C   UNL     1       1.167  10.273  18.204  0.00  0.00    +0.000 A 
ATOM     32  C   UNL     1      -0.108   9.797  17.881  0.00  0.00    +0.000 A 
ATOM     33  C   UNL     1      -1.212  10.636  17.997  0.00  0.00    +0.000 A 
ATOM     34  C   UNL     1      -1.006  11.931  18.444  0.00  0.00    +0.000 A 
ATOM     35  N   UNL     1       0.205  12.424  18.779  0.00  0.00    +0.000 NA
ATOM     36  C   UNL     1       1.259  11.584  18.658  0.00  0.00    +0.000 A 
ENDBRANCH  30  31
ENDBRANCH   9  30
TORSDOF 8
ENDMDL
MODEL 6
REMARK VINA RESULT:      -6.3      2.854      5.795
REMARK  Name = 
REMARK  9 active torsions:
REMARK  status: ('A' for Active; 'I' for Inactive)
REMARK    1  A    between atoms: C_1  and  C_2
REMARK    2  A    between atoms: C_2  and  O_3
REMARK    3  A    between atoms: O_3  and  C_4
REMARK    4  A    between atoms: C_6  and  C_7
REMARK    5  A    between atoms: C_9  and  C_10
REMARK    6  A    between atoms: C_15  and  O_16
REMARK    7  A    between atoms: N_22  and  C_23
REMARK    8  A    between atoms: C_23  and  C_24
REMARK    9  A    between atoms: C_32  and  O_33
REMARK                            x       y       z     vdW  Elec       q    Type
REMARK                         _______ _______ _______ _____ _____    ______ ____
ROOT
ATOM      1  C   UNL     1       0.371  13.479  21.686  0.00  0.00    +0.000 C 
ATOM      2  C   UNL     1       0.645  14.929  21.522  0.00  0.00    +0.000 A 
ATOM      3  C   UNL     1       1.358  15.901  20.793  0.00  0.00    +0.000 A 
ATOM      4  N   UNL     1       1.109  17.133  21.314  0.00  0.00    +0.000 NA
ATOM      5  N   UNL     1       0.274  16.923  22.354  0.00  0.00    +0.000 N 
ATOM      6  C   UNL     1      -0.061  15.632  22.455  0.00  0.00    +0.000 A 
ATOM      7  C   UNL     1      -0.924  14.822  23.221  0.00  0.00    +0.000 C 
ATOM      8  O   UNL     1      -1.675  15.171  24.121  0.00  0.00    +0.000 OA
ATOM      9  N   UNL     1      -0.742  13.551  22.686  0.00  0.00    +0.000 N 
ATOM     10  H   UNL     1      -0.022  17.710  22.923  0.00  0.00    +0.000 HD
ENDROOT
BRANCH   1  13
ATOM     11  C   UNL     1       0.192  10.754  19.030  0.00  0.00    +0.000 A 
ATOM     12  C   UNL     1       0.578  11.555  20.115  0.00  0.00    +0.000 A 
ATOM     13  C   UNL     1      -0.025  12.800  20.399  0.00  0.00    +0.000 A 
ATOM     14  C   UNL     1      -1.020  13.254  19.528  0.00  0.00    +0.000 A 
ATOM     15  C   UNL     1      -1.428  12.458  18.451  0.00  0.00    +0.000 A 
ATOM     16  C   UNL     1      -0.854  11.199  18.231  0.00  0.00    +0.000 A 
BRANCH  16  17
ATOM     17  O   UNL     1      -1.388  10.414  17.250  0.00  0.00    +0.000 OA
ATOM     18  H   UNL     1      -0.701   9.775  16.989  0.00  0.00    +0.000 HD
ENDBRANCH  16  17
BRANCH  11  19
ATOM     19  O   UNL     1       0.895   9.588  18.967  0.00  0.00    +0.000 OA
BRANCH  19  21
ATOM     20  C   UNL     1       2.455   7.955  18.016  0.00  0.00    +0.000 C 
ATOM     21  C   UNL     1       1.889   9.365  17.971  0.00  0.00    +0.000 C 
ENDBRANCH  19  21
ENDBRANCH  11  19
ENDBRANCH   1  13
BRANCH   3  22
ATOM     22  C   UNL     1       2.217  15.762  19.614  0.00  0.00    +0.000 A 
ATOM     23  C   UNL     1       3.064  14.639  19.526  0.00  0.00    +0.000 A 
ATOM     24  C   UNL     1       3.912  14.456  18.432  0.00  0.00    +0.000 A 
ATOM     25  C   UNL     1       3.931  15.398  17.410  0.00  0.00    +0.000 A 
ATOM     26  C   UNL     1       3.103  16.518  17.478  0.00  0.00    +0.000 A 
ATOM     27  C   UNL     1       2.245  16.694  18.570  0.00  0.00    +0.000 A 
BRANCH  27  28
ATOM     28  O   UNL     1       1.409  17.779  18.579  0.00  0.00    +0.000 OA
ATOM     29  H   UNL     1       0.570  17.526  18.159  0.00  0.00    +0.000 HD
ENDBRANCH  27  28
ENDBRANCH   3  22
BRANCH   9  30
ATOM     30  C   UNL     1      -1.490  12.395  23.142  0.00  0.00    +0.000 C 
BRANCH  30  31
ATOM     31  C   UNL     1      -2.978  12.545  23.019  0.00  0.00    +0.000 A 
ATOM     32  C   UNL     1      -3.599  12.778  21.788  0.00  0.00    +0.000 A 
ATOM     33  C   UNL     1      -4.986  12.864  21.715  0.00  0.00    +0.000 A 
ATOM     34  C   UNL     1      -5.714  12.703  22.882  0.00  0.00    +0.000 A 
ATOM     35  N   UNL     1      -5.155  12.462  24.086  0.00  0.00    +0.000 NA
ATOM     36  C   UNL     1      -3.805  12.383  24.126  0.00  0.00    +0.000 A 
ENDBRANCH  30  31
ENDBRANCH   9  30
TORSDOF 8
ENDMDL
MODEL 7
REMARK VINA RESULT:      -6.3      0.878      1.251
REMARK  Name = 
REMARK  9 active torsions:
REMARK  status: ('A' for Active; 'I' for Inactive)
REMARK    1  A    between atoms: C_1  and  C_2
REMARK    2  A    between atoms: C_2  and  O_3
REMARK    3  A    between atoms: O_3  and  C_4
REMARK    4  A    between atoms: C_6  and  C_7
REMARK    5  A    between atoms: C_9  and  C_10
REMARK    6  A    between atoms: C_15  and  O_16
REMARK    7  A    between atoms: N_22  and  C_23
REMARK    8  A    between atoms: C_23  and  C_24
REMARK    9  A    between atoms: C_32  and  O_33
REMARK                            x       y       z     vdW  Elec       q    Type
REMARK                         _______ _______ _______ _____ _____    ______ ____
ROOT
ATOM      1  C   UNL     1      -0.793  12.651  19.660  0.00  0.00    +0.000 C 
ATOM      2  C   UNL     1       0.572  13.225  19.771  0.00  0.00    +0.000 A 
ATOM      3  C   UNL     1       1.344  14.302  20.247  0.00  0.00    +0.000 A 
ATOM      4  N   UNL     1       2.643  14.126  19.882  0.00  0.00    +0.000 NA
ATOM      5  N   UNL     1       2.668  12.974  19.180  0.00  0.00    +0.000 N 
ATOM      6  C   UNL     1       1.463  12.393  19.156  0.00  0.00    +0.000 A 
ATOM      7  C   UNL     1       0.877  11.194  18.700  0.00  0.00    +0.000 C 
ATOM      8  O   UNL     1       1.425  10.268  18.120  0.00  0.00    +0.000 OA
ATOM      9  N   UNL     1      -0.450  11.306  19.099  0.00  0.00    +0.000 N 
ATOM     10  H   UNL     1       3.542  12.657  18.772  0.00  0.00    +0.000 HD
ENDROOT
BRANCH   1  13
ATOM     11  C   UNL     1      -3.673  12.924  22.140  0.00  0.00    +0.000 A 
ATOM     12  C   UNL     1      -2.843  13.064  21.018  0.00  0.00    +0.000 A 
ATOM     13  C   UNL     1      -1.517  12.581  20.982  0.00  0.00    +0.000 A 
ATOM     14  C   UNL     1      -1.014  11.975  22.137  0.00  0.00    +0.000 A 
ATOM     15  C   UNL     1      -1.836  11.812  23.259  0.00  0.00    +0.000 A 
ATOM     16  C   UNL     1      -3.167  12.247  23.243  0.00  0.00    +0.000 A 
BRANCH  16  17
ATOM     17  O   UNL     1      -3.955  11.937  24.314  0.00  0.00    +0.000 OA
ATOM     18  H   UNL     1      -3.987  10.966  24.374  0.00  0.00    +0.000 HD
ENDBRANCH  16  17
BRANCH  11  19
ATOM     19  O   UNL     1      -4.916  13.444  21.937  0.00  0.00    +0.000 OA
BRANCH  19  21
ATOM     20  C   UNL     1      -4.532  15.591  23.052  0.00  0.00    +0.000 C 
ATOM     21  C   UNL     1      -5.138  14.850  21.872  0.00  0.00    +0.000 C 
ENDBRANCH  19  21
ENDBRANCH  11  19
ENDBRANCH   1  13
BRANCH   3  22
ATOM     22  C   UNL     1       0.959  15.459  21.060  0.00  0.00    +0.000 A 
ATOM     23  C   UNL     1      -0.140  16.237  20.648  0.00  0.00    +0.000 A 
ATOM     24  C   UNL     1      -0.550  17.355  21.375  0.00  0.00    +0.000 A 
ATOM     25  C   UNL     1       0.140  17.718  22.527  0.00  0.00    +0.000 A 
ATOM     26  C   UNL     1       1.233  16.964  22.952  0.00  0.00    +0.000 A 
ATOM     27  C   UNL     1       1.634  15.836  22.227  0.00  0.00    +0.000 A 
BRANCH  27  28
ATOM     28  O   UNL     1       2.679  15.089  22.702  0.00  0.00    +0.000 OA
ATOM     29  H   UNL     1       2.862  14.375  22.069  0.00  0.00    +0.000 HD
ENDBRANCH  27  28
ENDBRANCH   3  22
BRANCH   9  30
ATOM     30  C   UNL     1      -1.423  10.251  18.885  0.00  0.00    +0.000 C 
BRANCH  30  31
ATOM     31  C   UNL     1      -2.291  10.458  17.679  0.00  0.00    +0.000 A 
ATOM     32  C   UNL     1      -2.008   9.849  16.451  0.00  0.00    +0.000 A 
ATOM     33  C   UNL     1      -2.867  10.032  15.371  0.00  0.00    +0.000 A 
ATOM     34  C   UNL     1      -3.994  10.814  15.557  0.00  0.00    +0.000 A 
ATOM     35  N   UNL     1      -4.311  11.405  16.728  0.00  0.00    +0.000 NA
ATOM     36  C   UNL     1      -3.458  11.209  17.760  0.00  0.00    +0.000 A 
ENDBRANCH  30  31
ENDBRANCH   9  30
TORSDOF 8
ENDMDL
MODEL 8
REMARK VINA RESULT:      -6.2      2.986      7.204
REMARK  Name = 
REMARK  9 active torsions:
REMARK  status: ('A' for Active; 'I' for Inactive)
REMARK    1  A    between atoms: C_1  and  C_2
REMARK    2  A    between atoms: C_2  and  O_3
REMARK    3  A    between atoms: O_3  and  C_4
REMARK    4  A    between atoms: C_6  and  C_7
REMARK    5  A    between atoms: C_9  and  C_10
REMARK    6  A    between atoms: C_15  and  O_16
REMARK    7  A    between atoms: N_22  and  C_23
REMARK    8  A    between atoms: C_23  and  C_24
REMARK    9  A    between atoms: C_32  and  O_33
REMARK                            x       y       z     vdW  Elec       q    Type
REMARK                         _______ _______ _______ _____ _____    ______ ____
ROOT
ATOM      1  C   UNL     1      -3.755  13.924  21.664  0.00  0.00    +0.000 C 
ATOM      2  C   UNL     1      -5.148  13.435  21.511  0.00  0.00    +0.000 A 
ATOM      3  C   UNL     1      -6.282  13.401  20.675  0.00  0.00    +0.000 A 
ATOM      4  N   UNL     1      -7.291  12.742  21.306  0.00  0.00    +0.000 NA
ATOM      5  N   UNL     1      -6.796  12.392  22.512  0.00  0.00    +0.000 N 
ATOM      6  C   UNL     1      -5.509  12.739  22.628  0.00  0.00    +0.000 A 
ATOM      7  C   UNL     1      -4.451  12.579  23.547  0.00  0.00    +0.000 C 
ATOM      8  O   UNL     1      -4.477  12.003  24.625  0.00  0.00    +0.000 OA
ATOM      9  N   UNL     1      -3.376  13.197  22.918  0.00  0.00    +0.000 N 
ATOM     10  H   UNL     1      -7.395  11.913  23.177  0.00  0.00    +0.000 HD
ENDROOT
BRANCH   1  13
ATOM     11  C   UNL     1      -0.880  14.249  19.185  0.00  0.00    +0.000 A 
ATOM     12  C   UNL     1      -1.855  14.509  20.160  0.00  0.00    +0.000 A 
ATOM     13  C   UNL     1      -2.874  13.588  20.487  0.00  0.00    +0.000 A 
ATOM     14  C   UNL     1      -2.918  12.387  19.773  0.00  0.00    +0.000 A 
ATOM     15  C   UNL     1      -1.942  12.105  18.810  0.00  0.00    +0.000 A 
ATOM     16  C   UNL     1      -0.908  13.013  18.550  0.00  0.00    +0.000 A 
BRANCH  16  17
ATOM     17  O   UNL     1       0.089  12.624  17.702  0.00  0.00    +0.000 OA
ATOM     18  H   UNL     1      -0.089  13.040  16.841  0.00  0.00    +0.000 HD
ENDBRANCH  16  17
BRANCH  11  19
ATOM     19  O   UNL     1       0.013  15.271  19.056  0.00  0.00    +0.000 OA
BRANCH  19  21
ATOM     20  C   UNL     1       2.200  14.539  19.879  0.00  0.00    +0.000 C 
ATOM     21  C   UNL     1       1.032  15.501  20.023  0.00  0.00    +0.000 C 
ENDBRANCH  19  21
ENDBRANCH  11  19
ENDBRANCH   1  13
BRANCH   3  22
ATOM     22  C   UNL     1      -6.470  13.901  19.311  0.00  0.00    +0.000 A 
ATOM     23  C   UNL     1      -6.533  15.293  19.105  0.00  0.00    +0.000 A 
ATOM     24  C   UNL     1      -6.719  15.829  17.830  0.00  0.00    +0.000 A 
ATOM     25  C   UNL     1      -6.853  14.978  16.738  0.00  0.00    +0.000 A 
ATOM     26  C   UNL     1      -6.796  13.597  16.919  0.00  0.00    +0.000 A 
ATOM     27  C   UNL     1      -6.597  13.062  18.197  0.00  0.00    +0.000 A 
BRANCH  27  28
ATOM     28  O   UNL     1      -6.495  11.703  18.330  0.00  0.00    +0.000 OA
ATOM     29  H   UNL     1      -6.797  11.456  19.220  0.00  0.00    +0.000 HD
ENDBRANCH  27  28
ENDBRANCH   3  22
BRANCH   9  30
ATOM     30  C   UNL     1      -2.043  13.219  23.489  0.00  0.00    +0.000 C 
BRANCH  30  31
ATOM     31  C   UNL     1      -1.138  12.141  22.970  0.00  0.00    +0.000 A 
ATOM     32  C   UNL     1      -1.369  10.788  23.240  0.00  0.00    +0.000 A 
ATOM     33  C   UNL     1      -0.530   9.819  22.699  0.00  0.00    +0.000 A 
ATOM     34  C   UNL     1       0.515  10.235  21.892  0.00  0.00    +0.000 A 
ATOM     35  N   UNL     1       0.764  11.528  21.595  0.00  0.00    +0.000 NA
ATOM     36  C   UNL     1      -0.069  12.447  22.134  0.00  0.00    +0.000 A 
ENDBRANCH  30  31
ENDBRANCH   9  30
TORSDOF 8
ENDMDL
MODEL 9
REMARK VINA RESULT:      -6.2      1.267      1.709
REMARK  Name = 
REMARK  9 active torsions:
REMARK  status: ('A' for Active; 'I' for Inactive)
REMARK    1  A    between atoms: C_1  and  C_2
REMARK    2  A    between atoms: C_2  and  O_3
REMARK    3  A    between atoms: O_3  and  C_4
REMARK    4  A    between atoms: C_6  and  C_7
REMARK    5  A    between atoms: C_9  and  C_10
REMARK    6  A    between atoms: C_15  and  O_16
REMARK    7  A    between atoms: N_22  and  C_23
REMARK    8  A    between atoms: C_23  and  C_24
REMARK    9  A    between atoms: C_32  and  O_33
REMARK                            x       y       z     vdW  Elec       q    Type
REMARK                         _______ _______ _______ _____ _____    ______ ____
ROOT
ATOM      1  C   UNL     1      -0.770  12.741  19.773  0.00  0.00    +0.000 C 
ATOM      2  C   UNL     1       0.555  13.398  19.912  0.00  0.00    +0.000 A 
ATOM      3  C   UNL     1       1.249  14.520  20.406  0.00  0.00    +0.000 A 
ATOM      4  N   UNL     1       2.563  14.426  20.069  0.00  0.00    +0.000 NA
ATOM      5  N   UNL     1       2.675  13.278  19.366  0.00  0.00    +0.000 N 
ATOM      6  C   UNL     1       1.508  12.624  19.316  0.00  0.00    +0.000 A 
ATOM      7  C   UNL     1       1.008  11.392  18.847  0.00  0.00    +0.000 C 
ATOM      8  O   UNL     1       1.624  10.502  18.279  0.00  0.00    +0.000 OA
ATOM      9  N   UNL     1      -0.332  11.420  19.218  0.00  0.00    +0.000 N 
ATOM     10  H   UNL     1       3.575  13.017  18.977  0.00  0.00    +0.000 HD
ENDROOT
BRANCH   1  13
ATOM     11  C   UNL     1      -3.629  13.110  22.263  0.00  0.00    +0.000 A 
ATOM     12  C   UNL     1      -2.772  13.262  21.163  0.00  0.00    +0.000 A 
ATOM     13  C   UNL     1      -1.515  12.624  21.078  0.00  0.00    +0.000 A 
ATOM     14  C   UNL     1      -1.109  11.842  22.164  0.00  0.00    +0.000 A 
ATOM     15  C   UNL     1      -1.960  11.666  23.261  0.00  0.00    +0.000 A 
ATOM     16  C   UNL     1      -3.227  12.263  23.290  0.00  0.00    +0.000 A 
BRANCH  16  17
ATOM     17  O   UNL     1      -4.063  11.944  24.320  0.00  0.00    +0.000 OA
ATOM     18  H   UNL     1      -3.565  12.080  25.146  0.00  0.00    +0.000 HD
ENDBRANCH  16  17
BRANCH  11  19
ATOM     19  O   UNL     1      -4.795  13.800  22.115  0.00  0.00    +0.000 OA
BRANCH  19  21
ATOM     20  C   UNL     1      -4.036  15.933  23.048  0.00  0.00    +0.000 C 
ATOM     21  C   UNL     1      -5.136  14.887  22.969  0.00  0.00    +0.000 C 
ENDBRANCH  19  21
ENDBRANCH  11  19
ENDBRANCH   1  13
BRANCH   3  22
ATOM     22  C   UNL     1       0.775  15.649  21.211  0.00  0.00    +0.000 A 
ATOM     23  C   UNL     1       0.220  15.388  22.479  0.00  0.00    +0.000 A 
ATOM     24  C   UNL     1      -0.256  16.421  23.288  0.00  0.00    +0.000 A 
ATOM     25  C   UNL     1      -0.190  17.735  22.837  0.00  0.00    +0.000 A 
ATOM     26  C   UNL     1       0.353  18.016  21.585  0.00  0.00    +0.000 A 
ATOM     27  C   UNL     1       0.841  16.980  20.780  0.00  0.00    +0.000 A 
BRANCH  27  28
ATOM     28  O   UNL     1       1.414  17.298  19.578  0.00  0.00    +0.000 OA
ATOM     29  H   UNL     1       1.912  18.126  19.681  0.00  0.00    +0.000 HD
ENDBRANCH  27  28
ENDBRANCH   3  22
BRANCH   9  30
ATOM     30  C   UNL     1      -1.232  10.308  18.983  0.00  0.00    +0.000 C 
BRANCH  30  31
ATOM     31  C   UNL     1      -2.164  10.512  17.824  0.00  0.00    +0.000 A 
ATOM     32  C   UNL     1      -1.974   9.863  16.599  0.00  0.00    +0.000 A 
ATOM     33  C   UNL     1      -2.890  10.045  15.567  0.00  0.00    +0.000 A 
ATOM     34  C   UNL     1      -3.979  10.869  15.797  0.00  0.00    +0.000 A 
ATOM     35  N   UNL     1      -4.207  11.501  16.968  0.00  0.00    +0.000 NA
ATOM     36  C   UNL     1      -3.300  11.303  17.952  0.00  0.00    +0.000 A 
ENDBRANCH  30  31
ENDBRANCH   9  30
TORSDOF 8
ENDMDL
