MODEL 1
REMARK VINA RESULT:      -6.9      0.000      0.000
REMARK  Name = 
REMARK  14 active torsions:
REMARK  status: ('A' for Active; 'I' for Inactive)
REMARK    1  A    between atoms: C_1  and  O_2
REMARK    2  A    between atoms: O_2  and  C_3
REMARK    3  A    between atoms: C_6  and  N_7
REMARK    4  A    between atoms: N_7  and  C_8
REMARK    5  A    between atoms: N_7  and  C_20
REMARK    6  A    between atoms: C_8  and  N_10
REMARK    7  A    between atoms: N_10  and  C_11
REMARK    8  A    between atoms: C_11  and  C_12
REMARK    9  A    between atoms: C_12  and  C_13
REMARK   10  A    between atoms: C_13  and  N_14
REMARK   11  A    between atoms: C_18  and  C_19
REMARK   12  A    between atoms: N_23  and  C_24
REMARK   13  A    between atoms: C_28  and  O_29
REMARK   14  A    between atoms: O_29  and  C_30
REMARK                            x       y       z     vdW  Elec       q    Type
REMARK                         _______ _______ _______ _____ _____    ______ ____
ROOT
ATOM      1  N   UNL     1       0.193  10.958  18.783  0.00  0.00    +0.000 N 
ENDROOT
BRANCH   1   2
ATOM      2  C   UNL     1       0.954  12.235  18.961  0.00  0.00    +0.000 C 
ATOM      3  C   UNL     1       2.328  12.254  18.280  0.00  0.00    +0.000 C 
ATOM      4  C   UNL     1       2.984  13.623  18.448  0.00  0.00    +0.000 C 
ATOM      5  N   UNL     1       3.051  14.005  19.868  0.00  0.00    +0.000 NA
ATOM      6  C   UNL     1       3.759  15.280  20.010  0.00  0.00    +0.000 C 
ATOM      7  C   UNL     1       1.705  14.117  20.451  0.00  0.00    +0.000 C 
ATOM      8  C   UNL     1       0.958  12.785  20.395  0.00  0.00    +0.000 C 
ENDBRANCH   1   2
BRANCH   1  12
ATOM      9  C   UNL     1      -3.979  11.121  17.607  0.00  0.00    +0.000 A 
ATOM     10  C   UNL     1      -3.528  11.754  18.766  0.00  0.00    +0.000 A 
ATOM     11  C   UNL     1      -2.179  11.710  19.142  0.00  0.00    +0.000 A 
ATOM     12  C   UNL     1      -1.221  11.011  18.403  0.00  0.00    +0.000 A 
ATOM     13  C   UNL     1      -1.718  10.296  17.298  0.00  0.00    +0.000 A 
ATOM     14  C   UNL     1      -3.071  10.339  16.888  0.00  0.00    +0.000 A 
BRANCH   9  16
ATOM     15  C   UNL     1      -6.245  11.395  18.259  0.00  0.00    +0.000 C 
ATOM     16  O   UNL     1      -5.287  11.214  17.216  0.00  0.00    +0.000 OA
ENDBRANCH   9  16
BRANCH  14  17
ATOM     17  O   UNL     1      -3.298   9.575  15.771  0.00  0.00    +0.000 OA
ATOM     18  C   UNL     1      -3.189  10.166  14.484  0.00  0.00    +0.000 C 
ENDBRANCH  14  17
ENDBRANCH   1  12
BRANCH   1  19
ATOM     19  C   UNL     1       0.819   9.732  19.157  0.00  0.00    +0.000 C 
ATOM     20  S   UNL     1       0.854   9.080  20.711  0.00  0.00    +0.000 S 
BRANCH  19  21
ATOM     21  N   UNL     1       1.467   9.119  18.097  0.00  0.00    +0.000 N 
ATOM     22  H   UNL     1       1.359   9.639  17.235  0.00  0.00    +0.000 HD
BRANCH  21  23
ATOM     23  C   UNL     1       2.567   8.163  18.189  0.00  0.00    +0.000 C 
BRANCH  23  24
ATOM     24  C   UNL     1       2.103   6.738  17.905  0.00  0.00    +0.000 C 
BRANCH  24  25
ATOM     25  C   UNL     1       2.994   5.700  18.582  0.00  0.00    +0.000 C 
BRANCH  25  26
ATOM     26  N   UNL     1       2.501   4.345  18.408  0.00  0.00    +0.000 N 
ATOM     27  C   UNL     1       2.767   3.557  17.334  0.00  0.00    +0.000 A 
ATOM     28  N   UNL     1       2.176   2.385  17.439  0.00  0.00    +0.000 NA
ATOM     29  C   UNL     1       1.498   2.431  18.628  0.00  0.00    +0.000 A 
ATOM     30  C   UNL     1       1.672   3.645  19.250  0.00  0.00    +0.000 A 
ATOM     31  C   UNL     1       1.131   4.161  20.534  0.00  0.00    +0.000 C 
ENDBRANCH  25  26
ENDBRANCH  24  25
ENDBRANCH  23  24
ENDBRANCH  21  23
ENDBRANCH  19  21
ENDBRANCH   1  19
TORSDOF 10
ENDMDL
MODEL 2
REMARK VINA RESULT:      -6.7      5.720     10.052
REMARK  Name = 
REMARK  14 active torsions:
REMARK  status: ('A' for Active; 'I' for Inactive)
REMARK    1  A    between atoms: C_1  and  O_2
REMARK    2  A    between atoms: O_2  and  C_3
REMARK    3  A    between atoms: C_6  and  N_7
REMARK    4  A    between atoms: N_7  and  C_8
REMARK    5  A    between atoms: N_7  and  C_20
REMARK    6  A    between atoms: C_8  and  N_10
REMARK    7  A    between atoms: N_10  and  C_11
REMARK    8  A    between atoms: C_11  and  C_12
REMARK    9  A    between atoms: C_12  and  C_13
REMARK   10  A    between atoms: C_13  and  N_14
REMARK   11  A    between atoms: C_18  and  C_19
REMARK   12  A    between atoms: N_23  and  C_24
REMARK   13  A    between atoms: C_28  and  O_29
REMARK   14  A    between atoms: O_29  and  C_30
REMARK                            x       y       z     vdW  Elec       q    Type
REMARK                         _______ _______ _______ _____ _____    ______ ____
ROOT
ATOM      1  N   UNL     1       6.194   5.501  17.485  0.00  0.00    +0.000 N 
ENDROOT
BRANCH   1   2
ATOM      2  C   UNL     1       6.149   5.234  16.013  0.00  0.00    +0.000 C 
ATOM      3  C   UNL     1       5.050   4.256  15.579  0.00  0.00    +0.000 C 
ATOM      4  C   UNL     1       5.034   4.118  14.059  0.00  0.00    +0.000 C 
ATOM      5  N   UNL     1       6.361   3.738  13.549  0.00  0.00    +0.000 NA
ATOM      6  C   UNL     1       6.299   3.529  12.099  0.00  0.00    +0.000 C 
ATOM      7  C   UNL     1       7.363   4.769  13.859  0.00  0.00    +0.000 C 
ATOM      8  C   UNL     1       7.517   4.965  15.367  0.00  0.00    +0.000 C 
ENDBRANCH   1   2
BRANCH   1  12
ATOM      9  C   UNL     1       2.756   4.556  19.954  0.00  0.00    +0.000 A 
ATOM     10  C   UNL     1       3.795   3.642  19.779  0.00  0.00    +0.000 A 
ATOM     11  C   UNL     1       4.911   3.949  18.990  0.00  0.00    +0.000 A 
ATOM     12  C   UNL     1       5.033   5.164  18.312  0.00  0.00    +0.000 A 
ATOM     13  C   UNL     1       3.926   6.027  18.420  0.00  0.00    +0.000 A 
ATOM     14  C   UNL     1       2.797   5.747  19.224  0.00  0.00    +0.000 A 
BRANCH   9  16
ATOM     15  C   UNL     1       0.677   3.440  20.215  0.00  0.00    +0.000 C 
ATOM     16  O   UNL     1       1.696   4.271  20.771  0.00  0.00    +0.000 OA
ENDBRANCH   9  16
BRANCH  14  17
ATOM     17  O   UNL     1       1.866   6.754  19.178  0.00  0.00    +0.000 OA
ATOM     18  C   UNL     1       1.943   7.824  20.108  0.00  0.00    +0.000 C 
ENDBRANCH  14  17
ENDBRANCH   1  12
BRANCH   1  19
ATOM     19  C   UNL     1       7.299   6.234  18.013  0.00  0.00    +0.000 C 
ATOM     20  S   UNL     1       8.135   5.867  19.429  0.00  0.00    +0.000 S 
BRANCH  19  21
ATOM     21  N   UNL     1       7.608   7.351  17.254  0.00  0.00    +0.000 N 
ATOM     22  H   UNL     1       7.650   7.139  16.265  0.00  0.00    +0.000 HD
BRANCH  21  23
ATOM     23  C   UNL     1       7.425   8.745  17.650  0.00  0.00    +0.000 C 
BRANCH  23  24
ATOM     24  C   UNL     1       8.655   9.297  18.363  0.00  0.00    +0.000 C 
BRANCH  24  25
ATOM     25  C   UNL     1       8.793  10.806  18.181  0.00  0.00    +0.000 C 
BRANCH  25  26
ATOM     26  N   UNL     1      10.029  11.324  18.742  0.00  0.00    +0.000 N 
ATOM     27  C   UNL     1      11.164  11.553  18.032  0.00  0.00    +0.000 A 
ATOM     28  N   UNL     1      12.130  12.006  18.803  0.00  0.00    +0.000 NA
ATOM     29  C   UNL     1      11.589  12.063  20.060  0.00  0.00    +0.000 A 
ATOM     30  C   UNL     1      10.283  11.633  20.056  0.00  0.00    +0.000 A 
ATOM     31  C   UNL     1       9.303  11.502  21.165  0.00  0.00    +0.000 C 
ENDBRANCH  25  26
ENDBRANCH  24  25
ENDBRANCH  23  24
ENDBRANCH  21  23
ENDBRANCH  19  21
ENDBRANCH   1  19
TORSDOF 10
ENDMDL
MODEL 3
REMARK VINA RESULT:      -6.7      2.984      5.535
REMARK  Name = 
REMARK  14 active torsions:
REMARK  status: ('A' for Active; 'I' for Inactive)
REMARK    1  A    between atoms: C_1  and  O_2
REMARK    2  A    between atoms: O_2  and  C_3
REMARK    3  A    between atoms: C_6  and  N_7
REMARK    4  A    between atoms: N_7  and  C_8
REMARK    5  A    between atoms: N_7  and  C_20
REMARK    6  A    between atoms: C_8  and  N_10
REMARK    7  A    between atoms: N_10  and  C_11
REMARK    8  A    between atoms: C_11  and  C_12
REMARK    9  A    between atoms: C_12  and  C_13
REMARK   10  A    between atoms: C_13  and  N_14
REMARK   11  A    between atoms: C_18  and  C_19
REMARK   12  A    between atoms: N_23  and  C_24
REMARK   13  A    between atoms: C_28  and  O_29
REMARK   14  A    between atoms: O_29  and  C_30
REMARK                            x       y       z     vdW  Elec       q    Type
REMARK                         _______ _______ _______ _____ _____    ______ ____
ROOT
ATOM      1  N   UNL     1       0.202  10.519  19.817  0.00  0.00    +0.000 N 
ENDROOT
BRANCH   1   2
ATOM      2  C   UNL     1      -1.117  10.538  19.111  0.00  0.00    +0.000 C 
ATOM      3  C   UNL     1      -1.075   9.996  17.676  0.00  0.00    +0.000 C 
ATOM      4  C   UNL     1      -2.479   9.979  17.075  0.00  0.00    +0.000 C 
ATOM      5  N   UNL     1      -3.106  11.308  17.160  0.00  0.00    +0.000 NA
ATOM      6  C   UNL     1      -4.416  11.287  16.502  0.00  0.00    +0.000 C 
ATOM      7  C   UNL     1      -3.261  11.733  18.559  0.00  0.00    +0.000 C 
ATOM      8  C   UNL     1      -1.909  11.845  19.263  0.00  0.00    +0.000 C 
ENDBRANCH   1   2
BRANCH   1  12
ATOM      9  C   UNL     1       2.799  13.981  19.528  0.00  0.00    +0.000 A 
ATOM     10  C   UNL     1       2.632  13.109  18.453  0.00  0.00    +0.000 A 
ATOM     11  C   UNL     1       1.786  11.996  18.541  0.00  0.00    +0.000 A 
ATOM     12  C   UNL     1       1.092  11.679  19.710  0.00  0.00    +0.000 A 
ATOM     13  C   UNL     1       1.356  12.513  20.812  0.00  0.00    +0.000 A 
ATOM     14  C   UNL     1       2.190  13.652  20.743  0.00  0.00    +0.000 A 
BRANCH   9  16
ATOM     15  C   UNL     1       3.040  16.174  18.653  0.00  0.00    +0.000 C 
ATOM     16  O   UNL     1       3.582  15.097  19.417  0.00  0.00    +0.000 OA
ENDBRANCH   9  16
BRANCH  14  17
ATOM     17  O   UNL     1       2.269  14.311  21.944  0.00  0.00    +0.000 OA
ATOM     18  C   UNL     1       1.486  15.476  22.157  0.00  0.00    +0.000 C 
ENDBRANCH  14  17
ENDBRANCH   1  12
BRANCH   1  19
ATOM     19  C   UNL     1       0.631   9.304  20.431  0.00  0.00    +0.000 C 
ATOM     20  S   UNL     1      -0.125   8.539  21.728  0.00  0.00    +0.000 S 
BRANCH  19  21
ATOM     21  N   UNL     1       1.801   8.811  19.877  0.00  0.00    +0.000 N 
ATOM     22  H   UNL     1       2.569   8.824  20.537  0.00  0.00    +0.000 HD
BRANCH  21  23
ATOM     23  C   UNL     1       1.906   7.928  18.719  0.00  0.00    +0.000 C 
BRANCH  23  24
ATOM     24  C   UNL     1       2.899   6.795  18.959  0.00  0.00    +0.000 C 
BRANCH  24  25
ATOM     25  C   UNL     1       2.322   5.712  19.867  0.00  0.00    +0.000 C 
BRANCH  25  26
ATOM     26  N   UNL     1       3.139   4.510  19.888  0.00  0.00    +0.000 N 
ATOM     27  C   UNL     1       4.372   4.404  19.329  0.00  0.00    +0.000 A 
ATOM     28  N   UNL     1       4.869   3.195  19.487  0.00  0.00    +0.000 NA
ATOM     29  C   UNL     1       3.908   2.499  20.171  0.00  0.00    +0.000 A 
ATOM     30  C   UNL     1       2.811   3.289  20.425  0.00  0.00    +0.000 A 
ATOM     31  C   UNL     1       1.532   2.979  21.114  0.00  0.00    +0.000 C 
ENDBRANCH  25  26
ENDBRANCH  24  25
ENDBRANCH  23  24
ENDBRANCH  21  23
ENDBRANCH  19  21
ENDBRANCH   1  19
TORSDOF 10
ENDMDL
MODEL 4
REMARK VINA RESULT:      -6.7      5.952     10.179
REMARK  Name = 
REMARK  14 active torsions:
REMARK  status: ('A' for Active; 'I' for Inactive)
REMARK    1  A    between atoms: C_1  and  O_2
REMARK    2  A    between atoms: O_2  and  C_3
REMARK    3  A    between atoms: C_6  and  N_7
REMARK    4  A    between atoms: N_7  and  C_8
REMARK    5  A    between atoms: N_7  and  C_20
REMARK    6  A    between atoms: C_8  and  N_10
REMARK    7  A    between atoms: N_10  and  C_11
REMARK    8  A    between atoms: C_11  and  C_12
REMARK    9  A    between atoms: C_12  and  C_13
REMARK   10  A    between atoms: C_13  and  N_14
REMARK   11  A    between atoms: C_18  and  C_19
REMARK   12  A    between atoms: N_23  and  C_24
REMARK   13  A    between atoms: C_28  and  O_29
REMARK   14  A    between atoms: O_29  and  C_30
REMARK                            x       y       z     vdW  Elec       q    Type
REMARK                         _______ _______ _______ _____ _____    ______ ____
ROOT
ATOM      1  N   UNL     1       5.892   5.224  17.618  0.00  0.00    +0.000 N 
ENDROOT
BRANCH   1   2
ATOM      2  C   UNL     1       5.996   5.080  16.132  0.00  0.00    +0.000 C 
ATOM      3  C   UNL     1       4.956   4.138  15.512  0.00  0.00    +0.000 C 
ATOM      4  C   UNL     1       5.092   4.127  13.991  0.00  0.00    +0.000 C 
ATOM      5  N   UNL     1       6.468   3.795  13.587  0.00  0.00    +0.000 NA
ATOM      6  C   UNL     1       6.553   3.706  12.126  0.00  0.00    +0.000 C 
ATOM      7  C   UNL     1       7.423   4.799  14.079  0.00  0.00    +0.000 C 
ATOM      8  C   UNL     1       7.424   4.869  15.605  0.00  0.00    +0.000 C 
ENDBRANCH   1   2
BRANCH   1  12
ATOM      9  C   UNL     1       2.480   3.567  19.721  0.00  0.00    +0.000 A 
ATOM     10  C   UNL     1       3.499   2.748  19.236  0.00  0.00    +0.000 A 
ATOM     11  C   UNL     1       4.607   3.282  18.565  0.00  0.00    +0.000 A 
ATOM     12  C   UNL     1       4.739   4.650  18.317  0.00  0.00    +0.000 A 
ATOM     13  C   UNL     1       3.650   5.443  18.723  0.00  0.00    +0.000 A 
ATOM     14  C   UNL     1       2.531   4.931  19.418  0.00  0.00    +0.000 A 
BRANCH   9  16
ATOM     15  C   UNL     1       1.678   2.743  21.797  0.00  0.00    +0.000 C 
ATOM     16  O   UNL     1       1.429   3.044  20.424  0.00  0.00    +0.000 OA
ENDBRANCH   9  16
BRANCH  14  17
ATOM     17  O   UNL     1       1.617   5.908  19.722  0.00  0.00    +0.000 OA
ATOM     18  C   UNL     1       2.068   7.158  20.222  0.00  0.00    +0.000 C 
ENDBRANCH  14  17
ENDBRANCH   1  12
BRANCH   1  19
ATOM     19  C   UNL     1       6.829   6.065  18.290  0.00  0.00    +0.000 C 
ATOM     20  S   UNL     1       7.888   5.579  19.507  0.00  0.00    +0.000 S 
BRANCH  19  21
ATOM     21  N   UNL     1       6.757   7.383  17.873  0.00  0.00    +0.000 N 
ATOM     22  H   UNL     1       5.932   7.850  18.229  0.00  0.00    +0.000 HD
BRANCH  21  23
ATOM     23  C   UNL     1       7.872   8.210  17.419  0.00  0.00    +0.000 C 
BRANCH  23  24
ATOM     24  C   UNL     1       8.520   8.968  18.573  0.00  0.00    +0.000 C 
BRANCH  24  25
ATOM     25  C   UNL     1       8.924  10.384  18.172  0.00  0.00    +0.000 C 
BRANCH  25  26
ATOM     26  N   UNL     1       9.676  11.064  19.213  0.00  0.00    +0.000 N 
ATOM     27  C   UNL     1       9.284  11.166  20.509  0.00  0.00    +0.000 A 
ATOM     28  N   UNL     1      10.154  11.851  21.222  0.00  0.00    +0.000 NA
ATOM     29  C   UNL     1      11.140  12.206  20.340  0.00  0.00    +0.000 A 
ATOM     30  C   UNL     1      10.865  11.740  19.076  0.00  0.00    +0.000 A 
ATOM     31  C   UNL     1      11.620  11.884  17.805  0.00  0.00    +0.000 C 
ENDBRANCH  25  26
ENDBRANCH  24  25
ENDBRANCH  23  24
ENDBRANCH  21  23
ENDBRANCH  19  21
ENDBRANCH   1  19
TORSDOF 10
ENDMDL
MODEL 5
REMARK VINA RESULT:      -6.6      6.280     10.223
REMARK  Name = 
REMARK  14 active torsions:
REMARK  status: ('A' for Active; 'I' for Inactive)
REMARK    1  A    between atoms: C_1  and  O_2
REMARK    2  A    between atoms: O_2  and  C_3
REMARK    3  A    between atoms: C_6  and  N_7
REMARK    4  A    between atoms: N_7  and  C_8
REMARK    5  A    between atoms: N_7  and  C_20
REMARK    6  A    between atoms: C_8  and  N_10
REMARK    7  A    between atoms: N_10  and  C_11
REMARK    8  A    between atoms: C_11  and  C_12
REMARK    9  A    between atoms: C_12  and  C_13
REMARK   10  A    between atoms: C_13  and  N_14
REMARK   11  A    between atoms: C_18  and  C_19
REMARK   12  A    between atoms: N_23  and  C_24
REMARK   13  A    between atoms: C_28  and  O_29
REMARK   14  A    between atoms: O_29  and  C_30
REMARK                            x       y       z     vdW  Elec       q    Type
REMARK                         _______ _______ _______ _____ _____    ______ ____
ROOT
ATOM      1  N   UNL     1       5.920   5.656  17.474  0.00  0.00    +0.000 N 
ENDROOT
BRANCH   1   2
ATOM      2  C   UNL     1       5.995   5.342  16.013  0.00  0.00    +0.000 C 
ATOM      3  C   UNL     1       4.975   4.301  15.535  0.00  0.00    +0.000 C 
ATOM      4  C   UNL     1       5.077   4.114  14.022  0.00  0.00    +0.000 C 
ATOM      5  N   UNL     1       6.454   3.782  13.624  0.00  0.00    +0.000 NA
ATOM      6  C   UNL     1       6.509   3.524  12.181  0.00  0.00    +0.000 C 
ATOM      7  C   UNL     1       7.384   4.867  13.969  0.00  0.00    +0.000 C 
ATOM      8  C   UNL     1       7.417   5.117  15.477  0.00  0.00    +0.000 C 
ENDBRANCH   1   2
BRANCH   1  12
ATOM      9  C   UNL     1       2.268   4.756  19.635  0.00  0.00    +0.000 A 
ATOM     10  C   UNL     1       2.375   5.895  18.836  0.00  0.00    +0.000 A 
ATOM     11  C   UNL     1       3.550   6.182  18.129  0.00  0.00    +0.000 A 
ATOM     12  C   UNL     1       4.684   5.370  18.208  0.00  0.00    +0.000 A 
ATOM     13  C   UNL     1       4.587   4.286  19.100  0.00  0.00    +0.000 A 
ATOM     14  C   UNL     1       3.408   3.965  19.809  0.00  0.00    +0.000 A 
BRANCH   9  16
ATOM     15  C   UNL     1       0.522   3.184  19.968  0.00  0.00    +0.000 C 
ATOM     16  O   UNL     1       1.099   4.452  20.277  0.00  0.00    +0.000 OA
ENDBRANCH   9  16
BRANCH  14  17
ATOM     17  O   UNL     1       3.561   2.851  20.595  0.00  0.00    +0.000 OA
ATOM     18  C   UNL     1       4.563   1.898  20.272  0.00  0.00    +0.000 C 
ENDBRANCH  14  17
ENDBRANCH   1  12
BRANCH   1  19
ATOM     19  C   UNL     1       6.991   6.386  18.072  0.00  0.00    +0.000 C 
ATOM     20  S   UNL     1       8.001   5.820  19.296  0.00  0.00    +0.000 S 
BRANCH  19  21
ATOM     21  N   UNL     1       7.103   7.673  17.573  0.00  0.00    +0.000 N 
ATOM     22  H   UNL     1       6.209   8.147  17.540  0.00  0.00    +0.000 HD
BRANCH  21  23
ATOM     23  C   UNL     1       8.314   8.488  17.544  0.00  0.00    +0.000 C 
BRANCH  23  24
ATOM     24  C   UNL     1       8.048   9.914  18.014  0.00  0.00    +0.000 C 
BRANCH  24  25
ATOM     25  C   UNL     1       9.161  10.436  18.919  0.00  0.00    +0.000 C 
BRANCH  25  26
ATOM     26  N   UNL     1       9.966  11.460  18.277  0.00  0.00    +0.000 N 
ATOM     27  C   UNL     1      11.319  11.422  18.162  0.00  0.00    +0.000 A 
ATOM     28  N   UNL     1      11.780  12.491  17.549  0.00  0.00    +0.000 NA
ATOM     29  C   UNL     1      10.674  13.248  17.266  0.00  0.00    +0.000 A 
ATOM     30  C   UNL     1       9.528  12.637  17.718  0.00  0.00    +0.000 A 
ATOM     31  C   UNL     1       8.109  13.072  17.657  0.00  0.00    +0.000 C 
ENDBRANCH  25  26
ENDBRANCH  24  25
ENDBRANCH  23  24
ENDBRANCH  21  23
ENDBRANCH  19  21
ENDBRANCH   1  19
TORSDOF 10
ENDMDL
MODEL 6
REMARK VINA RESULT:      -6.6      1.453      1.789
REMARK  Name = 
REMARK  14 active torsions:
REMARK  status: ('A' for Active; 'I' for Inactive)
REMARK    1  A    between atoms: C_1  and  O_2
REMARK    2  A    between atoms: O_2  and  C_3
REMARK    3  A    between atoms: C_6  and  N_7
REMARK    4  A    between atoms: N_7  and  C_8
REMARK    5  A    between atoms: N_7  and  C_20
REMARK    6  A    between atoms: C_8  and  N_10
REMARK    7  A    between atoms: N_10  and  C_11
REMARK    8  A    between atoms: C_11  and  C_12
REMARK    9  A    between atoms: C_12  and  C_13
REMARK   10  A    between atoms: C_13  and  N_14
REMARK   11  A    between atoms: C_18  and  C_19
REMARK   12  A    between atoms: N_23  and  C_24
REMARK   13  A    between atoms: C_28  and  O_29
REMARK   14  A    between atoms: O_29  and  C_30
REMARK                            x       y       z     vdW  Elec       q    Type
REMARK                         _______ _______ _______ _____ _____    ______ ____
ROOT
ATOM      1  N   UNL     1       0.227  10.894  19.872  0.00  0.00    +0.000 N 
ENDROOT
BRANCH   1   2
ATOM      2  C   UNL     1       1.220  12.012  19.808  0.00  0.00    +0.000 C 
ATOM      3  C   UNL     1       0.879  13.215  20.697  0.00  0.00    +0.000 C 
ATOM      4  C   UNL     1       1.992  14.259  20.625  0.00  0.00    +0.000 C 
ATOM      5  N   UNL     1       2.264  14.644  19.232  0.00  0.00    +0.000 NA
ATOM      6  C   UNL     1       3.274  15.707  19.195  0.00  0.00    +0.000 C 
ATOM      7  C   UNL     1       2.728  13.493  18.443  0.00  0.00    +0.000 C 
ATOM      8  C   UNL     1       1.671  12.390  18.389  0.00  0.00    +0.000 C 
ENDBRANCH   1   2
BRANCH   1  12
ATOM      9  C   UNL     1      -3.540  11.303  17.762  0.00  0.00    +0.000 A 
ATOM     10  C   UNL     1      -3.329  11.923  18.993  0.00  0.00    +0.000 A 
ATOM     11  C   UNL     1      -2.109  11.800  19.671  0.00  0.00    +0.000 A 
ATOM     12  C   UNL     1      -1.055  11.031  19.175  0.00  0.00    +0.000 A 
ATOM     13  C   UNL     1      -1.328  10.332  17.984  0.00  0.00    +0.000 A 
ATOM     14  C   UNL     1      -2.543  10.454  17.272  0.00  0.00    +0.000 A 
BRANCH   9  16
ATOM     15  C   UNL     1      -5.632  12.416  17.628  0.00  0.00    +0.000 C 
ATOM     16  O   UNL     1      -4.713  11.473  17.078  0.00  0.00    +0.000 OA
ENDBRANCH   9  16
BRANCH  14  17
ATOM     17  O   UNL     1      -2.555   9.690  16.133  0.00  0.00    +0.000 OA
ATOM     18  C   UNL     1      -2.865  10.295  14.886  0.00  0.00    +0.000 C 
ENDBRANCH  14  17
ENDBRANCH   1  12
BRANCH   1  19
ATOM     19  C   UNL     1       0.484   9.801  20.753  0.00  0.00    +0.000 C 
ATOM     20  S   UNL     1      -0.005   9.699  22.362  0.00  0.00    +0.000 S 
BRANCH  19  21
ATOM     21  N   UNL     1       1.246   8.808  20.160  0.00  0.00    +0.000 N 
ATOM     22  H   UNL     1       1.824   9.168  19.411  0.00  0.00    +0.000 HD
BRANCH  21  23
ATOM     23  C   UNL     1       1.616   7.527  20.757  0.00  0.00    +0.000 C 
BRANCH  23  24
ATOM     24  C   UNL     1       2.493   6.700  19.822  0.00  0.00    +0.000 C 
BRANCH  24  25
ATOM     25  C   UNL     1       1.939   5.293  19.615  0.00  0.00    +0.000 C 
BRANCH  25  26
ATOM     26  N   UNL     1       2.957   4.266  19.764  0.00  0.00    +0.000 N 
ATOM     27  C   UNL     1       4.175   4.292  19.164  0.00  0.00    +0.000 A 
ATOM     28  N   UNL     1       4.883   3.224  19.467  0.00  0.00    +0.000 NA
ATOM     29  C   UNL     1       4.079   2.482  20.291  0.00  0.00    +0.000 A 
ATOM     30  C   UNL     1       2.866   3.101  20.486  0.00  0.00    +0.000 A 
ATOM     31  C   UNL     1       1.681   2.681  21.276  0.00  0.00    +0.000 C 
ENDBRANCH  25  26
ENDBRANCH  24  25
ENDBRANCH  23  24
ENDBRANCH  21  23
ENDBRANCH  19  21
ENDBRANCH   1  19
TORSDOF 10
ENDMDL
MODEL 7
REMARK VINA RESULT:      -6.6      5.087      7.728
REMARK  Name = 
REMARK  14 active torsions:
REMARK  status: ('A' for Active; 'I' for Inactive)
REMARK    1  A    between atoms: C_1  and  O_2
REMARK    2  A    between atoms: O_2  and  C_3
REMARK    3  A    between atoms: C_6  and  N_7
REMARK    4  A    between atoms: N_7  and  C_8
REMARK    5  A    between atoms: N_7  and  C_20
REMARK    6  A    between atoms: C_8  and  N_10
REMARK    7  A    between atoms: N_10  and  C_11
REMARK    8  A    between atoms: C_11  and  C_12
REMARK    9  A    between atoms: C_12  and  C_13
REMARK   10  A    between atoms: C_13  and  N_14
REMARK   11  A    between atoms: C_18  and  C_19
REMARK   12  A    between atoms: N_23  and  C_24
REMARK   13  A    between atoms: C_28  and  O_29
REMARK   14  A    between atoms: O_29  and  C_30
REMARK                            x       y       z     vdW  Elec       q    Type
REMARK                         _______ _______ _______ _____ _____    ______ ____
ROOT
ATOM      1  N   UNL     1      -1.717  12.376  18.866  0.00  0.00    +0.000 N 
ENDROOT
BRANCH   1   2
ATOM      2  C   UNL     1      -0.525  13.219  18.535  0.00  0.00    +0.000 C 
ATOM      3  C   UNL     1       0.820  12.491  18.654  0.00  0.00    +0.000 C 
ATOM      4  C   UNL     1       1.959  13.408  18.216  0.00  0.00    +0.000 C 
ATOM      5  N   UNL     1       1.934  14.675  18.964  0.00  0.00    +0.000 NA
ATOM      6  C   UNL     1       3.085  15.501  18.587  0.00  0.00    +0.000 C 
ATOM      7  C   UNL     1       0.689  15.416  18.712  0.00  0.00    +0.000 C 
ATOM      8  C   UNL     1      -0.536  14.621  19.164  0.00  0.00    +0.000 C 
ENDBRANCH   1   2
BRANCH   1  12
ATOM      9  C   UNL     1      -3.201  12.263  22.940  0.00  0.00    +0.000 A 
ATOM     10  C   UNL     1      -3.903  12.923  21.931  0.00  0.00    +0.000 A 
ATOM     11  C   UNL     1      -3.430  12.952  20.613  0.00  0.00    +0.000 A 
ATOM     12  C   UNL     1      -2.224  12.355  20.241  0.00  0.00    +0.000 A 
ATOM     13  C   UNL     1      -1.484  11.786  21.294  0.00  0.00    +0.000 A 
ATOM     14  C   UNL     1      -1.948  11.728  22.628  0.00  0.00    +0.000 A 
BRANCH   9  16
ATOM     15  C   UNL     1      -5.063  12.569  24.379  0.00  0.00    +0.000 C 
ATOM     16  O   UNL     1      -3.697  12.190  24.213  0.00  0.00    +0.000 OA
ENDBRANCH   9  16
BRANCH  14  17
ATOM     17  O   UNL     1      -1.054  11.104  23.461  0.00  0.00    +0.000 OA
ATOM     18  C   UNL     1      -0.456   9.880  23.059  0.00  0.00    +0.000 C 
ENDBRANCH  14  17
ENDBRANCH   1  12
BRANCH   1  19
ATOM     19  C   UNL     1      -2.219  11.482  17.872  0.00  0.00    +0.000 C 
ATOM     20  S   UNL     1      -1.630   9.936  17.554  0.00  0.00    +0.000 S 
BRANCH  19  21
ATOM     21  N   UNL     1      -3.245  12.038  17.126  0.00  0.00    +0.000 N 
ATOM     22  H   UNL     1      -2.903  12.713  16.453  0.00  0.00    +0.000 HD
BRANCH  21  23
ATOM     23  C   UNL     1      -4.568  11.459  16.907  0.00  0.00    +0.000 C 
BRANCH  23  24
ATOM     24  C   UNL     1      -5.161  10.901  18.197  0.00  0.00    +0.000 C 
BRANCH  24  25
ATOM     25  C   UNL     1      -6.677  11.073  18.250  0.00  0.00    +0.000 C 
BRANCH  25  26
ATOM     26  N   UNL     1      -7.113  11.812  19.423  0.00  0.00    +0.000 N 
ATOM     27  C   UNL     1      -7.104  11.325  20.691  0.00  0.00    +0.000 A 
ATOM     28  N   UNL     1      -7.569  12.208  21.548  0.00  0.00    +0.000 NA
ATOM     29  C   UNL     1      -7.894  13.304  20.794  0.00  0.00    +0.000 A 
ATOM     30  C   UNL     1      -7.633  13.083  19.462  0.00  0.00    +0.000 A 
ATOM     31  C   UNL     1      -7.831  13.957  18.278  0.00  0.00    +0.000 C 
ENDBRANCH  25  26
ENDBRANCH  24  25
ENDBRANCH  23  24
ENDBRANCH  21  23
ENDBRANCH  19  21
ENDBRANCH   1  19
TORSDOF 10
ENDMDL
MODEL 8
REMARK VINA RESULT:      -6.6      6.982     10.754
REMARK  Name = 
REMARK  14 active torsions:
REMARK  status: ('A' for Active; 'I' for Inactive)
REMARK    1  A    between atoms: C_1  and  O_2
REMARK    2  A    between atoms: O_2  and  C_3
REMARK    3  A    between atoms: C_6  and  N_7
REMARK    4  A    between atoms: N_7  and  C_8
REMARK    5  A    between atoms: N_7  and  C_20
REMARK    6  A    between atoms: C_8  and  N_10
REMARK    7  A    between atoms: N_10  and  C_11
REMARK    8  A    between atoms: C_11  and  C_12
REMARK    9  A    between atoms: C_12  and  C_13
REMARK   10  A    between atoms: C_13  and  N_14
REMARK   11  A    between atoms: C_18  and  C_19
REMARK   12  A    between atoms: N_23  and  C_24
REMARK   13  A    between atoms: C_28  and  O_29
REMARK   14  A    between atoms: O_29  and  C_30
REMARK                            x       y       z     vdW  Elec       q    Type
REMARK                         _______ _______ _______ _____ _____    ______ ____
ROOT
ATOM      1  N   UNL     1       5.850   5.555  17.648  0.00  0.00    +0.000 N 
ENDROOT
BRANCH   1   2
ATOM      2  C   UNL     1       4.645   5.171  18.449  0.00  0.00    +0.000 C 
ATOM      3  C   UNL     1       4.654   3.722  18.952  0.00  0.00    +0.000 C 
ATOM      4  C   UNL     1       3.429   3.457  19.825  0.00  0.00    +0.000 C 
ATOM      5  N   UNL     1       2.189   3.801  19.112  0.00  0.00    +0.000 NA
ATOM      6  C   UNL     1       1.027   3.458  19.937  0.00  0.00    +0.000 C 
ATOM      7  C   UNL     1       2.151   5.231  18.772  0.00  0.00    +0.000 C 
ATOM      8  C   UNL     1       3.304   5.616  17.846  0.00  0.00    +0.000 C 
ENDBRANCH   1   2
BRANCH   1  12
ATOM      9  C   UNL     1       6.336   4.033  13.615  0.00  0.00    +0.000 A 
ATOM     10  C   UNL     1       5.319   3.567  14.447  0.00  0.00    +0.000 A 
ATOM     11  C   UNL     1       5.154   4.065  15.747  0.00  0.00    +0.000 A 
ATOM     12  C   UNL     1       6.010   5.024  16.291  0.00  0.00    +0.000 A 
ATOM     13  C   UNL     1       7.090   5.402  15.472  0.00  0.00    +0.000 A 
ATOM     14  C   UNL     1       7.267   4.928  14.151  0.00  0.00    +0.000 A 
BRANCH   9  16
ATOM     15  C   UNL     1       5.372   2.801  11.831  0.00  0.00    +0.000 C 
ATOM     16  O   UNL     1       6.457   3.584  12.329  0.00  0.00    +0.000 OA
ENDBRANCH   9  16
BRANCH  14  17
ATOM     17  O   UNL     1       8.381   5.462  13.554  0.00  0.00    +0.000 OA
ATOM     18  C   UNL     1       8.272   6.046  12.264  0.00  0.00    +0.000 C 
ENDBRANCH  14  17
ENDBRANCH   1  12
BRANCH   1  19
ATOM     19  C   UNL     1       6.893   6.287  18.291  0.00  0.00    +0.000 C 
ATOM     20  S   UNL     1       7.961   5.672  19.440  0.00  0.00    +0.000 S 
BRANCH  19  21
ATOM     21  N   UNL     1       6.924   7.618  17.908  0.00  0.00    +0.000 N 
ATOM     22  H   UNL     1       6.121   8.130  18.250  0.00  0.00    +0.000 HD
BRANCH  21  23
ATOM     23  C   UNL     1       8.106   8.378  17.512  0.00  0.00    +0.000 C 
BRANCH  23  24
ATOM     24  C   UNL     1       8.618   9.259  18.648  0.00  0.00    +0.000 C 
BRANCH  24  25
ATOM     25  C   UNL     1       8.814  10.707  18.204  0.00  0.00    +0.000 C 
BRANCH  25  26
ATOM     26  N   UNL     1      10.044  11.284  18.718  0.00  0.00    +0.000 N 
ATOM     27  C   UNL     1      11.156  11.523  17.976  0.00  0.00    +0.000 A 
ATOM     28  N   UNL     1      12.123  12.035  18.708  0.00  0.00    +0.000 NA
ATOM     29  C   UNL     1      11.606  12.122  19.974  0.00  0.00    +0.000 A 
ATOM     30  C   UNL     1      10.315  11.650  20.015  0.00  0.00    +0.000 A 
ATOM     31  C   UNL     1       9.363  11.529  21.149  0.00  0.00    +0.000 C 
ENDBRANCH  25  26
ENDBRANCH  24  25
ENDBRANCH  23  24
ENDBRANCH  21  23
ENDBRANCH  19  21
ENDBRANCH   1  19
TORSDOF 10
ENDMDL
MODEL 9
REMARK VINA RESULT:      -6.5      2.734      5.669
REMARK  Name = 
REMARK  14 active torsions:
REMARK  status: ('A' for Active; 'I' for Inactive)
REMARK    1  A    between atoms: C_1  and  O_2
REMARK    2  A    between atoms: O_2  and  C_3
REMARK    3  A    between atoms: C_6  and  N_7
REMARK    4  A    between atoms: N_7  and  C_8
REMARK    5  A    between atoms: N_7  and  C_20
REMARK    6  A    between atoms: C_8  and  N_10
REMARK    7  A    between atoms: N_10  and  C_11
REMARK    8  A    between atoms: C_11  and  C_12
REMARK    9  A    between atoms: C_12  and  C_13
REMARK   10  A    between atoms: C_13  and  N_14
REMARK   11  A    between atoms: C_18  and  C_19
REMARK   12  A    between atoms: N_23  and  C_24
REMARK   13  A    between atoms: C_28  and  O_29
REMARK   14  A    between atoms: O_29  and  C_30
REMARK                            x       y       z     vdW  Elec       q    Type
REMARK                         _______ _______ _______ _____ _____    ______ ____
ROOT
ATOM      1  N   UNL     1       0.546  10.979  19.093  0.00  0.00    +0.000 N 
ENDROOT
BRANCH   1   2
ATOM      2  C   UNL     1      -0.811  11.198  18.501  0.00  0.00    +0.000 C 
ATOM      3  C   UNL     1      -1.862  11.708  19.495  0.00  0.00    +0.000 C 
ATOM      4  C   UNL     1      -3.182  11.979  18.778  0.00  0.00    +0.000 C 
ATOM      5  N   UNL     1      -3.634  10.790  18.038  0.00  0.00    +0.000 NA
ATOM      6  C   UNL     1      -4.943  11.047  17.429  0.00  0.00    +0.000 C 
ATOM      7  C   UNL     1      -2.668  10.415  16.995  0.00  0.00    +0.000 C 
ATOM      8  C   UNL     1      -1.307  10.061  17.594  0.00  0.00    +0.000 C 
ENDBRANCH   1   2
BRANCH   1  12
ATOM      9  C   UNL     1       3.188  14.380  19.606  0.00  0.00    +0.000 A 
ATOM     10  C   UNL     1       3.136  13.679  18.401  0.00  0.00    +0.000 A 
ATOM     11  C   UNL     1       2.275  12.586  18.230  0.00  0.00    +0.000 A 
ATOM     12  C   UNL     1       1.452  12.119  19.257  0.00  0.00    +0.000 A 
ATOM     13  C   UNL     1       1.598  12.776  20.492  0.00  0.00    +0.000 A 
ATOM     14  C   UNL     1       2.445  13.892  20.684  0.00  0.00    +0.000 A 
BRANCH   9  16
ATOM     15  C   UNL     1       4.064  16.353  18.620  0.00  0.00    +0.000 C 
ATOM     16  O   UNL     1       3.988  15.481  19.747  0.00  0.00    +0.000 OA
ENDBRANCH   9  16
BRANCH  14  17
ATOM     17  O   UNL     1       2.394  14.367  21.971  0.00  0.00    +0.000 OA
ATOM     18  C   UNL     1       1.472  15.394  22.303  0.00  0.00    +0.000 C 
ENDBRANCH  14  17
ENDBRANCH   1  12
BRANCH   1  19
ATOM     19  C   UNL     1       0.984   9.639  19.320  0.00  0.00    +0.000 C 
ATOM     20  S   UNL     1       0.854   8.796  20.773  0.00  0.00    +0.000 S 
BRANCH  19  21
ATOM     21  N   UNL     1       1.597   9.084  18.209  0.00  0.00    +0.000 N 
ATOM     22  H   UNL     1       1.466   9.650  17.380  0.00  0.00    +0.000 HD
BRANCH  21  23
ATOM     23  C   UNL     1       2.695   8.121  18.217  0.00  0.00    +0.000 C 
BRANCH  23  24
ATOM     24  C   UNL     1       2.207   6.706  17.922  0.00  0.00    +0.000 C 
BRANCH  24  25
ATOM     25  C   UNL     1       3.090   5.648  18.580  0.00  0.00    +0.000 C 
BRANCH  25  26
ATOM     26  N   UNL     1       2.564   4.304  18.416  0.00  0.00    +0.000 N 
ATOM     27  C   UNL     1       2.843   3.487  17.367  0.00  0.00    +0.000 A 
ATOM     28  N   UNL     1       2.214   2.335  17.475  0.00  0.00    +0.000 NA
ATOM     29  C   UNL     1       1.499   2.424  18.640  0.00  0.00    +0.000 A 
ATOM     30  C   UNL     1       1.687   3.645  19.244  0.00  0.00    +0.000 A 
ATOM     31  C   UNL     1       1.119   4.203  20.497  0.00  0.00    +0.000 C 
ENDBRANCH  25  26
ENDBRANCH  24  25
ENDBRANCH  23  24
ENDBRANCH  21  23
ENDBRANCH  19  21
ENDBRANCH   1  19
TORSDOF 10
ENDMDL
