MODEL 1
REMARK VINA RESULT:      -8.0      0.000      0.000
REMARK  Name = 
REMARK  2 active torsions:
REMARK  status: ('A' for Active; 'I' for Inactive)
REMARK    1  A    between atoms: C_2  and  C_3
REMARK    2  A    between atoms: C_4  and  C_5
REMARK                            x       y       z     vdW  Elec       q    Type
REMARK                         _______ _______ _______ _____ _____    ______ ____
ROOT
ATOM      1  O   UNL     1       7.620   6.122  16.049  0.00  0.00    +0.000 OA
ATOM      2  C   UNL     1       7.236   6.307  17.202  0.00  0.00    +0.000 C 
ATOM      3  N   UNL     1       6.261   5.550  17.817  0.00  0.00    +0.000 N 
ATOM      4  C   UNL     1       5.611   5.850  19.107  0.00  0.00    +0.000 C 
ATOM      5  C   UNL     1       4.081   5.970  18.955  0.00  0.00    +0.000 C 
ATOM      6  N   UNL     1       3.555   4.811  18.238  0.00  0.00    +0.000 N 
ATOM      7  C   UNL     1       2.566   4.026  18.766  0.00  0.00    +0.000 A 
ATOM      8  N   UNL     1       2.087   4.315  19.987  0.00  0.00    +0.000 NA
ATOM      9  C   UNL     1       1.110   3.535  20.486  0.00  0.00    +0.000 A 
ATOM     10  C   UNL     1       0.583   2.464  19.816  0.00  0.00    +0.000 A 
ATOM     11  C   UNL     1       1.129   2.232  18.583  0.00  0.00    +0.000 A 
ATOM     12  N   UNL     1       2.109   2.986  18.049  0.00  0.00    +0.000 NA
ATOM     13  C   UNL     1       4.169   4.502  16.949  0.00  0.00    +0.000 C 
ATOM     14  C   UNL     1       5.698   4.391  17.112  0.00  0.00    +0.000 C 
ENDROOT
BRANCH   2  15
ATOM     15  C   UNL     1       7.849   7.378  18.015  0.00  0.00    +0.000 C 
ATOM     16  C   UNL     1       7.889   8.627  17.531  0.00  0.00    +0.000 C 
BRANCH  16  17
ATOM     17  C   UNL     1       8.552   9.653  18.257  0.00  0.00    +0.000 A 
ATOM     18  C   UNL     1       8.797  10.970  17.884  0.00  0.00    +0.000 A 
ATOM     19  C   UNL     1       9.546  11.584  18.918  0.00  0.00    +0.000 A 
ATOM     20  C   UNL     1       9.707  10.625  19.883  0.00  0.00    +0.000 A 
ATOM     21  O   UNL     1       9.108   9.471  19.506  0.00  0.00    +0.000 OA
ENDBRANCH  16  17
ENDBRANCH   2  15
TORSDOF 2
ENDMDL
MODEL 2
REMARK VINA RESULT:      -7.4      4.054      6.004
REMARK  Name = 
REMARK  2 active torsions:
REMARK  status: ('A' for Active; 'I' for Inactive)
REMARK    1  A    between atoms: C_2  and  C_3
REMARK    2  A    between atoms: C_4  and  C_5
REMARK                            x       y       z     vdW  Elec       q    Type
REMARK                         _______ _______ _______ _____ _____    ______ ____
ROOT
ATOM      1  O   UNL     1       4.752   3.570  17.958  0.00  0.00    +0.000 OA
ATOM      2  C   UNL     1       4.704   4.712  17.506  0.00  0.00    +0.000 C 
ATOM      3  N   UNL     1       4.208   5.794  18.203  0.00  0.00    +0.000 N 
ATOM      4  C   UNL     1       3.928   7.132  17.648  0.00  0.00    +0.000 C 
ATOM      5  C   UNL     1       2.453   7.532  17.853  0.00  0.00    +0.000 C 
ATOM      6  N   UNL     1       2.068   7.334  19.248  0.00  0.00    +0.000 N 
ATOM      7  C   UNL     1       1.541   8.349  20.000  0.00  0.00    +0.000 A 
ATOM      8  N   UNL     1       1.398   9.564  19.446  0.00  0.00    +0.000 NA
ATOM      9  C   UNL     1       0.871  10.547  20.199  0.00  0.00    +0.000 A 
ATOM     10  C   UNL     1       0.475  10.373  21.498  0.00  0.00    +0.000 A 
ATOM     11  C   UNL     1       0.660   9.109  21.991  0.00  0.00    +0.000 A 
ATOM     12  N   UNL     1       1.185   8.100  21.271  0.00  0.00    +0.000 NA
ATOM     13  C   UNL     1       2.318   6.013  19.817  0.00  0.00    +0.000 C 
ATOM     14  C   UNL     1       3.793   5.621  19.601  0.00  0.00    +0.000 C 
ENDROOT
BRANCH   2  15
ATOM     15  C   UNL     1       5.222   4.983  16.149  0.00  0.00    +0.000 C 
ATOM     16  C   UNL     1       5.932   4.039  15.517  0.00  0.00    +0.000 C 
BRANCH  16  17
ATOM     17  C   UNL     1       6.513   4.311  14.249  0.00  0.00    +0.000 A 
ATOM     18  C   UNL     1       6.275   3.693  13.026  0.00  0.00    +0.000 A 
ATOM     19  C   UNL     1       7.141   4.273  12.068  0.00  0.00    +0.000 A 
ATOM     20  C   UNL     1       7.855   5.231  12.740  0.00  0.00    +0.000 A 
ATOM     21  O   UNL     1       7.480   5.273  14.040  0.00  0.00    +0.000 OA
ENDBRANCH  16  17
ENDBRANCH   2  15
TORSDOF 2
ENDMDL
MODEL 3
REMARK VINA RESULT:      -6.9      3.382      6.210
REMARK  Name = 
REMARK  2 active torsions:
REMARK  status: ('A' for Active; 'I' for Inactive)
REMARK    1  A    between atoms: C_2  and  C_3
REMARK    2  A    between atoms: C_4  and  C_5
REMARK                            x       y       z     vdW  Elec       q    Type
REMARK                         _______ _______ _______ _____ _____    ______ ____
ROOT
ATOM      1  O   UNL     1       7.661   5.978  15.528  0.00  0.00    +0.000 OA
ATOM      2  C   UNL     1       6.809   5.110  15.355  0.00  0.00    +0.000 C 
ATOM      3  N   UNL     1       5.632   5.035  16.070  0.00  0.00    +0.000 N 
ATOM      4  C   UNL     1       4.678   3.910  16.060  0.00  0.00    +0.000 C 
ATOM      5  C   UNL     1       4.464   3.337  17.476  0.00  0.00    +0.000 C 
ATOM      6  N   UNL     1       4.158   4.416  18.413  0.00  0.00    +0.000 N 
ATOM      7  C   UNL     1       3.026   4.402  19.181  0.00  0.00    +0.000 A 
ATOM      8  N   UNL     1       2.161   3.383  19.050  0.00  0.00    +0.000 NA
ATOM      9  C   UNL     1       1.057   3.384  19.819  0.00  0.00    +0.000 A 
ATOM     10  C   UNL     1       0.770   4.369  20.726  0.00  0.00    +0.000 A 
ATOM     11  C   UNL     1       1.696   5.375  20.794  0.00  0.00    +0.000 A 
ATOM     12  N   UNL     1       2.812   5.412  20.041  0.00  0.00    +0.000 NA
ATOM     13  C   UNL     1       5.097   5.534  18.456  0.00  0.00    +0.000 C 
ATOM     14  C   UNL     1       5.308   6.094  17.035  0.00  0.00    +0.000 C 
ENDROOT
BRANCH   2  15
ATOM     15  C   UNL     1       7.012   4.083  14.311  0.00  0.00    +0.000 C 
ATOM     16  C   UNL     1       6.270   4.126  13.196  0.00  0.00    +0.000 C 
BRANCH  16  17
ATOM     17  C   UNL     1       6.387   3.099  12.220  0.00  0.00    +0.000 A 
ATOM     18  C   UNL     1       5.408   2.242  11.730  0.00  0.00    +0.000 A 
ATOM     19  C   UNL     1       6.025   1.351  10.818  0.00  0.00    +0.000 A 
ATOM     20  C   UNL     1       7.345   1.715  10.775  0.00  0.00    +0.000 A 
ATOM     21  O   UNL     1       7.573   2.766  11.598  0.00  0.00    +0.000 OA
ENDBRANCH  16  17
ENDBRANCH   2  15
TORSDOF 2
ENDMDL
MODEL 4
REMARK VINA RESULT:      -6.5      5.595      7.659
REMARK  Name = 
REMARK  2 active torsions:
REMARK  status: ('A' for Active; 'I' for Inactive)
REMARK    1  A    between atoms: C_2  and  C_3
REMARK    2  A    between atoms: C_4  and  C_5
REMARK                            x       y       z     vdW  Elec       q    Type
REMARK                         _______ _______ _______ _____ _____    ______ ____
ROOT
ATOM      1  O   UNL     1       2.002   5.865  20.411  0.00  0.00    +0.000 OA
ATOM      2  C   UNL     1       2.231   6.647  19.491  0.00  0.00    +0.000 C 
ATOM      3  N   UNL     1       1.955   7.997  19.543  0.00  0.00    +0.000 N 
ATOM      4  C   UNL     1       2.006   8.939  18.409  0.00  0.00    +0.000 C 
ATOM      5  C   UNL     1       0.649   9.639  18.194  0.00  0.00    +0.000 C 
ATOM      6  N   UNL     1       0.164  10.194  19.456  0.00  0.00    +0.000 N 
ATOM      7  C   UNL     1      -0.160  11.518  19.582  0.00  0.00    +0.000 A 
ATOM      8  N   UNL     1      -0.002  12.331  18.525  0.00  0.00    +0.000 NA
ATOM      9  C   UNL     1      -0.333  13.628  18.666  0.00  0.00    +0.000 A 
ATOM     10  C   UNL     1      -0.819  14.160  19.831  0.00  0.00    +0.000 A 
ATOM     11  C   UNL     1      -0.943  13.268  20.862  0.00  0.00    +0.000 A 
ATOM     12  N   UNL     1      -0.621  11.964  20.761  0.00  0.00    +0.000 NA
ATOM     13  C   UNL     1       0.087   9.277  20.590  0.00  0.00    +0.000 C 
ATOM     14  C   UNL     1       1.446   8.580  20.791  0.00  0.00    +0.000 C 
ENDROOT
BRANCH   2  15
ATOM     15  C   UNL     1       2.859   6.150  18.249  0.00  0.00    +0.000 C 
ATOM     16  C   UNL     1       4.147   5.780  18.269  0.00  0.00    +0.000 C 
BRANCH  16  17
ATOM     17  C   UNL     1       4.794   5.383  17.067  0.00  0.00    +0.000 A 
ATOM     18  C   UNL     1       5.195   6.166  15.990  0.00  0.00    +0.000 A 
ATOM     19  C   UNL     1       5.738   5.306  15.004  0.00  0.00    +0.000 A 
ATOM     20  C   UNL     1       5.665   4.043  15.528  0.00  0.00    +0.000 A 
ATOM     21  O   UNL     1       5.116   4.076  16.765  0.00  0.00    +0.000 OA
ENDBRANCH  16  17
ENDBRANCH   2  15
TORSDOF 2
ENDMDL
MODEL 5
REMARK VINA RESULT:      -6.4      3.846      6.198
REMARK  Name = 
REMARK  2 active torsions:
REMARK  status: ('A' for Active; 'I' for Inactive)
REMARK    1  A    between atoms: C_2  and  C_3
REMARK    2  A    between atoms: C_4  and  C_5
REMARK                            x       y       z     vdW  Elec       q    Type
REMARK                         _______ _______ _______ _____ _____    ______ ____
ROOT
ATOM      1  O   UNL     1       6.100   6.598  15.205  0.00  0.00    +0.000 OA
ATOM      2  C   UNL     1       5.755   5.421  15.283  0.00  0.00    +0.000 C 
ATOM      3  N   UNL     1       4.845   4.947  16.204  0.00  0.00    +0.000 N 
ATOM      4  C   UNL     1       4.553   3.529  16.488  0.00  0.00    +0.000 C 
ATOM      5  C   UNL     1       4.796   3.187  17.973  0.00  0.00    +0.000 C 
ATOM      6  N   UNL     1       4.115   4.156  18.829  0.00  0.00    +0.000 N 
ATOM      7  C   UNL     1       3.220   3.765  19.787  0.00  0.00    +0.000 A 
ATOM      8  N   UNL     1       2.942   2.458  19.925  0.00  0.00    +0.000 NA
ATOM      9  C   UNL     1       2.065   2.093  20.877  0.00  0.00    +0.000 A 
ATOM     10  C   UNL     1       1.441   2.983  21.711  0.00  0.00    +0.000 A 
ATOM     11  C   UNL     1       1.772   4.295  21.502  0.00  0.00    +0.000 A 
ATOM     12  N   UNL     1       2.643   4.701  20.559  0.00  0.00    +0.000 NA
ATOM     13  C   UNL     1       4.401   5.567  18.580  0.00  0.00    +0.000 C 
ATOM     14  C   UNL     1       4.161   5.895  17.094  0.00  0.00    +0.000 C 
ENDROOT
BRANCH   2  15
ATOM     15  C   UNL     1       6.310   4.432  14.336  0.00  0.00    +0.000 C 
ATOM     16  C   UNL     1       5.637   4.152  13.211  0.00  0.00    +0.000 C 
BRANCH  16  17
ATOM     17  C   UNL     1       6.108   3.140  12.331  0.00  0.00    +0.000 A 
ATOM     18  C   UNL     1       7.369   2.993  11.763  0.00  0.00    +0.000 A 
ATOM     19  C   UNL     1       7.333   1.865  10.907  0.00  0.00    +0.000 A 
ATOM     20  C   UNL     1       6.062   1.362  11.004  0.00  0.00    +0.000 A 
ATOM     21  O   UNL     1       5.324   2.107  11.861  0.00  0.00    +0.000 OA
ENDBRANCH  16  17
ENDBRANCH   2  15
TORSDOF 2
ENDMDL
MODEL 6
REMARK VINA RESULT:      -6.3      6.372      8.817
REMARK  Name = 
REMARK  2 active torsions:
REMARK  status: ('A' for Active; 'I' for Inactive)
REMARK    1  A    between atoms: C_2  and  C_3
REMARK    2  A    between atoms: C_4  and  C_5
REMARK                            x       y       z     vdW  Elec       q    Type
REMARK                         _______ _______ _______ _____ _____    ______ ____
ROOT
ATOM      1  O   UNL     1       2.584   8.260  17.892  0.00  0.00    +0.000 OA
ATOM      2  C   UNL     1       2.071   8.086  18.995  0.00  0.00    +0.000 C 
ATOM      3  N   UNL     1       1.210   8.983  19.592  0.00  0.00    +0.000 N 
ATOM      4  C   UNL     1       0.734   8.936  20.987  0.00  0.00    +0.000 C 
ATOM      5  C   UNL     1       1.090  10.228  21.750  0.00  0.00    +0.000 C 
ATOM      6  N   UNL     1       0.673  11.398  20.980  0.00  0.00    +0.000 N 
ATOM      7  C   UNL     1      -0.156  12.349  21.509  0.00  0.00    +0.000 A 
ATOM      8  N   UNL     1      -0.617  12.189  22.760  0.00  0.00    +0.000 NA
ATOM      9  C   UNL     1      -1.425  13.139  23.265  0.00  0.00    +0.000 A 
ATOM     10  C   UNL     1      -1.802  14.257  22.571  0.00  0.00    +0.000 A 
ATOM     11  C   UNL     1      -1.295  14.343  21.302  0.00  0.00    +0.000 A 
ATOM     12  N   UNL     1      -0.486  13.413  20.759  0.00  0.00    +0.000 NA
ATOM     13  C   UNL     1       1.146  11.478  19.600  0.00  0.00    +0.000 C 
ATOM     14  C   UNL     1       0.790  10.179  18.850  0.00  0.00    +0.000 C 
ENDROOT
BRANCH   2  15
ATOM     15  C   UNL     1       2.351   6.844  19.745  0.00  0.00    +0.000 C 
ATOM     16  C   UNL     1       2.192   5.660  19.136  0.00  0.00    +0.000 C 
BRANCH  16  17
ATOM     17  C   UNL     1       2.370   4.453  19.865  0.00  0.00    +0.000 A 
ATOM     18  C   UNL     1       1.585   3.921  20.881  0.00  0.00    +0.000 A 
ATOM     19  C   UNL     1       2.206   2.731  21.335  0.00  0.00    +0.000 A 
ATOM     20  C   UNL     1       3.329   2.579  20.565  0.00  0.00    +0.000 A 
ATOM     21  O   UNL     1       3.432   3.593  19.674  0.00  0.00    +0.000 OA
ENDBRANCH  16  17
ENDBRANCH   2  15
TORSDOF 2
ENDMDL
MODEL 7
REMARK VINA RESULT:      -6.3      6.715      8.533
REMARK  Name = 
REMARK  2 active torsions:
REMARK  status: ('A' for Active; 'I' for Inactive)
REMARK    1  A    between atoms: C_2  and  C_3
REMARK    2  A    between atoms: C_4  and  C_5
REMARK                            x       y       z     vdW  Elec       q    Type
REMARK                         _______ _______ _______ _____ _____    ______ ____
ROOT
ATOM      1  O   UNL     1       2.078   9.725  17.408  0.00  0.00    +0.000 OA
ATOM      2  C   UNL     1       1.654   9.191  18.431  0.00  0.00    +0.000 C 
ATOM      3  N   UNL     1       0.610   9.690  19.181  0.00  0.00    +0.000 N 
ATOM      4  C   UNL     1       0.197   9.221  20.517  0.00  0.00    +0.000 C 
ATOM      5  C   UNL     1       0.233  10.363  21.554  0.00  0.00    +0.000 C 
ATOM      6  N   UNL     1      -0.486  11.528  21.043  0.00  0.00    +0.000 N 
ATOM      7  C   UNL     1      -1.515  12.100  21.740  0.00  0.00    +0.000 A 
ATOM      8  N   UNL     1      -1.889  11.560  22.912  0.00  0.00    +0.000 NA
ATOM      9  C   UNL     1      -2.898  12.141  23.586  0.00  0.00    +0.000 A 
ATOM     10  C   UNL     1      -3.562  13.252  23.139  0.00  0.00    +0.000 A 
ATOM     11  C   UNL     1      -3.127  13.737  21.935  0.00  0.00    +0.000 A 
ATOM     12  N   UNL     1      -2.123  13.183  21.229  0.00  0.00    +0.000 NA
ATOM     13  C   UNL     1      -0.084  12.023  19.729  0.00  0.00    +0.000 C 
ATOM     14  C   UNL     1      -0.118  10.873  18.704  0.00  0.00    +0.000 C 
ENDROOT
BRANCH   2  15
ATOM     15  C   UNL     1       2.259   7.928  18.901  0.00  0.00    +0.000 C 
ATOM     16  C   UNL     1       2.882   7.132  18.021  0.00  0.00    +0.000 C 
BRANCH  16  17
ATOM     17  C   UNL     1       3.392   5.872  18.436  0.00  0.00    +0.000 A 
ATOM     18  C   UNL     1       2.726   4.659  18.569  0.00  0.00    +0.000 A 
ATOM     19  C   UNL     1       3.647   3.708  19.072  0.00  0.00    +0.000 A 
ATOM     20  C   UNL     1       4.837   4.373  19.204  0.00  0.00    +0.000 A 
ATOM     21  O   UNL     1       4.702   5.663  18.815  0.00  0.00    +0.000 OA
ENDBRANCH  16  17
ENDBRANCH   2  15
TORSDOF 2
ENDMDL
MODEL 8
REMARK VINA RESULT:      -6.1      6.866      8.767
REMARK  Name = 
REMARK  2 active torsions:
REMARK  status: ('A' for Active; 'I' for Inactive)
REMARK    1  A    between atoms: C_2  and  C_3
REMARK    2  A    between atoms: C_4  and  C_5
REMARK                            x       y       z     vdW  Elec       q    Type
REMARK                         _______ _______ _______ _____ _____    ______ ____
ROOT
ATOM      1  O   UNL     1       2.520  10.540  17.516  0.00  0.00    +0.000 OA
ATOM      2  C   UNL     1       1.740   9.865  18.185  0.00  0.00    +0.000 C 
ATOM      3  N   UNL     1       0.740  10.399  18.969  0.00  0.00    +0.000 N 
ATOM      4  C   UNL     1      -0.082   9.665  19.950  0.00  0.00    +0.000 C 
ATOM      5  C   UNL     1       0.043  10.274  21.361  0.00  0.00    +0.000 C 
ATOM      6  N   UNL     1      -0.178  11.717  21.307  0.00  0.00    +0.000 N 
ATOM      7  C   UNL     1      -1.131  12.329  22.075  0.00  0.00    +0.000 A 
ATOM      8  N   UNL     1      -1.900  11.577  22.881  0.00  0.00    +0.000 NA
ATOM      9  C   UNL     1      -2.827  12.198  23.634  0.00  0.00    +0.000 A 
ATOM     10  C   UNL     1      -3.027  13.552  23.620  0.00  0.00    +0.000 A 
ATOM     11  C   UNL     1      -2.209  14.246  22.769  0.00  0.00    +0.000 A 
ATOM     12  N   UNL     1      -1.272  13.662  21.997  0.00  0.00    +0.000 NA
ATOM     13  C   UNL     1       0.635  12.470  20.356  0.00  0.00    +0.000 C 
ATOM     14  C   UNL     1       0.508  11.849  18.952  0.00  0.00    +0.000 C 
ENDROOT
BRANCH   2  15
ATOM     15  C   UNL     1       1.836   8.390  18.152  0.00  0.00    +0.000 C 
ATOM     16  C   UNL     1       3.020   7.815  17.900  0.00  0.00    +0.000 C 
BRANCH  16  17
ATOM     17  C   UNL     1       3.116   6.403  17.776  0.00  0.00    +0.000 A 
ATOM     18  C   UNL     1       2.194   5.428  18.143  0.00  0.00    +0.000 A 
ATOM     19  C   UNL     1       2.770   4.162  17.878  0.00  0.00    +0.000 A 
ATOM     20  C   UNL     1       4.005   4.417  17.344  0.00  0.00    +0.000 A 
ATOM     21  O   UNL     1       4.219   5.751  17.265  0.00  0.00    +0.000 OA
ENDBRANCH  16  17
ENDBRANCH   2  15
TORSDOF 2
ENDMDL
MODEL 9
REMARK VINA RESULT:      -6.1      6.581      8.799
REMARK  Name = 
REMARK  2 active torsions:
REMARK  status: ('A' for Active; 'I' for Inactive)
REMARK    1  A    between atoms: C_2  and  C_3
REMARK    2  A    between atoms: C_4  and  C_5
REMARK                            x       y       z     vdW  Elec       q    Type
REMARK                         _______ _______ _______ _____ _____    ______ ____
ROOT
ATOM      1  O   UNL     1       2.442   8.808  18.306  0.00  0.00    +0.000 OA
ATOM      2  C   UNL     1       1.835   8.400  19.294  0.00  0.00    +0.000 C 
ATOM      3  N   UNL     1       0.768   9.060  19.866  0.00  0.00    +0.000 N 
ATOM      4  C   UNL     1       0.140   8.739  21.162  0.00  0.00    +0.000 C 
ATOM      5  C   UNL     1       0.176   9.946  22.122  0.00  0.00    +0.000 C 
ATOM      6  N   UNL     1      -0.337  11.137  21.450  0.00  0.00    +0.000 N 
ATOM      7  C   UNL     1      -1.373  11.865  21.969  0.00  0.00    +0.000 A 
ATOM      8  N   UNL     1      -1.950  11.457  23.110  0.00  0.00    +0.000 NA
ATOM      9  C   UNL     1      -2.963  12.190  23.608  0.00  0.00    +0.000 A 
ATOM     10  C   UNL     1      -3.436  13.327  23.010  0.00  0.00    +0.000 A 
ATOM     11  C   UNL     1      -2.801  13.672  21.847  0.00  0.00    +0.000 A 
ATOM     12  N   UNL     1      -1.785  12.965  21.316  0.00  0.00    +0.000 NA
ATOM     13  C   UNL     1       0.280  11.488  20.174  0.00  0.00    +0.000 C 
ATOM     14  C   UNL     1       0.245  10.274  19.225  0.00  0.00    +0.000 C 
ENDROOT
BRANCH   2  15
ATOM     15  C   UNL     1       2.228   7.119  19.917  0.00  0.00    +0.000 C 
ATOM     16  C   UNL     1       2.385   6.035  19.144  0.00  0.00    +0.000 C 
BRANCH  16  17
ATOM     17  C   UNL     1       2.676   4.775  19.733  0.00  0.00    +0.000 A 
ATOM     18  C   UNL     1       2.086   4.168  20.836  0.00  0.00    +0.000 A 
ATOM     19  C   UNL     1       2.761   2.945  21.074  0.00  0.00    +0.000 A 
ATOM     20  C   UNL     1       3.717   2.850  20.098  0.00  0.00    +0.000 A 
ATOM     21  O   UNL     1       3.669   3.929  19.283  0.00  0.00    +0.000 OA
ENDBRANCH  16  17
ENDBRANCH   2  15
TORSDOF 2
ENDMDL
