MODEL 1
REMARK VINA RESULT:      -6.3      0.000      0.000
REMARK  Name = 
REMARK  11 active torsions:
REMARK  status: ('A' for Active; 'I' for Inactive)
REMARK    1  A    between atoms: C_1  and  O_2
REMARK    2  A    between atoms: O_2  and  C_3
REMARK    3  A    between atoms: C_10  and  C_11
REMARK    4  A    between atoms: C_11  and  N_12
REMARK    5  A    between atoms: N_12  and  C_13
REMARK    6  A    between atoms: C_13  and  C_14
REMARK    7  A    between atoms: C_14  and  N_15
REMARK    8  A    between atoms: N_15  and  C_16
REMARK    9  A    between atoms: C_16  and  C_17
REMARK   10  A    between atoms: C_17  and  C_18
REMARK   11  A    between atoms: C_17  and  O_19
REMARK                            x       y       z     vdW  Elec       q    Type
REMARK                         _______ _______ _______ _____ _____    ______ ____
ROOT
ATOM      1  C   UNL     1       4.656   4.751  17.187  0.00  0.00    +0.000 C 
ENDROOT
BRANCH   1   9
ATOM      2  C   UNL     1       3.509   3.872  19.315  0.00  0.00    +0.000 A 
ATOM      3  C   UNL     1       2.694   4.143  20.432  0.00  0.00    +0.000 A 
ATOM      4 CL   UNL     1       2.292   2.998  21.671  0.00  0.00    +0.000 Cl
ATOM      5  C   UNL     1       2.160   5.422  20.637  0.00  0.00    +0.000 A 
ATOM      6  C   UNL     1       2.446   6.452  19.752  0.00  0.00    +0.000 A 
ATOM      7 CL   UNL     1       1.800   8.022  20.022  0.00  0.00    +0.000 Cl
ATOM      8  C   UNL     1       3.261   6.218  18.657  0.00  0.00    +0.000 A 
ATOM      9  C   UNL     1       3.804   4.936  18.429  0.00  0.00    +0.000 A 
BRANCH   2  11
ATOM     10  C   UNL     1       3.353   1.618  18.454  0.00  0.00    +0.000 C 
ATOM     11  O   UNL     1       4.117   2.693  18.976  0.00  0.00    +0.000 OA
ENDBRANCH   2  11
ENDBRANCH   1   9
BRANCH   1  12
ATOM     12  N   UNL     1       5.960   4.171  17.528  0.00  0.00    +0.000 NA
ATOM     13  H   UNL     1       5.866   3.154  17.503  0.00  0.00    +0.000 HD
BRANCH  12  14
ATOM     14  C   UNL     1       7.020   4.566  16.592  0.00  0.00    +0.000 C 
BRANCH  14  15
ATOM     15  C   UNL     1       6.509   4.817  15.157  0.00  0.00    +0.000 C 
BRANCH  15  16
ATOM     16  N   UNL     1       6.219   3.555  14.463  0.00  0.00    +0.000 NA
ATOM     17  H   UNL     1       5.290   3.244  14.745  0.00  0.00    +0.000 HD
BRANCH  16  18
ATOM     18  C   UNL     1       6.202   3.784  13.006  0.00  0.00    +0.000 C 
BRANCH  18  19
ATOM     19  C   UNL     1       5.424   2.685  12.257  0.00  0.00    +0.000 C 
ATOM     20  C   UNL     1       4.347   3.243  11.335  0.00  0.00    +0.000 C 
BRANCH  19  21
ATOM     21  O   UNL     1       6.335   1.889  11.494  0.00  0.00    +0.000 OA
ATOM     22  H   UNL     1       7.097   1.715  12.072  0.00  0.00    +0.000 HD
ENDBRANCH  19  21
ENDBRANCH  18  19
ENDBRANCH  16  18
ENDBRANCH  15  16
ENDBRANCH  14  15
ENDBRANCH  12  14
ENDBRANCH   1  12
TORSDOF 9
ENDMDL
MODEL 2
REMARK VINA RESULT:      -6.1      1.518      2.858
REMARK  Name = 
REMARK  11 active torsions:
REMARK  status: ('A' for Active; 'I' for Inactive)
REMARK    1  A    between atoms: C_1  and  O_2
REMARK    2  A    between atoms: O_2  and  C_3
REMARK    3  A    between atoms: C_10  and  C_11
REMARK    4  A    between atoms: C_11  and  N_12
REMARK    5  A    between atoms: N_12  and  C_13
REMARK    6  A    between atoms: C_13  and  C_14
REMARK    7  A    between atoms: C_14  and  N_15
REMARK    8  A    between atoms: N_15  and  C_16
REMARK    9  A    between atoms: C_16  and  C_17
REMARK   10  A    between atoms: C_17  and  C_18
REMARK   11  A    between atoms: C_17  and  O_19
REMARK                            x       y       z     vdW  Elec       q    Type
REMARK                         _______ _______ _______ _____ _____    ______ ____
ROOT
ATOM      1  C   UNL     1       5.179   3.926  18.236  0.00  0.00    +0.000 C 
ENDROOT
BRANCH   1   9
ATOM      2  C   UNL     1       3.628   5.749  19.181  0.00  0.00    +0.000 A 
ATOM      3  C   UNL     1       2.553   6.082  20.027  0.00  0.00    +0.000 A 
ATOM      4 CL   UNL     1       1.871   7.667  20.193  0.00  0.00    +0.000 Cl
ATOM      5  C   UNL     1       1.917   5.099  20.798  0.00  0.00    +0.000 A 
ATOM      6  C   UNL     1       2.324   3.775  20.722  0.00  0.00    +0.000 A 
ATOM      7 CL   UNL     1       1.527   2.575  21.660  0.00  0.00    +0.000 Cl
ATOM      8  C   UNL     1       3.365   3.418  19.882  0.00  0.00    +0.000 A 
ATOM      9  C   UNL     1       4.023   4.391  19.101  0.00  0.00    +0.000 A 
BRANCH   2  11
ATOM     10  C   UNL     1       3.716   7.200  17.248  0.00  0.00    +0.000 C 
ATOM     11  O   UNL     1       4.345   6.576  18.356  0.00  0.00    +0.000 OA
ENDBRANCH   2  11
ENDBRANCH   1   9
BRANCH   1  12
ATOM     12  N   UNL     1       6.447   4.494  18.708  0.00  0.00    +0.000 NA
ATOM     13  H   UNL     1       6.833   3.858  19.408  0.00  0.00    +0.000 HD
BRANCH  12  14
ATOM     14  C   UNL     1       7.433   4.656  17.630  0.00  0.00    +0.000 C 
BRANCH  14  15
ATOM     15  C   UNL     1       6.851   5.315  16.362  0.00  0.00    +0.000 C 
BRANCH  15  16
ATOM     16  N   UNL     1       7.269   4.601  15.147  0.00  0.00    +0.000 NA
ATOM     17  H   UNL     1       7.826   3.794  15.428  0.00  0.00    +0.000 HD
BRANCH  16  18
ATOM     18  C   UNL     1       6.079   4.108  14.428  0.00  0.00    +0.000 C 
BRANCH  18  19
ATOM     19  C   UNL     1       6.421   3.634  13.002  0.00  0.00    +0.000 C 
ATOM     20  C   UNL     1       5.187   3.429  12.133  0.00  0.00    +0.000 C 
BRANCH  19  21
ATOM     21  O   UNL     1       7.287   4.586  12.377  0.00  0.00    +0.000 OA
ATOM     22  H   UNL     1       6.727   5.337  12.117  0.00  0.00    +0.000 HD
ENDBRANCH  19  21
ENDBRANCH  18  19
ENDBRANCH  16  18
ENDBRANCH  15  16
ENDBRANCH  14  15
ENDBRANCH  12  14
ENDBRANCH   1  12
TORSDOF 9
ENDMDL
MODEL 3
REMARK VINA RESULT:      -6.1      2.190      2.485
REMARK  Name = 
REMARK  11 active torsions:
REMARK  status: ('A' for Active; 'I' for Inactive)
REMARK    1  A    between atoms: C_1  and  O_2
REMARK    2  A    between atoms: O_2  and  C_3
REMARK    3  A    between atoms: C_10  and  C_11
REMARK    4  A    between atoms: C_11  and  N_12
REMARK    5  A    between atoms: N_12  and  C_13
REMARK    6  A    between atoms: C_13  and  C_14
REMARK    7  A    between atoms: C_14  and  N_15
REMARK    8  A    between atoms: N_15  and  C_16
REMARK    9  A    between atoms: C_16  and  C_17
REMARK   10  A    between atoms: C_17  and  C_18
REMARK   11  A    between atoms: C_17  and  O_19
REMARK                            x       y       z     vdW  Elec       q    Type
REMARK                         _______ _______ _______ _____ _____    ______ ____
ROOT
ATOM      1  C   UNL     1       5.724   4.316  19.354  0.00  0.00    +0.000 C 
ENDROOT
BRANCH   1   9
ATOM      2  C   UNL     1       3.309   3.507  18.985  0.00  0.00    +0.000 A 
ATOM      3  C   UNL     1       1.981   3.827  18.637  0.00  0.00    +0.000 A 
ATOM      4 CL   UNL     1       0.658   2.708  18.632  0.00  0.00    +0.000 Cl
ATOM      5  C   UNL     1       1.627   5.138  18.291  0.00  0.00    +0.000 A 
ATOM      6  C   UNL     1       2.576   6.149  18.307  0.00  0.00    +0.000 A 
ATOM      7 CL   UNL     1       2.128   7.757  17.897  0.00  0.00    +0.000 Cl
ATOM      8  C   UNL     1       3.884   5.866  18.665  0.00  0.00    +0.000 A 
ATOM      9  C   UNL     1       4.264   4.552  19.011  0.00  0.00    +0.000 A 
BRANCH   2  11
ATOM     10  C   UNL     1       3.776   1.192  18.464  0.00  0.00    +0.000 C 
ATOM     11  O   UNL     1       3.817   2.292  19.359  0.00  0.00    +0.000 OA
ENDBRANCH   2  11
ENDBRANCH   1   9
BRANCH   1  12
ATOM     12  N   UNL     1       6.485   5.569  19.290  0.00  0.00    +0.000 NA
ATOM     13  H   UNL     1       6.910   5.723  20.206  0.00  0.00    +0.000 HD
BRANCH  12  14
ATOM     14  C   UNL     1       7.551   5.534  18.280  0.00  0.00    +0.000 C 
BRANCH  14  15
ATOM     15  C   UNL     1       7.370   6.581  17.161  0.00  0.00    +0.000 C 
BRANCH  15  16
ATOM     16  N   UNL     1       7.177   5.940  15.853  0.00  0.00    +0.000 NA
ATOM     17  H   UNL     1       7.672   5.049  15.859  0.00  0.00    +0.000 HD
BRANCH  16  18
ATOM     18  C   UNL     1       5.742   5.665  15.642  0.00  0.00    +0.000 C 
BRANCH  18  19
ATOM     19  C   UNL     1       5.499   4.242  15.105  0.00  0.00    +0.000 C 
ATOM     20  C   UNL     1       6.236   3.965  13.801  0.00  0.00    +0.000 C 
BRANCH  19  21
ATOM     21  O   UNL     1       5.902   3.285  16.089  0.00  0.00    +0.000 OA
ATOM     22  H   UNL     1       5.638   3.650  16.951  0.00  0.00    +0.000 HD
ENDBRANCH  19  21
ENDBRANCH  18  19
ENDBRANCH  16  18
ENDBRANCH  15  16
ENDBRANCH  14  15
ENDBRANCH  12  14
ENDBRANCH   1  12
TORSDOF 9
ENDMDL
MODEL 4
REMARK VINA RESULT:      -6.1      1.776      2.049
REMARK  Name = 
REMARK  11 active torsions:
REMARK  status: ('A' for Active; 'I' for Inactive)
REMARK    1  A    between atoms: C_1  and  O_2
REMARK    2  A    between atoms: O_2  and  C_3
REMARK    3  A    between atoms: C_10  and  C_11
REMARK    4  A    between atoms: C_11  and  N_12
REMARK    5  A    between atoms: N_12  and  C_13
REMARK    6  A    between atoms: C_13  and  C_14
REMARK    7  A    between atoms: C_14  and  N_15
REMARK    8  A    between atoms: N_15  and  C_16
REMARK    9  A    between atoms: C_16  and  C_17
REMARK   10  A    between atoms: C_17  and  C_18
REMARK   11  A    between atoms: C_17  and  O_19
REMARK                            x       y       z     vdW  Elec       q    Type
REMARK                         _______ _______ _______ _____ _____    ______ ____
ROOT
ATOM      1  C   UNL     1       5.296   4.082  18.149  0.00  0.00    +0.000 C 
ENDROOT
BRANCH   1   9
ATOM      2  C   UNL     1       3.465   3.392  19.819  0.00  0.00    +0.000 A 
ATOM      3  C   UNL     1       2.375   3.778  20.624  0.00  0.00    +0.000 A 
ATOM      4 CL   UNL     1       1.498   2.722  21.683  0.00  0.00    +0.000 Cl
ATOM      5  C   UNL     1       1.934   5.108  20.644  0.00  0.00    +0.000 A 
ATOM      6  C   UNL     1       2.580   6.073  19.886  0.00  0.00    +0.000 A 
ATOM      7 CL   UNL     1       2.041   7.705  19.930  0.00  0.00    +0.000 Cl
ATOM      8  C   UNL     1       3.667   5.725  19.101  0.00  0.00    +0.000 A 
ATOM      9  C   UNL     1       4.124   4.391  19.062  0.00  0.00    +0.000 A 
BRANCH   2  11
ATOM     10  C   UNL     1       4.898   1.655  20.700  0.00  0.00    +0.000 C 
ATOM     11  O   UNL     1       4.028   2.150  19.694  0.00  0.00    +0.000 OA
ENDBRANCH   2  11
ENDBRANCH   1   9
BRANCH   1  12
ATOM     12  N   UNL     1       6.570   4.255  18.856  0.00  0.00    +0.000 NA
ATOM     13  H   UNL     1       6.861   3.341  19.206  0.00  0.00    +0.000 HD
BRANCH  12  14
ATOM     14  C   UNL     1       7.633   4.785  17.990  0.00  0.00    +0.000 C 
BRANCH  14  15
ATOM     15  C   UNL     1       7.348   6.210  17.472  0.00  0.00    +0.000 C 
BRANCH  15  16
ATOM     16  N   UNL     1       7.110   6.217  16.022  0.00  0.00    +0.000 NA
ATOM     17  H   UNL     1       7.807   6.820  15.588  0.00  0.00    +0.000 HD
BRANCH  16  18
ATOM     18  C   UNL     1       7.285   4.854  15.485  0.00  0.00    +0.000 C 
BRANCH  18  19
ATOM     19  C   UNL     1       6.768   4.732  14.039  0.00  0.00    +0.000 C 
ATOM     20  C   UNL     1       7.813   5.118  13.000  0.00  0.00    +0.000 C 
BRANCH  19  21
ATOM     21  O   UNL     1       6.333   3.391  13.798  0.00  0.00    +0.000 OA
ATOM     22  H   UNL     1       7.099   2.916  13.434  0.00  0.00    +0.000 HD
ENDBRANCH  19  21
ENDBRANCH  18  19
ENDBRANCH  16  18
ENDBRANCH  15  16
ENDBRANCH  14  15
ENDBRANCH  12  14
ENDBRANCH   1  12
TORSDOF 9
ENDMDL
MODEL 5
REMARK VINA RESULT:      -6.0      2.090      3.406
REMARK  Name = 
REMARK  11 active torsions:
REMARK  status: ('A' for Active; 'I' for Inactive)
REMARK    1  A    between atoms: C_1  and  O_2
REMARK    2  A    between atoms: O_2  and  C_3
REMARK    3  A    between atoms: C_10  and  C_11
REMARK    4  A    between atoms: C_11  and  N_12
REMARK    5  A    between atoms: N_12  and  C_13
REMARK    6  A    between atoms: C_13  and  C_14
REMARK    7  A    between atoms: C_14  and  N_15
REMARK    8  A    between atoms: N_15  and  C_16
REMARK    9  A    between atoms: C_16  and  C_17
REMARK   10  A    between atoms: C_17  and  C_18
REMARK   11  A    between atoms: C_17  and  O_19
REMARK                            x       y       z     vdW  Elec       q    Type
REMARK                         _______ _______ _______ _____ _____    ______ ____
ROOT
ATOM      1  C   UNL     1       4.875   4.143  18.173  0.00  0.00    +0.000 C 
ENDROOT
BRANCH   1   9
ATOM      2  C   UNL     1       3.332   5.899  19.249  0.00  0.00    +0.000 A 
ATOM      3  C   UNL     1       2.290   6.180  20.154  0.00  0.00    +0.000 A 
ATOM      4 CL   UNL     1       1.585   7.743  20.405  0.00  0.00    +0.000 Cl
ATOM      5  C   UNL     1       1.709   5.158  20.917  0.00  0.00    +0.000 A 
ATOM      6  C   UNL     1       2.138   3.846  20.777  0.00  0.00    +0.000 A 
ATOM      7 CL   UNL     1       1.408   2.599  21.707  0.00  0.00    +0.000 Cl
ATOM      8  C   UNL     1       3.148   3.540  19.880  0.00  0.00    +0.000 A 
ATOM      9  C   UNL     1       3.750   4.553  19.105  0.00  0.00    +0.000 A 
BRANCH   2  11
ATOM     10  C   UNL     1       3.272   7.578  17.510  0.00  0.00    +0.000 C 
ATOM     11  O   UNL     1       3.995   6.768  18.423  0.00  0.00    +0.000 OA
ENDBRANCH   2  11
ENDBRANCH   1   9
BRANCH   1  12
ATOM     12  N   UNL     1       6.145   4.038  18.901  0.00  0.00    +0.000 NA
ATOM     13  H   UNL     1       6.314   3.049  19.095  0.00  0.00    +0.000 HD
BRANCH  12  14
ATOM     14  C   UNL     1       7.283   4.565  18.136  0.00  0.00    +0.000 C 
BRANCH  14  15
ATOM     15  C   UNL     1       7.216   6.090  17.909  0.00  0.00    +0.000 C 
BRANCH  15  16
ATOM     16  N   UNL     1       7.437   6.433  16.498  0.00  0.00    +0.000 NA
ATOM     17  H   UNL     1       8.355   6.083  16.225  0.00  0.00    +0.000 HD
BRANCH  16  18
ATOM     18  C   UNL     1       6.424   5.763  15.660  0.00  0.00    +0.000 C 
BRANCH  18  19
ATOM     19  C   UNL     1       7.064   4.818  14.624  0.00  0.00    +0.000 C 
ATOM     20  C   UNL     1       6.035   4.049  13.806  0.00  0.00    +0.000 C 
BRANCH  19  21
ATOM     21  O   UNL     1       7.901   5.573  13.743  0.00  0.00    +0.000 OA
ATOM     22  H   UNL     1       7.307   6.112  13.195  0.00  0.00    +0.000 HD
ENDBRANCH  19  21
ENDBRANCH  18  19
ENDBRANCH  16  18
ENDBRANCH  15  16
ENDBRANCH  14  15
ENDBRANCH  12  14
ENDBRANCH   1  12
TORSDOF 9
ENDMDL
MODEL 6
REMARK VINA RESULT:      -6.0      1.023      1.222
REMARK  Name = 
REMARK  11 active torsions:
REMARK  status: ('A' for Active; 'I' for Inactive)
REMARK    1  A    between atoms: C_1  and  O_2
REMARK    2  A    between atoms: O_2  and  C_3
REMARK    3  A    between atoms: C_10  and  C_11
REMARK    4  A    between atoms: C_11  and  N_12
REMARK    5  A    between atoms: N_12  and  C_13
REMARK    6  A    between atoms: C_13  and  C_14
REMARK    7  A    between atoms: C_14  and  N_15
REMARK    8  A    between atoms: N_15  and  C_16
REMARK    9  A    between atoms: C_16  and  C_17
REMARK   10  A    between atoms: C_17  and  C_18
REMARK   11  A    between atoms: C_17  and  O_19
REMARK                            x       y       z     vdW  Elec       q    Type
REMARK                         _______ _______ _______ _____ _____    ______ ____
ROOT
ATOM      1  C   UNL     1       4.852   4.639  17.757  0.00  0.00    +0.000 C 
ENDROOT
BRANCH   1   9
ATOM      2  C   UNL     1       3.328   3.679  19.595  0.00  0.00    +0.000 A 
ATOM      3  C   UNL     1       2.341   3.914  20.572  0.00  0.00    +0.000 A 
ATOM      4 CL   UNL     1       1.697   2.713  21.644  0.00  0.00    +0.000 Cl
ATOM      5  C   UNL     1       1.820   5.200  20.770  0.00  0.00    +0.000 A 
ATOM      6  C   UNL     1       2.286   6.269  20.019  0.00  0.00    +0.000 A 
ATOM      7 CL   UNL     1       1.651   7.845  20.282  0.00  0.00    +0.000 Cl
ATOM      8  C   UNL     1       3.270   6.070  19.066  0.00  0.00    +0.000 A 
ATOM      9  C   UNL     1       3.805   4.783  18.846  0.00  0.00    +0.000 A 
BRANCH   2  11
ATOM     10  C   UNL     1       3.299   1.543  18.462  0.00  0.00    +0.000 C 
ATOM     11  O   UNL     1       3.949   2.498  19.284  0.00  0.00    +0.000 OA
ENDBRANCH   2  11
ENDBRANCH   1   9
BRANCH   1  12
ATOM     12  N   UNL     1       6.122   4.160  18.313  0.00  0.00    +0.000 NA
ATOM     13  H   UNL     1       6.300   3.230  17.931  0.00  0.00    +0.000 HD
BRANCH  12  14
ATOM     14  C   UNL     1       7.255   5.031  17.972  0.00  0.00    +0.000 C 
BRANCH  14  15
ATOM     15  C   UNL     1       7.193   5.582  16.532  0.00  0.00    +0.000 C 
BRANCH  15  16
ATOM     16  N   UNL     1       7.275   4.500  15.540  0.00  0.00    +0.000 NA
ATOM     17  H   UNL     1       6.587   3.789  15.788  0.00  0.00    +0.000 HD
BRANCH  16  18
ATOM     18  C   UNL     1       6.929   5.024  14.205  0.00  0.00    +0.000 C 
BRANCH  18  19
ATOM     19  C   UNL     1       6.639   3.895  13.199  0.00  0.00    +0.000 C 
ATOM     20  C   UNL     1       5.149   3.651  12.993  0.00  0.00    +0.000 C 
BRANCH  19  21
ATOM     21  O   UNL     1       7.245   4.208  11.941  0.00  0.00    +0.000 OA
ATOM     22  H   UNL     1       7.561   5.125  12.010  0.00  0.00    +0.000 HD
ENDBRANCH  19  21
ENDBRANCH  18  19
ENDBRANCH  16  18
ENDBRANCH  15  16
ENDBRANCH  14  15
ENDBRANCH  12  14
ENDBRANCH   1  12
TORSDOF 9
ENDMDL
MODEL 7
REMARK VINA RESULT:      -6.0      1.562      1.671
REMARK  Name = 
REMARK  11 active torsions:
REMARK  status: ('A' for Active; 'I' for Inactive)
REMARK    1  A    between atoms: C_1  and  O_2
REMARK    2  A    between atoms: O_2  and  C_3
REMARK    3  A    between atoms: C_10  and  C_11
REMARK    4  A    between atoms: C_11  and  N_12
REMARK    5  A    between atoms: N_12  and  C_13
REMARK    6  A    between atoms: C_13  and  C_14
REMARK    7  A    between atoms: C_14  and  N_15
REMARK    8  A    between atoms: N_15  and  C_16
REMARK    9  A    between atoms: C_16  and  C_17
REMARK   10  A    between atoms: C_17  and  C_18
REMARK   11  A    between atoms: C_17  and  O_19
REMARK                            x       y       z     vdW  Elec       q    Type
REMARK                         _______ _______ _______ _____ _____    ______ ____
ROOT
ATOM      1  C   UNL     1       6.211   4.715  18.133  0.00  0.00    +0.000 C 
ENDROOT
BRANCH   1   9
ATOM      2  C   UNL     1       3.758   4.029  18.500  0.00  0.00    +0.000 A 
ATOM      3  C   UNL     1       2.404   4.415  18.553  0.00  0.00    +0.000 A 
ATOM      4 CL   UNL     1       1.085   3.363  18.951  0.00  0.00    +0.000 Cl
ATOM      5  C   UNL     1       2.028   5.742  18.309  0.00  0.00    +0.000 A 
ATOM      6  C   UNL     1       2.988   6.705  18.032  0.00  0.00    +0.000 A 
ATOM      7 CL   UNL     1       2.516   8.334  17.751  0.00  0.00    +0.000 Cl
ATOM      8  C   UNL     1       4.327   6.356  17.994  0.00  0.00    +0.000 A 
ATOM      9  C   UNL     1       4.729   5.025  18.231  0.00  0.00    +0.000 A 
BRANCH   2  11
ATOM     10  C   UNL     1       4.312   2.243  20.034  0.00  0.00    +0.000 C 
ATOM     11  O   UNL     1       4.295   2.789  18.725  0.00  0.00    +0.000 OA
ENDBRANCH   2  11
ENDBRANCH   1   9
BRANCH   1  12
ATOM     12  N   UNL     1       6.514   3.999  16.888  0.00  0.00    +0.000 NA
ATOM     13  H   UNL     1       5.654   3.552  16.568  0.00  0.00    +0.000 HD
BRANCH  12  14
ATOM     14  C   UNL     1       7.003   4.890  15.827  0.00  0.00    +0.000 C 
BRANCH  14  15
ATOM     15  C   UNL     1       5.925   5.246  14.781  0.00  0.00    +0.000 C 
BRANCH  15  16
ATOM     16  N   UNL     1       5.426   4.046  14.095  0.00  0.00    +0.000 NA
ATOM     17  H   UNL     1       4.553   4.287  13.626  0.00  0.00    +0.000 HD
BRANCH  16  18
ATOM     18  C   UNL     1       6.396   3.623  13.067  0.00  0.00    +0.000 C 
BRANCH  18  19
ATOM     19  C   UNL     1       5.701   3.166  11.771  0.00  0.00    +0.000 C 
ATOM     20  C   UNL     1       5.930   1.691  11.462  0.00  0.00    +0.000 C 
BRANCH  19  21
ATOM     21  O   UNL     1       4.296   3.417  11.867  0.00  0.00    +0.000 OA
ATOM     22  H   UNL     1       3.864   2.547  11.900  0.00  0.00    +0.000 HD
ENDBRANCH  19  21
ENDBRANCH  18  19
ENDBRANCH  16  18
ENDBRANCH  15  16
ENDBRANCH  14  15
ENDBRANCH  12  14
ENDBRANCH   1  12
TORSDOF 9
ENDMDL
MODEL 8
REMARK VINA RESULT:      -6.0      2.322      2.768
REMARK  Name = 
REMARK  11 active torsions:
REMARK  status: ('A' for Active; 'I' for Inactive)
REMARK    1  A    between atoms: C_1  and  O_2
REMARK    2  A    between atoms: O_2  and  C_3
REMARK    3  A    between atoms: C_10  and  C_11
REMARK    4  A    between atoms: C_11  and  N_12
REMARK    5  A    between atoms: N_12  and  C_13
REMARK    6  A    between atoms: C_13  and  C_14
REMARK    7  A    between atoms: C_14  and  N_15
REMARK    8  A    between atoms: N_15  and  C_16
REMARK    9  A    between atoms: C_16  and  C_17
REMARK   10  A    between atoms: C_17  and  C_18
REMARK   11  A    between atoms: C_17  and  O_19
REMARK                            x       y       z     vdW  Elec       q    Type
REMARK                         _______ _______ _______ _____ _____    ______ ____
ROOT
ATOM      1  C   UNL     1       5.898   4.158  19.022  0.00  0.00    +0.000 C 
ENDROOT
BRANCH   1   9
ATOM      2  C   UNL     1       3.444   3.384  18.963  0.00  0.00    +0.000 A 
ATOM      3  C   UNL     1       2.090   3.719  18.768  0.00  0.00    +0.000 A 
ATOM      4 CL   UNL     1       0.759   2.624  18.947  0.00  0.00    +0.000 Cl
ATOM      5  C   UNL     1       1.717   5.028  18.434  0.00  0.00    +0.000 A 
ATOM      6  C   UNL     1       2.676   6.022  18.312  0.00  0.00    +0.000 A 
ATOM      7 CL   UNL     1       2.205   7.628  17.918  0.00  0.00    +0.000 Cl
ATOM      8  C   UNL     1       4.012   5.725  18.518  0.00  0.00    +0.000 A 
ATOM      9  C   UNL     1       4.412   4.413  18.850  0.00  0.00    +0.000 A 
BRANCH   2  11
ATOM     10  C   UNL     1       4.261   1.869  20.661  0.00  0.00    +0.000 C 
ATOM     11  O   UNL     1       3.976   2.169  19.304  0.00  0.00    +0.000 OA
ENDBRANCH   2  11
ENDBRANCH   1   9
BRANCH   1  12
ATOM     12  N   UNL     1       6.564   5.328  19.608  0.00  0.00    +0.000 NA
ATOM     13  H   UNL     1       6.887   5.068  20.541  0.00  0.00    +0.000 HD
BRANCH  12  14
ATOM     14  C   UNL     1       7.719   5.776  18.820  0.00  0.00    +0.000 C 
BRANCH  14  15
ATOM     15  C   UNL     1       7.431   7.032  17.970  0.00  0.00    +0.000 C 
BRANCH  15  16
ATOM     16  N   UNL     1       7.623   6.766  16.537  0.00  0.00    +0.000 NA
ATOM     17  H   UNL     1       8.521   6.299  16.418  0.00  0.00    +0.000 HD
BRANCH  16  18
ATOM     18  C   UNL     1       6.566   5.855  16.057  0.00  0.00    +0.000 C 
BRANCH  18  19
ATOM     19  C   UNL     1       7.115   4.800  15.078  0.00  0.00    +0.000 C 
ATOM     20  C   UNL     1       6.026   3.904  14.499  0.00  0.00    +0.000 C 
BRANCH  19  21
ATOM     21  O   UNL     1       7.808   5.453  14.011  0.00  0.00    +0.000 OA
ATOM     22  H   UNL     1       7.359   5.188  13.190  0.00  0.00    +0.000 HD
ENDBRANCH  19  21
ENDBRANCH  18  19
ENDBRANCH  16  18
ENDBRANCH  15  16
ENDBRANCH  14  15
ENDBRANCH  12  14
ENDBRANCH   1  12
TORSDOF 9
ENDMDL
MODEL 9
REMARK VINA RESULT:      -6.0      1.816      3.244
REMARK  Name = 
REMARK  11 active torsions:
REMARK  status: ('A' for Active; 'I' for Inactive)
REMARK    1  A    between atoms: C_1  and  O_2
REMARK    2  A    between atoms: O_2  and  C_3
REMARK    3  A    between atoms: C_10  and  C_11
REMARK    4  A    between atoms: C_11  and  N_12
REMARK    5  A    between atoms: N_12  and  C_13
REMARK    6  A    between atoms: C_13  and  C_14
REMARK    7  A    between atoms: C_14  and  N_15
REMARK    8  A    between atoms: N_15  and  C_16
REMARK    9  A    between atoms: C_16  and  C_17
REMARK   10  A    between atoms: C_17  and  C_18
REMARK   11  A    between atoms: C_17  and  O_19
REMARK                            x       y       z     vdW  Elec       q    Type
REMARK                         _______ _______ _______ _____ _____    ______ ____
ROOT
ATOM      1  C   UNL     1       3.906   4.686  17.314  0.00  0.00    +0.000 C 
ENDROOT
BRANCH   1   9
ATOM      2  C   UNL     1       2.822   6.313  18.988  0.00  0.00    +0.000 A 
ATOM      3  C   UNL     1       2.057   6.491  20.157  0.00  0.00    +0.000 A 
ATOM      4 CL   UNL     1       1.567   8.023  20.801  0.00  0.00    +0.000 Cl
ATOM      5  C   UNL     1       1.595   5.386  20.885  0.00  0.00    +0.000 A 
ATOM      6  C   UNL     1       1.866   4.097  20.453  0.00  0.00    +0.000 A 
ATOM      7 CL   UNL     1       1.280   2.749  21.345  0.00  0.00    +0.000 Cl
ATOM      8  C   UNL     1       2.599   3.894  19.295  0.00  0.00    +0.000 A 
ATOM      9  C   UNL     1       3.079   4.991  18.549  0.00  0.00    +0.000 A 
BRANCH   2  11
ATOM     10  C   UNL     1       2.494   8.285  17.627  0.00  0.00    +0.000 C 
ATOM     11  O   UNL     1       3.335   7.274  18.156  0.00  0.00    +0.000 OA
ENDBRANCH   2  11
ENDBRANCH   1   9
BRANCH   1  12
ATOM     12  N   UNL     1       5.133   3.964  17.672  0.00  0.00    +0.000 NA
ATOM     13  H   UNL     1       5.459   3.470  16.840  0.00  0.00    +0.000 HD
BRANCH  12  14
ATOM     14  C   UNL     1       6.202   4.857  18.136  0.00  0.00    +0.000 C 
BRANCH  14  15
ATOM     15  C   UNL     1       7.405   4.926  17.172  0.00  0.00    +0.000 C 
BRANCH  15  16
ATOM     16  N   UNL     1       7.081   5.696  15.964  0.00  0.00    +0.000 NA
ATOM     17  H   UNL     1       7.678   6.523  15.943  0.00  0.00    +0.000 HD
BRANCH  16  18
ATOM     18  C   UNL     1       7.378   4.888  14.766  0.00  0.00    +0.000 C 
BRANCH  18  19
ATOM     19  C   UNL     1       6.132   4.146  14.246  0.00  0.00    +0.000 C 
ATOM     20  C   UNL     1       6.264   3.708  12.793  0.00  0.00    +0.000 C 
BRANCH  19  21
ATOM     21  O   UNL     1       5.883   2.999  15.065  0.00  0.00    +0.000 OA
ATOM     22  H   UNL     1       6.193   2.229  14.560  0.00  0.00    +0.000 HD
ENDBRANCH  19  21
ENDBRANCH  18  19
ENDBRANCH  16  18
ENDBRANCH  15  16
ENDBRANCH  14  15
ENDBRANCH  12  14
ENDBRANCH   1  12
TORSDOF 9
ENDMDL
