MODEL 1
REMARK VINA RESULT:      -7.6      0.000      0.000
REMARK  Name = 
REMARK  8 active torsions:
REMARK  status: ('A' for Active; 'I' for Inactive)
REMARK    1  A    between atoms: C_1  and  C_2
REMARK    2  A    between atoms: C_2  and  O_3
REMARK    3  A    between atoms: O_3  and  C_4
REMARK    4  A    between atoms: C_7  and  N_8
REMARK    5  A    between atoms: C_9  and  C_10
REMARK    6  A    between atoms: C_12  and  C_13
REMARK    7  A    between atoms: C_16  and  C_17
REMARK    8  A    between atoms: C_24  and  C_25
REMARK                            x       y       z     vdW  Elec       q    Type
REMARK                         _______ _______ _______ _____ _____    ______ ____
ROOT
ATOM      1  N   UNL     1       4.258   4.708  17.513  0.00  0.00    +0.000 N 
ATOM      2  C   UNL     1       3.842   3.733  18.439  0.00  0.00    +0.000 A 
ATOM      3  C   UNL     1       4.126   2.271  18.296  0.00  0.00    +0.000 C 
ATOM      4  C   UNL     1       3.078   4.372  19.400  0.00  0.00    +0.000 A 
ATOM      5  C   UNL     1       2.487   3.815  20.561  0.00  0.00    +0.000 A 
ATOM      6  C   UNL     1       2.520   2.450  21.157  0.00  0.00    +0.000 C 
ATOM      7  N   UNL     1       1.784   4.752  21.272  0.00  0.00    +0.000 NA
ATOM      8  N   UNL     1       1.618   6.144  20.871  0.00  0.00    +0.000 NA
ATOM      9  C   UNL     1       2.159   6.691  19.739  0.00  0.00    +0.000 A 
ATOM     10  C   UNL     1       2.933   5.753  19.011  0.00  0.00    +0.000 A 
ATOM     11  C   UNL     1       3.753   5.961  17.913  0.00  0.00    +0.000 A 
ATOM     12  C   UNL     1       4.209   7.250  17.293  0.00  0.00    +0.000 C 
ENDROOT
BRANCH   1  16
ATOM     13  C   UNL     1       6.729   4.421  14.072  0.00  0.00    +0.000 A 
ATOM     14  C   UNL     1       5.391   4.039  14.010  0.00  0.00    +0.000 A 
ATOM     15  C   UNL     1       4.594   4.062  15.158  0.00  0.00    +0.000 A 
ATOM     16  C   UNL     1       5.120   4.509  16.379  0.00  0.00    +0.000 A 
ATOM     17  C   UNL     1       6.478   4.834  16.448  0.00  0.00    +0.000 A 
ATOM     18  C   UNL     1       7.284   4.758  15.306  0.00  0.00    +0.000 A 
BRANCH  13  19
ATOM     19  O   UNL     1       7.393   4.438  12.876  0.00  0.00    +0.000 OA
BRANCH  19  21
ATOM     20  C   UNL     1       7.359   2.528  11.439  0.00  0.00    +0.000 C 
ATOM     21  C   UNL     1       6.699   3.853  11.772  0.00  0.00    +0.000 C 
ENDBRANCH  19  21
ENDBRANCH  13  19
ENDBRANCH   1  16
BRANCH   9  22
ATOM     22  C   UNL     1       1.796   8.068  19.422  0.00  0.00    +0.000 A 
ATOM     23  C   UNL     1       1.329   8.932  20.430  0.00  0.00    +0.000 A 
ATOM     24  C   UNL     1       0.925  10.240  20.142  0.00  0.00    +0.000 A 
ATOM     25  C   UNL     1       0.995  10.717  18.837  0.00  0.00    +0.000 A 
ATOM     26  C   UNL     1       1.441   9.880  17.820  0.00  0.00    +0.000 A 
ATOM     27  C   UNL     1       1.806   8.562  18.108  0.00  0.00    +0.000 A 
ENDBRANCH   9  22
TORSDOF 4
ENDMDL
MODEL 2
REMARK VINA RESULT:      -7.6      2.720      7.256
REMARK  Name = 
REMARK  8 active torsions:
REMARK  status: ('A' for Active; 'I' for Inactive)
REMARK    1  A    between atoms: C_1  and  C_2
REMARK    2  A    between atoms: C_2  and  O_3
REMARK    3  A    between atoms: O_3  and  C_4
REMARK    4  A    between atoms: C_7  and  N_8
REMARK    5  A    between atoms: C_9  and  C_10
REMARK    6  A    between atoms: C_12  and  C_13
REMARK    7  A    between atoms: C_16  and  C_17
REMARK    8  A    between atoms: C_24  and  C_25
REMARK                            x       y       z     vdW  Elec       q    Type
REMARK                         _______ _______ _______ _____ _____    ______ ____
ROOT
ATOM      1  N   UNL     1       2.448   6.463  18.956  0.00  0.00    +0.000 N 
ATOM      2  C   UNL     1       2.010   5.312  19.637  0.00  0.00    +0.000 A 
ATOM      3  C   UNL     1       1.139   5.341  20.852  0.00  0.00    +0.000 C 
ATOM      4  C   UNL     1       2.604   4.219  19.030  0.00  0.00    +0.000 A 
ATOM      5  C   UNL     1       2.426   2.845  19.331  0.00  0.00    +0.000 A 
ATOM      6  C   UNL     1       1.552   2.128  20.302  0.00  0.00    +0.000 C 
ATOM      7  N   UNL     1       3.196   2.046  18.528  0.00  0.00    +0.000 NA
ATOM      8  N   UNL     1       4.124   2.535  17.517  0.00  0.00    +0.000 NA
ATOM      9  C   UNL     1       4.329   3.859  17.232  0.00  0.00    +0.000 A 
ATOM     10  C   UNL     1       3.506   4.706  18.015  0.00  0.00    +0.000 A 
ATOM     11  C   UNL     1       3.312   6.074  17.913  0.00  0.00    +0.000 A 
ATOM     12  C   UNL     1       3.760   7.024  16.841  0.00  0.00    +0.000 C 
ENDROOT
BRANCH   1  16
ATOM     13  C   UNL     1       0.943  10.375  19.629  0.00  0.00    +0.000 A 
ATOM     14  C   UNL     1       1.348   9.989  18.353  0.00  0.00    +0.000 A 
ATOM     15  C   UNL     1       1.912   8.727  18.142  0.00  0.00    +0.000 A 
ATOM     16  C   UNL     1       2.041   7.820  19.204  0.00  0.00    +0.000 A 
ATOM     17  C   UNL     1       1.688   8.236  20.492  0.00  0.00    +0.000 A 
ATOM     18  C   UNL     1       1.173   9.520  20.705  0.00  0.00    +0.000 A 
BRANCH  13  19
ATOM     19  O   UNL     1       0.330  11.596  19.707  0.00  0.00    +0.000 OA
BRANCH  19  21
ATOM     20  C   UNL     1      -1.972  11.556  19.058  0.00  0.00    +0.000 C 
ATOM     21  C   UNL     1      -0.560  11.914  18.634  0.00  0.00    +0.000 C 
ENDBRANCH  19  21
ENDBRANCH  13  19
ENDBRANCH   1  16
BRANCH   9  22
ATOM     22  C   UNL     1       5.381   4.182  16.274  0.00  0.00    +0.000 A 
ATOM     23  C   UNL     1       6.594   4.746  16.713  0.00  0.00    +0.000 A 
ATOM     24  C   UNL     1       7.597   5.114  15.809  0.00  0.00    +0.000 A 
ATOM     25  C   UNL     1       7.412   4.909  14.446  0.00  0.00    +0.000 A 
ATOM     26  C   UNL     1       6.218   4.365  13.985  0.00  0.00    +0.000 A 
ATOM     27  C   UNL     1       5.204   4.036  14.890  0.00  0.00    +0.000 A 
ENDBRANCH   9  22
TORSDOF 4
ENDMDL
MODEL 3
REMARK VINA RESULT:      -7.5      2.726      7.320
REMARK  Name = 
REMARK  8 active torsions:
REMARK  status: ('A' for Active; 'I' for Inactive)
REMARK    1  A    between atoms: C_1  and  C_2
REMARK    2  A    between atoms: C_2  and  O_3
REMARK    3  A    between atoms: O_3  and  C_4
REMARK    4  A    between atoms: C_7  and  N_8
REMARK    5  A    between atoms: C_9  and  C_10
REMARK    6  A    between atoms: C_12  and  C_13
REMARK    7  A    between atoms: C_16  and  C_17
REMARK    8  A    between atoms: C_24  and  C_25
REMARK                            x       y       z     vdW  Elec       q    Type
REMARK                         _______ _______ _______ _____ _____    ______ ____
ROOT
ATOM      1  N   UNL     1       2.451   6.488  18.949  0.00  0.00    +0.000 N 
ATOM      2  C   UNL     1       2.038   5.323  19.623  0.00  0.00    +0.000 A 
ATOM      3  C   UNL     1       1.181   5.326  20.849  0.00  0.00    +0.000 C 
ATOM      4  C   UNL     1       2.641   4.246  18.997  0.00  0.00    +0.000 A 
ATOM      5  C   UNL     1       2.487   2.867  19.285  0.00  0.00    +0.000 A 
ATOM      6  C   UNL     1       1.635   2.126  20.258  0.00  0.00    +0.000 C 
ATOM      7  N   UNL     1       3.260   2.088  18.465  0.00  0.00    +0.000 NA
ATOM      8  N   UNL     1       4.169   2.602  17.448  0.00  0.00    +0.000 NA
ATOM      9  C   UNL     1       4.350   3.931  17.176  0.00  0.00    +0.000 A 
ATOM     10  C   UNL     1       3.525   4.757  17.978  0.00  0.00    +0.000 A 
ATOM     11  C   UNL     1       3.309   6.124  17.893  0.00  0.00    +0.000 A 
ATOM     12  C   UNL     1       3.730   7.092  16.826  0.00  0.00    +0.000 C 
ENDROOT
BRANCH   1  16
ATOM     13  C   UNL     1       0.895  10.369  19.685  0.00  0.00    +0.000 A 
ATOM     14  C   UNL     1       1.284  10.001  18.399  0.00  0.00    +0.000 A 
ATOM     15  C   UNL     1       1.864   8.751  18.167  0.00  0.00    +0.000 A 
ATOM     16  C   UNL     1       2.026   7.836  19.217  0.00  0.00    +0.000 A 
ATOM     17  C   UNL     1       1.690   8.235  20.515  0.00  0.00    +0.000 A 
ATOM     18  C   UNL     1       1.158   9.508  20.749  0.00  0.00    +0.000 A 
BRANCH  13  19
ATOM     19  O   UNL     1       0.264  11.579  19.785  0.00  0.00    +0.000 OA
BRANCH  19  21
ATOM     20  C   UNL     1      -0.361  13.430  18.406  0.00  0.00    +0.000 C 
ATOM     21  C   UNL     1       0.796  12.627  18.972  0.00  0.00    +0.000 C 
ENDBRANCH  19  21
ENDBRANCH  13  19
ENDBRANCH   1  16
BRANCH   9  22
ATOM     22  C   UNL     1       5.387   4.281  16.210  0.00  0.00    +0.000 A 
ATOM     23  C   UNL     1       5.205   4.011  14.841  0.00  0.00    +0.000 A 
ATOM     24  C   UNL     1       6.205   4.289  13.903  0.00  0.00    +0.000 A 
ATOM     25  C   UNL     1       7.406   4.858  14.315  0.00  0.00    +0.000 A 
ATOM     26  C   UNL     1       7.616   5.122  15.664  0.00  0.00    +0.000 A 
ATOM     27  C   UNL     1       6.628   4.807  16.602  0.00  0.00    +0.000 A 
ENDBRANCH   9  22
TORSDOF 4
ENDMDL
MODEL 4
REMARK VINA RESULT:      -7.1      2.694      7.228
REMARK  Name = 
REMARK  8 active torsions:
REMARK  status: ('A' for Active; 'I' for Inactive)
REMARK    1  A    between atoms: C_1  and  C_2
REMARK    2  A    between atoms: C_2  and  O_3
REMARK    3  A    between atoms: O_3  and  C_4
REMARK    4  A    between atoms: C_7  and  N_8
REMARK    5  A    between atoms: C_9  and  C_10
REMARK    6  A    between atoms: C_12  and  C_13
REMARK    7  A    between atoms: C_16  and  C_17
REMARK    8  A    between atoms: C_24  and  C_25
REMARK                            x       y       z     vdW  Elec       q    Type
REMARK                         _______ _______ _______ _____ _____    ______ ____
ROOT
ATOM      1  N   UNL     1       2.384   6.704  19.001  0.00  0.00    +0.000 N 
ATOM      2  C   UNL     1       2.019   5.620  19.821  0.00  0.00    +0.000 A 
ATOM      3  C   UNL     1       1.179   5.749  21.052  0.00  0.00    +0.000 C 
ATOM      4  C   UNL     1       2.648   4.492  19.322  0.00  0.00    +0.000 A 
ATOM      5  C   UNL     1       2.543   3.155  19.782  0.00  0.00    +0.000 A 
ATOM      6  C   UNL     1       1.729   2.515  20.853  0.00  0.00    +0.000 C 
ATOM      7  N   UNL     1       3.329   2.305  19.050  0.00  0.00    +0.000 NA
ATOM      8  N   UNL     1       4.207   2.716  17.962  0.00  0.00    +0.000 NA
ATOM      9  C   UNL     1       4.342   4.006  17.524  0.00  0.00    +0.000 A 
ATOM     10  C   UNL     1       3.500   4.900  18.232  0.00  0.00    +0.000 A 
ATOM     11  C   UNL     1       3.239   6.238  17.983  0.00  0.00    +0.000 A 
ATOM     12  C   UNL     1       3.614   7.079  16.798  0.00  0.00    +0.000 C 
ENDROOT
BRANCH   1  16
ATOM     13  C   UNL     1       1.308  10.790  19.418  0.00  0.00    +0.000 A 
ATOM     14  C   UNL     1       1.147   9.909  20.485  0.00  0.00    +0.000 A 
ATOM     15  C   UNL     1       1.431   8.550  20.328  0.00  0.00    +0.000 A 
ATOM     16  C   UNL     1       1.920   8.061  19.108  0.00  0.00    +0.000 A 
ATOM     17  C   UNL     1       2.022   8.939  18.024  0.00  0.00    +0.000 A 
ATOM     18  C   UNL     1       1.686  10.290  18.172  0.00  0.00    +0.000 A 
BRANCH  13  19
ATOM     19  O   UNL     1       1.081  12.109  19.703  0.00  0.00    +0.000 OA
BRANCH  19  21
ATOM     20  C   UNL     1      -0.356  13.448  18.340  0.00  0.00    +0.000 C 
ATOM     21  C   UNL     1       1.072  12.995  18.581  0.00  0.00    +0.000 C 
ENDBRANCH  19  21
ENDBRANCH  13  19
ENDBRANCH   1  16
BRANCH   9  22
ATOM     22  C   UNL     1       5.353   4.265  16.504  0.00  0.00    +0.000 A 
ATOM     23  C   UNL     1       6.594   4.827  16.858  0.00  0.00    +0.000 A 
ATOM     24  C   UNL     1       7.558   5.133  15.892  0.00  0.00    +0.000 A 
ATOM     25  C   UNL     1       7.306   4.868  14.550  0.00  0.00    +0.000 A 
ATOM     26  C   UNL     1       6.083   4.325  14.172  0.00  0.00    +0.000 A 
ATOM     27  C   UNL     1       5.108   4.057  15.138  0.00  0.00    +0.000 A 
ENDBRANCH   9  22
TORSDOF 4
ENDMDL
MODEL 5
REMARK VINA RESULT:      -7.1      4.768      8.347
REMARK  Name = 
REMARK  8 active torsions:
REMARK  status: ('A' for Active; 'I' for Inactive)
REMARK    1  A    between atoms: C_1  and  C_2
REMARK    2  A    between atoms: C_2  and  O_3
REMARK    3  A    between atoms: O_3  and  C_4
REMARK    4  A    between atoms: C_7  and  N_8
REMARK    5  A    between atoms: C_9  and  C_10
REMARK    6  A    between atoms: C_12  and  C_13
REMARK    7  A    between atoms: C_16  and  C_17
REMARK    8  A    between atoms: C_24  and  C_25
REMARK                            x       y       z     vdW  Elec       q    Type
REMARK                         _______ _______ _______ _____ _____    ______ ____
ROOT
ATOM      1  N   UNL     1      -0.653  10.552  19.328  0.00  0.00    +0.000 N 
ATOM      2  C   UNL     1      -1.821  10.575  18.543  0.00  0.00    +0.000 A 
ATOM      3  C   UNL     1      -2.007   9.769  17.298  0.00  0.00    +0.000 C 
ATOM      4  C   UNL     1      -2.670  11.522  19.091  0.00  0.00    +0.000 A 
ATOM      5  C   UNL     1      -3.982  11.864  18.678  0.00  0.00    +0.000 A 
ATOM      6  C   UNL     1      -4.882  11.326  17.620  0.00  0.00    +0.000 C 
ATOM      7  N   UNL     1      -4.512  12.864  19.450  0.00  0.00    +0.000 NA
ATOM      8  N   UNL     1      -3.807  13.536  20.535  0.00  0.00    +0.000 NA
ATOM      9  C   UNL     1      -2.530  13.237  20.928  0.00  0.00    +0.000 A 
ATOM     10  C   UNL     1      -1.977  12.170  20.177  0.00  0.00    +0.000 A 
ATOM     11  C   UNL     1      -0.788  11.486  20.374  0.00  0.00    +0.000 A 
ATOM     12  C   UNL     1       0.163  11.541  21.534  0.00  0.00    +0.000 C 
ENDROOT
BRANCH   1  16
ATOM     13  C   UNL     1       2.479   7.744  18.752  0.00  0.00    +0.000 A 
ATOM     14  C   UNL     1       1.834   7.834  19.984  0.00  0.00    +0.000 A 
ATOM     15  C   UNL     1       0.854   8.806  20.199  0.00  0.00    +0.000 A 
ATOM     16  C   UNL     1       0.478   9.677  19.167  0.00  0.00    +0.000 A 
ATOM     17  C   UNL     1       1.170   9.622  17.953  0.00  0.00    +0.000 A 
ATOM     18  C   UNL     1       2.188   8.680  17.761  0.00  0.00    +0.000 A 
BRANCH  13  19
ATOM     19  O   UNL     1       3.361   6.706  18.623  0.00  0.00    +0.000 OA
BRANCH  19  21
ATOM     20  C   UNL     1       2.163   4.772  17.886  0.00  0.00    +0.000 C 
ATOM     21  C   UNL     1       2.883   5.428  19.050  0.00  0.00    +0.000 C 
ENDBRANCH  19  21
ENDBRANCH  13  19
ENDBRANCH   1  16
BRANCH   9  22
ATOM     22  C   UNL     1      -1.929  14.085  21.951  0.00  0.00    +0.000 A 
ATOM     23  C   UNL     1      -1.038  15.114  21.591  0.00  0.00    +0.000 A 
ATOM     24  C   UNL     1      -0.409  15.907  22.557  0.00  0.00    +0.000 A 
ATOM     25  C   UNL     1      -0.670  15.695  23.907  0.00  0.00    +0.000 A 
ATOM     26  C   UNL     1      -1.535  14.677  24.291  0.00  0.00    +0.000 A 
ATOM     27  C   UNL     1      -2.132  13.863  23.323  0.00  0.00    +0.000 A 
ENDBRANCH   9  22
TORSDOF 4
ENDMDL
MODEL 6
REMARK VINA RESULT:      -7.0      9.386     12.437
REMARK  Name = 
REMARK  8 active torsions:
REMARK  status: ('A' for Active; 'I' for Inactive)
REMARK    1  A    between atoms: C_1  and  C_2
REMARK    2  A    between atoms: C_2  and  O_3
REMARK    3  A    between atoms: O_3  and  C_4
REMARK    4  A    between atoms: C_7  and  N_8
REMARK    5  A    between atoms: C_9  and  C_10
REMARK    6  A    between atoms: C_12  and  C_13
REMARK    7  A    between atoms: C_16  and  C_17
REMARK    8  A    between atoms: C_24  and  C_25
REMARK                            x       y       z     vdW  Elec       q    Type
REMARK                         _______ _______ _______ _____ _____    ______ ____
ROOT
ATOM      1  N   UNL     1       7.037  13.690  22.614  0.00  0.00    +0.000 N 
ATOM      2  C   UNL     1       6.174  14.683  22.113  0.00  0.00    +0.000 A 
ATOM      3  C   UNL     1       4.903  15.100  22.782  0.00  0.00    +0.000 C 
ATOM      4  C   UNL     1       6.680  15.096  20.893  0.00  0.00    +0.000 A 
ATOM      5  C   UNL     1       6.185  16.113  20.039  0.00  0.00    +0.000 A 
ATOM      6  C   UNL     1       5.057  17.078  20.163  0.00  0.00    +0.000 C 
ATOM      7  N   UNL     1       6.939  16.230  18.900  0.00  0.00    +0.000 NA
ATOM      8  N   UNL     1       8.082  15.388  18.573  0.00  0.00    +0.000 NA
ATOM      9  C   UNL     1       8.556  14.384  19.373  0.00  0.00    +0.000 A 
ATOM     10  C   UNL     1       7.824  14.275  20.581  0.00  0.00    +0.000 A 
ATOM     11  C   UNL     1       8.089  13.497  21.697  0.00  0.00    +0.000 A 
ATOM     12  C   UNL     1       9.312  12.694  22.032  0.00  0.00    +0.000 C 
ENDROOT
BRANCH   1  16
ATOM     13  C   UNL     1       6.474  11.881  26.413  0.00  0.00    +0.000 A 
ATOM     14  C   UNL     1       7.237  13.040  26.294  0.00  0.00    +0.000 A 
ATOM     15  C   UNL     1       7.486  13.596  25.036  0.00  0.00    +0.000 A 
ATOM     16  C   UNL     1       6.937  13.019  23.882  0.00  0.00    +0.000 A 
ATOM     17  C   UNL     1       6.222  11.823  24.003  0.00  0.00    +0.000 A 
ATOM     18  C   UNL     1       6.021  11.241  25.260  0.00  0.00    +0.000 A 
BRANCH  13  19
ATOM     19  O   UNL     1       6.224  11.470  27.694  0.00  0.00    +0.000 OA
BRANCH  19  21
ATOM     20  C   UNL     1       6.407   9.307  28.698  0.00  0.00    +0.000 C 
ATOM     21  C   UNL     1       5.558  10.211  27.824  0.00  0.00    +0.000 C 
ENDBRANCH  19  21
ENDBRANCH  13  19
ENDBRANCH   1  16
BRANCH   9  22
ATOM     22  C   UNL     1       9.635  13.557  18.842  0.00  0.00    +0.000 A 
ATOM     23  C   UNL     1       9.355  12.304  18.266  0.00  0.00    +0.000 A 
ATOM     24  C   UNL     1      10.377  11.471  17.798  0.00  0.00    +0.000 A 
ATOM     25  C   UNL     1      11.703  11.883  17.883  0.00  0.00    +0.000 A 
ATOM     26  C   UNL     1      12.008  13.111  18.459  0.00  0.00    +0.000 A 
ATOM     27  C   UNL     1      10.985  13.922  18.960  0.00  0.00    +0.000 A 
ENDBRANCH   9  22
TORSDOF 4
ENDMDL
MODEL 7
REMARK VINA RESULT:      -7.0      5.088      8.694
REMARK  Name = 
REMARK  8 active torsions:
REMARK  status: ('A' for Active; 'I' for Inactive)
REMARK    1  A    between atoms: C_1  and  C_2
REMARK    2  A    between atoms: C_2  and  O_3
REMARK    3  A    between atoms: O_3  and  C_4
REMARK    4  A    between atoms: C_7  and  N_8
REMARK    5  A    between atoms: C_9  and  C_10
REMARK    6  A    between atoms: C_12  and  C_13
REMARK    7  A    between atoms: C_16  and  C_17
REMARK    8  A    between atoms: C_24  and  C_25
REMARK                            x       y       z     vdW  Elec       q    Type
REMARK                         _______ _______ _______ _____ _____    ______ ____
ROOT
ATOM      1  N   UNL     1      -0.205  11.082  19.679  0.00  0.00    +0.000 N 
ATOM      2  C   UNL     1       0.266  12.280  20.248  0.00  0.00    +0.000 A 
ATOM      3  C   UNL     1       1.671  12.486  20.718  0.00  0.00    +0.000 C 
ATOM      4  C   UNL     1      -0.814  13.140  20.358  0.00  0.00    +0.000 A 
ATOM      5  C   UNL     1      -0.823  14.479  20.823  0.00  0.00    +0.000 A 
ATOM      6  C   UNL     1       0.257  15.400  21.274  0.00  0.00    +0.000 C 
ATOM      7  N   UNL     1      -2.085  15.012  20.806  0.00  0.00    +0.000 NA
ATOM      8  N   UNL     1      -3.286  14.289  20.408  0.00  0.00    +0.000 NA
ATOM      9  C   UNL     1      -3.298  12.987  19.982  0.00  0.00    +0.000 A 
ATOM     10  C   UNL     1      -1.997  12.427  19.943  0.00  0.00    +0.000 A 
ATOM     11  C   UNL     1      -1.585  11.208  19.428  0.00  0.00    +0.000 A 
ATOM     12  C   UNL     1      -2.349  10.214  18.603  0.00  0.00    +0.000 C 
ENDROOT
BRANCH   1  16
ATOM     13  C   UNL     1       2.370   7.849  18.708  0.00  0.00    +0.000 A 
ATOM     14  C   UNL     1       1.991   8.764  17.728  0.00  0.00    +0.000 A 
ATOM     15  C   UNL     1       1.086   9.786  18.027  0.00  0.00    +0.000 A 
ATOM     16  C   UNL     1       0.578   9.928  19.327  0.00  0.00    +0.000 A 
ATOM     17  C   UNL     1       0.915   8.971  20.289  0.00  0.00    +0.000 A 
ATOM     18  C   UNL     1       1.781   7.919  19.970  0.00  0.00    +0.000 A 
BRANCH  13  19
ATOM     19  O   UNL     1       3.322   6.942  18.330  0.00  0.00    +0.000 OA
BRANCH  19  21
ATOM     20  C   UNL     1       2.262   4.841  17.907  0.00  0.00    +0.000 C 
ATOM     21  C   UNL     1       3.161   5.620  18.849  0.00  0.00    +0.000 C 
ENDBRANCH  19  21
ENDBRANCH  13  19
ENDBRANCH   1  16
BRANCH   9  22
ATOM     22  C   UNL     1      -4.600  12.376  19.735  0.00  0.00    +0.000 A 
ATOM     23  C   UNL     1      -5.017  12.095  18.420  0.00  0.00    +0.000 A 
ATOM     24  C   UNL     1      -6.281  11.558  18.155  0.00  0.00    +0.000 A 
ATOM     25  C   UNL     1      -7.151  11.277  19.203  0.00  0.00    +0.000 A 
ATOM     26  C   UNL     1      -6.769  11.558  20.511  0.00  0.00    +0.000 A 
ATOM     27  C   UNL     1      -5.519  12.130  20.767  0.00  0.00    +0.000 A 
ENDBRANCH   9  22
TORSDOF 4
ENDMDL
MODEL 8
REMARK VINA RESULT:      -7.0      5.006      8.618
REMARK  Name = 
REMARK  8 active torsions:
REMARK  status: ('A' for Active; 'I' for Inactive)
REMARK    1  A    between atoms: C_1  and  C_2
REMARK    2  A    between atoms: C_2  and  O_3
REMARK    3  A    between atoms: O_3  and  C_4
REMARK    4  A    between atoms: C_7  and  N_8
REMARK    5  A    between atoms: C_9  and  C_10
REMARK    6  A    between atoms: C_12  and  C_13
REMARK    7  A    between atoms: C_16  and  C_17
REMARK    8  A    between atoms: C_24  and  C_25
REMARK                            x       y       z     vdW  Elec       q    Type
REMARK                         _______ _______ _______ _____ _____    ______ ____
ROOT
ATOM      1  N   UNL     1      -0.019  11.180  19.780  0.00  0.00    +0.000 N 
ATOM      2  C   UNL     1       0.328  12.359  20.469  0.00  0.00    +0.000 A 
ATOM      3  C   UNL     1       1.669  12.602  21.084  0.00  0.00    +0.000 C 
ATOM      4  C   UNL     1      -0.805  13.152  20.529  0.00  0.00    +0.000 A 
ATOM      5  C   UNL     1      -0.934  14.453  21.078  0.00  0.00    +0.000 A 
ATOM      6  C   UNL     1       0.045  15.394  21.690  0.00  0.00    +0.000 C 
ATOM      7  N   UNL     1      -2.217  14.921  20.974  0.00  0.00    +0.000 NA
ATOM      8  N   UNL     1      -3.332  14.168  20.415  0.00  0.00    +0.000 NA
ATOM      9  C   UNL     1      -3.231  12.900  19.906  0.00  0.00    +0.000 A 
ATOM     10  C   UNL     1      -1.902  12.411  19.956  0.00  0.00    +0.000 A 
ATOM     11  C   UNL     1      -1.375  11.254  19.406  0.00  0.00    +0.000 A 
ATOM     12  C   UNL     1      -2.000  10.283  18.447  0.00  0.00    +0.000 C 
ENDROOT
BRANCH   1  16
ATOM     13  C   UNL     1       2.311   7.818  18.644  0.00  0.00    +0.000 A 
ATOM     14  C   UNL     1       1.783   7.904  19.930  0.00  0.00    +0.000 A 
ATOM     15  C   UNL     1       1.078   9.043  20.330  0.00  0.00    +0.000 A 
ATOM     16  C   UNL     1       0.859  10.096  19.431  0.00  0.00    +0.000 A 
ATOM     17  C   UNL     1       1.443  10.030  18.162  0.00  0.00    +0.000 A 
ATOM     18  C   UNL     1       2.193   8.910  17.784  0.00  0.00    +0.000 A 
BRANCH  13  19
ATOM     19  O   UNL     1       2.910   6.629  18.332  0.00  0.00    +0.000 OA
BRANCH  19  21
ATOM     20  C   UNL     1       1.771   4.580  17.860  0.00  0.00    +0.000 C 
ATOM     21  C   UNL     1       2.346   5.468  18.947  0.00  0.00    +0.000 C 
ENDBRANCH  19  21
ENDBRANCH  13  19
ENDBRANCH   1  16
BRANCH   9  22
ATOM     22  C   UNL     1      -4.467  12.243  19.495  0.00  0.00    +0.000 A 
ATOM     23  C   UNL     1      -5.446  11.908  20.449  0.00  0.00    +0.000 A 
ATOM     24  C   UNL     1      -6.615  11.230  20.087  0.00  0.00    +0.000 A 
ATOM     25  C   UNL     1      -6.836  10.887  18.757  0.00  0.00    +0.000 A 
ATOM     26  C   UNL     1      -5.878  11.195  17.797  0.00  0.00    +0.000 A 
ATOM     27  C   UNL     1      -4.694  11.838  18.171  0.00  0.00    +0.000 A 
ENDBRANCH   9  22
TORSDOF 4
ENDMDL
MODEL 9
REMARK VINA RESULT:      -7.0      2.720      7.279
REMARK  Name = 
REMARK  8 active torsions:
REMARK  status: ('A' for Active; 'I' for Inactive)
REMARK    1  A    between atoms: C_1  and  C_2
REMARK    2  A    between atoms: C_2  and  O_3
REMARK    3  A    between atoms: O_3  and  C_4
REMARK    4  A    between atoms: C_7  and  N_8
REMARK    5  A    between atoms: C_9  and  C_10
REMARK    6  A    between atoms: C_12  and  C_13
REMARK    7  A    between atoms: C_16  and  C_17
REMARK    8  A    between atoms: C_24  and  C_25
REMARK                            x       y       z     vdW  Elec       q    Type
REMARK                         _______ _______ _______ _____ _____    ______ ____
ROOT
ATOM      1  N   UNL     1       2.375   6.924  19.067  0.00  0.00    +0.000 N 
ATOM      2  C   UNL     1       2.060   5.875  19.952  0.00  0.00    +0.000 A 
ATOM      3  C   UNL     1       1.251   6.048  21.198  0.00  0.00    +0.000 C 
ATOM      4  C   UNL     1       2.705   4.739  19.495  0.00  0.00    +0.000 A 
ATOM      5  C   UNL     1       2.647   3.426  20.025  0.00  0.00    +0.000 A 
ATOM      6  C   UNL     1       1.879   2.823  21.151  0.00  0.00    +0.000 C 
ATOM      7  N   UNL     1       3.435   2.558  19.317  0.00  0.00    +0.000 NA
ATOM      8  N   UNL     1       4.271   2.933  18.184  0.00  0.00    +0.000 NA
ATOM      9  C   UNL     1       4.360   4.201  17.676  0.00  0.00    +0.000 A 
ATOM     10  C   UNL     1       3.516   5.110  18.361  0.00  0.00    +0.000 A 
ATOM     11  C   UNL     1       3.213   6.426  18.050  0.00  0.00    +0.000 A 
ATOM     12  C   UNL     1       3.533   7.212  16.813  0.00  0.00    +0.000 C 
ENDROOT
BRANCH   1  16
ATOM     13  C   UNL     1       1.194  10.993  19.335  0.00  0.00    +0.000 A 
ATOM     14  C   UNL     1       0.967  10.124  20.400  0.00  0.00    +0.000 A 
ATOM     15  C   UNL     1       1.287   8.769  20.288  0.00  0.00    +0.000 A 
ATOM     16  C   UNL     1       1.878   8.273  19.116  0.00  0.00    +0.000 A 
ATOM     17  C   UNL     1       2.047   9.137  18.030  0.00  0.00    +0.000 A 
ATOM     18  C   UNL     1       1.676  10.483  18.131  0.00  0.00    +0.000 A 
BRANCH  13  19
ATOM     19  O   UNL     1       0.921  12.311  19.582  0.00  0.00    +0.000 OA
BRANCH  19  21
ATOM     20  C   UNL     1       2.054  14.248  18.757  0.00  0.00    +0.000 C 
ATOM     21  C   UNL     1       1.013  13.186  18.455  0.00  0.00    +0.000 C 
ENDBRANCH  19  21
ENDBRANCH  13  19
ENDBRANCH   1  16
BRANCH   9  22
ATOM     22  C   UNL     1       5.336   4.430  16.616  0.00  0.00    +0.000 A 
ATOM     23  C   UNL     1       5.041   4.074  15.287  0.00  0.00    +0.000 A 
ATOM     24  C   UNL     1       5.980   4.236  14.262  0.00  0.00    +0.000 A 
ATOM     25  C   UNL     1       7.231   4.772  14.545  0.00  0.00    +0.000 A 
ATOM     26  C   UNL     1       7.553   5.121  15.852  0.00  0.00    +0.000 A 
ATOM     27  C   UNL     1       6.625   4.921  16.878  0.00  0.00    +0.000 A 
ENDBRANCH   9  22
TORSDOF 4
ENDMDL
