MODEL 1
REMARK VINA RESULT:      -7.3      0.000      0.000
REMARK  Name = 
REMARK  9 active torsions:
REMARK  status: ('A' for Active; 'I' for Inactive)
REMARK    1  A    between atoms: C_1  and  C_2
REMARK    2  A    between atoms: C_2  and  C_3
REMARK    3  A    between atoms: C_3  and  C_4
REMARK    4  A    between atoms: C_3  and  C_5
REMARK    5  A    between atoms: C_3  and  C_6
REMARK    6  A    between atoms: N_8  and  C_9
REMARK    7  A    between atoms: C_12  and  C_13
REMARK    8  A    between atoms: C_14  and  C_15
REMARK    9  A    between atoms: C_15  and  N_16
REMARK                            x       y       z     vdW  Elec       q    Type
REMARK                         _______ _______ _______ _____ _____    ______ ____
ROOT
ATOM      1  C   UNL     1       1.890   5.345  20.459  0.00  0.00    +0.000 A 
ATOM      2  C   UNL     1       1.104   4.210  20.291  0.00  0.00    +0.000 A 
ATOM      3  C   UNL     1       1.632   3.050  19.711  0.00  0.00    +0.000 A 
ATOM      4  C   UNL     1       2.953   3.007  19.239  0.00  0.00    +0.000 A 
ATOM      5  C   UNL     1       3.464   1.704  18.681  0.00  0.00    +0.000 C 
ATOM      6  C   UNL     1       3.751   4.165  19.355  0.00  0.00    +0.000 A 
ATOM      7  C   UNL     1       3.211   5.303  20.003  0.00  0.00    +0.000 A 
ENDROOT
BRANCH   1  10
ATOM      8  C   UNL     1       1.484   7.807  20.437  0.00  0.00    +0.000 C 
ATOM      9  O   UNL     1       1.945   8.022  19.321  0.00  0.00    +0.000 OA
ATOM     10  N   UNL     1       1.433   6.556  21.033  0.00  0.00    +0.000 N 
ATOM     11  H   UNL     1       0.932   6.474  21.905  0.00  0.00    +0.000 HD
BRANCH   8  12
ATOM     12  C   UNL     1       0.909   8.981  21.275  0.00  0.00    +0.000 C 
ATOM     13  C   UNL     1       1.807   9.156  22.520  0.00  0.00    +0.000 C 
ATOM     14  C   UNL     1      -0.503   8.617  21.768  0.00  0.00    +0.000 C 
BRANCH  12  16
ATOM     15  C   UNL     1      -0.550  10.669  19.954  0.00  0.00    +0.000 C 
ATOM     16  C   UNL     1       0.831  10.316  20.492  0.00  0.00    +0.000 C 
ENDBRANCH  12  16
ENDBRANCH   8  12
ENDBRANCH   1  10
BRANCH   6  17
ATOM     17  C   UNL     1       5.144   4.302  18.753  0.00  0.00    +0.000 C 
BRANCH  17  18
ATOM     18  N   UNL     1       5.161   5.066  17.501  0.00  0.00    +0.000 NA
ATOM     19  C   UNL     1       5.599   4.289  16.332  0.00  0.00    +0.000 C 
ATOM     20  C   UNL     1       7.041   4.506  15.822  0.00  0.00    +0.000 C 
ATOM     21  O   UNL     1       7.460   5.870  15.832  0.00  0.00    +0.000 OA
ATOM     22  C   UNL     1       7.253   6.469  17.108  0.00  0.00    +0.000 C 
ATOM     23  C   UNL     1       5.776   6.402  17.514  0.00  0.00    +0.000 C 
ENDBRANCH  17  18
ENDBRANCH   6  17
TORSDOF 5
ENDMDL
MODEL 2
REMARK VINA RESULT:      -6.8      0.707      1.374
REMARK  Name = 
REMARK  9 active torsions:
REMARK  status: ('A' for Active; 'I' for Inactive)
REMARK    1  A    between atoms: C_1  and  C_2
REMARK    2  A    between atoms: C_2  and  C_3
REMARK    3  A    between atoms: C_3  and  C_4
REMARK    4  A    between atoms: C_3  and  C_5
REMARK    5  A    between atoms: C_3  and  C_6
REMARK    6  A    between atoms: N_8  and  C_9
REMARK    7  A    between atoms: C_12  and  C_13
REMARK    8  A    between atoms: C_14  and  C_15
REMARK    9  A    between atoms: C_15  and  N_16
REMARK                            x       y       z     vdW  Elec       q    Type
REMARK                         _______ _______ _______ _____ _____    ______ ____
ROOT
ATOM      1  C   UNL     1       1.873   5.330  20.448  0.00  0.00    +0.000 A 
ATOM      2  C   UNL     1       1.025   4.254  20.203  0.00  0.00    +0.000 A 
ATOM      3  C   UNL     1       1.506   3.082  19.606  0.00  0.00    +0.000 A 
ATOM      4  C   UNL     1       2.843   2.969  19.194  0.00  0.00    +0.000 A 
ATOM      5  C   UNL     1       3.296   1.655  18.613  0.00  0.00    +0.000 C 
ATOM      6  C   UNL     1       3.705   4.069  19.388  0.00  0.00    +0.000 A 
ATOM      7  C   UNL     1       3.209   5.218  20.051  0.00  0.00    +0.000 A 
ENDROOT
BRANCH   1  10
ATOM      8  C   UNL     1       1.529   7.802  20.453  0.00  0.00    +0.000 C 
ATOM      9  O   UNL     1       1.959   8.012  19.323  0.00  0.00    +0.000 OA
ATOM     10  N   UNL     1       1.466   6.549  21.043  0.00  0.00    +0.000 N 
ATOM     11  H   UNL     1       0.993   6.475  21.931  0.00  0.00    +0.000 HD
BRANCH   8  12
ATOM     12  C   UNL     1       1.013   8.985  21.316  0.00  0.00    +0.000 C 
ATOM     13  C   UNL     1       0.889  10.221  20.396  0.00  0.00    +0.000 C 
ATOM     14  C   UNL     1       2.051   9.318  22.403  0.00  0.00    +0.000 C 
BRANCH  12  16
ATOM     15  C   UNL     1      -0.739   9.684  23.094  0.00  0.00    +0.000 C 
ATOM     16  C   UNL     1      -0.347   8.699  22.000  0.00  0.00    +0.000 C 
ENDBRANCH  12  16
ENDBRANCH   8  12
ENDBRANCH   1  10
BRANCH   6  17
ATOM     17  C   UNL     1       5.132   4.135  18.855  0.00  0.00    +0.000 C 
BRANCH  17  18
ATOM     18  N   UNL     1       5.401   5.344  18.070  0.00  0.00    +0.000 NA
ATOM     19  C   UNL     1       4.642   5.423  16.813  0.00  0.00    +0.000 C 
ATOM     20  C   UNL     1       5.386   5.091  15.501  0.00  0.00    +0.000 C 
ATOM     21  O   UNL     1       6.713   5.612  15.438  0.00  0.00    +0.000 OA
ATOM     22  C   UNL     1       7.472   5.242  16.586  0.00  0.00    +0.000 C 
ATOM     23  C   UNL     1       6.803   5.743  17.872  0.00  0.00    +0.000 C 
ENDBRANCH  17  18
ENDBRANCH   6  17
TORSDOF 5
ENDMDL
MODEL 3
REMARK VINA RESULT:      -6.8      1.568      2.191
REMARK  Name = 
REMARK  9 active torsions:
REMARK  status: ('A' for Active; 'I' for Inactive)
REMARK    1  A    between atoms: C_1  and  C_2
REMARK    2  A    between atoms: C_2  and  C_3
REMARK    3  A    between atoms: C_3  and  C_4
REMARK    4  A    between atoms: C_3  and  C_5
REMARK    5  A    between atoms: C_3  and  C_6
REMARK    6  A    between atoms: N_8  and  C_9
REMARK    7  A    between atoms: C_12  and  C_13
REMARK    8  A    between atoms: C_14  and  C_15
REMARK    9  A    between atoms: C_15  and  N_16
REMARK                            x       y       z     vdW  Elec       q    Type
REMARK                         _______ _______ _______ _____ _____    ______ ____
ROOT
ATOM      1  C   UNL     1       2.083   7.303  19.524  0.00  0.00    +0.000 A 
ATOM      2  C   UNL     1       1.831   6.485  20.621  0.00  0.00    +0.000 A 
ATOM      3  C   UNL     1       2.339   5.180  20.675  0.00  0.00    +0.000 A 
ATOM      4  C   UNL     1       3.077   4.640  19.610  0.00  0.00    +0.000 A 
ATOM      5  C   UNL     1       3.637   3.251  19.771  0.00  0.00    +0.000 C 
ATOM      6  C   UNL     1       3.299   5.438  18.468  0.00  0.00    +0.000 A 
ATOM      7  C   UNL     1       2.829   6.774  18.466  0.00  0.00    +0.000 A 
ENDROOT
BRANCH   1  10
ATOM      8  C   UNL     1       0.681   9.248  20.218  0.00  0.00    +0.000 C 
ATOM      9  O   UNL     1       0.152   8.709  21.185  0.00  0.00    +0.000 OA
ATOM     10  N   UNL     1       1.605   8.629  19.390  0.00  0.00    +0.000 N 
ATOM     11  H   UNL     1       2.061   9.198  18.692  0.00  0.00    +0.000 HD
BRANCH   8  12
ATOM     12  C   UNL     1       0.326  10.716  19.860  0.00  0.00    +0.000 C 
ATOM     13  C   UNL     1       1.332  11.197  18.790  0.00  0.00    +0.000 C 
ATOM     14  C   UNL     1       0.508  11.607  21.102  0.00  0.00    +0.000 C 
BRANCH  12  16
ATOM     15  C   UNL     1      -1.379  10.311  17.949  0.00  0.00    +0.000 C 
ATOM     16  C   UNL     1      -1.122  10.888  19.335  0.00  0.00    +0.000 C 
ENDBRANCH  12  16
ENDBRANCH   8  12
ENDBRANCH   1  10
BRANCH   6  17
ATOM     17  C   UNL     1       3.951   4.927  17.188  0.00  0.00    +0.000 C 
BRANCH  17  18
ATOM     18  N   UNL     1       5.166   5.663  16.825  0.00  0.00    +0.000 NA
ATOM     19  C   UNL     1       5.624   5.419  15.449  0.00  0.00    +0.000 C 
ATOM     20  C   UNL     1       6.822   4.466  15.247  0.00  0.00    +0.000 C 
ATOM     21  O   UNL     1       7.864   4.631  16.209  0.00  0.00    +0.000 OA
ATOM     22  C   UNL     1       7.356   4.571  17.540  0.00  0.00    +0.000 C 
ATOM     23  C   UNL     1       6.292   5.650  17.771  0.00  0.00    +0.000 C 
ENDBRANCH  17  18
ENDBRANCH   6  17
TORSDOF 5
ENDMDL
MODEL 4
REMARK VINA RESULT:      -6.6      1.484      2.124
REMARK  Name = 
REMARK  9 active torsions:
REMARK  status: ('A' for Active; 'I' for Inactive)
REMARK    1  A    between atoms: C_1  and  C_2
REMARK    2  A    between atoms: C_2  and  C_3
REMARK    3  A    between atoms: C_3  and  C_4
REMARK    4  A    between atoms: C_3  and  C_5
REMARK    5  A    between atoms: C_3  and  C_6
REMARK    6  A    between atoms: N_8  and  C_9
REMARK    7  A    between atoms: C_12  and  C_13
REMARK    8  A    between atoms: C_14  and  C_15
REMARK    9  A    between atoms: C_15  and  N_16
REMARK                            x       y       z     vdW  Elec       q    Type
REMARK                         _______ _______ _______ _____ _____    ______ ____
ROOT
ATOM      1  C   UNL     1       2.112   6.749  19.825  0.00  0.00    +0.000 A 
ATOM      2  C   UNL     1       1.873   5.813  20.826  0.00  0.00    +0.000 A 
ATOM      3  C   UNL     1       2.382   4.512  20.728  0.00  0.00    +0.000 A 
ATOM      4  C   UNL     1       3.106   4.094  19.601  0.00  0.00    +0.000 A 
ATOM      5  C   UNL     1       3.669   2.697  19.598  0.00  0.00    +0.000 C 
ATOM      6  C   UNL     1       3.314   5.015  18.552  0.00  0.00    +0.000 A 
ATOM      7  C   UNL     1       2.844   6.343  18.705  0.00  0.00    +0.000 A 
ENDROOT
BRANCH   1  10
ATOM      8  C   UNL     1       1.550   8.933  18.754  0.00  0.00    +0.000 C 
ATOM      9  O   UNL     1       1.896   8.631  17.616  0.00  0.00    +0.000 OA
ATOM     10  N   UNL     1       1.632   8.081  19.845  0.00  0.00    +0.000 N 
ATOM     11  H   UNL     1       1.216   8.391  20.711  0.00  0.00    +0.000 HD
BRANCH   8  12
ATOM     12  C   UNL     1       0.980  10.348  19.039  0.00  0.00    +0.000 C 
ATOM     13  C   UNL     1      -0.417  10.434  18.384  0.00  0.00    +0.000 C 
ATOM     14  C   UNL     1       1.873  11.407  18.369  0.00  0.00    +0.000 C 
BRANCH  12  16
ATOM     15  C   UNL     1      -0.547  10.860  21.072  0.00  0.00    +0.000 C 
ATOM     16  C   UNL     1       0.873  10.675  20.550  0.00  0.00    +0.000 C 
ENDBRANCH  12  16
ENDBRANCH   8  12
ENDBRANCH   1  10
BRANCH   6  17
ATOM     17  C   UNL     1       3.950   4.652  17.215  0.00  0.00    +0.000 C 
BRANCH  17  18
ATOM     18  N   UNL     1       5.102   5.492  16.876  0.00  0.00    +0.000 NA
ATOM     19  C   UNL     1       5.519   5.396  15.468  0.00  0.00    +0.000 C 
ATOM     20  C   UNL     1       6.764   4.543  15.143  0.00  0.00    +0.000 C 
ATOM     21  O   UNL     1       7.831   4.691  16.079  0.00  0.00    +0.000 OA
ATOM     22  C   UNL     1       7.382   4.486  17.416  0.00  0.00    +0.000 C 
ATOM     23  C   UNL     1       6.264   5.471  17.778  0.00  0.00    +0.000 C 
ENDBRANCH  17  18
ENDBRANCH   6  17
TORSDOF 5
ENDMDL
MODEL 5
REMARK VINA RESULT:      -6.6      2.263      4.258
REMARK  Name = 
REMARK  9 active torsions:
REMARK  status: ('A' for Active; 'I' for Inactive)
REMARK    1  A    between atoms: C_1  and  C_2
REMARK    2  A    between atoms: C_2  and  C_3
REMARK    3  A    between atoms: C_3  and  C_4
REMARK    4  A    between atoms: C_3  and  C_5
REMARK    5  A    between atoms: C_3  and  C_6
REMARK    6  A    between atoms: N_8  and  C_9
REMARK    7  A    between atoms: C_12  and  C_13
REMARK    8  A    between atoms: C_14  and  C_15
REMARK    9  A    between atoms: C_15  and  N_16
REMARK                            x       y       z     vdW  Elec       q    Type
REMARK                         _______ _______ _______ _____ _____    ______ ____
ROOT
ATOM      1  C   UNL     1       2.780   6.912  18.232  0.00  0.00    +0.000 A 
ATOM      2  C   UNL     1       4.075   7.206  17.819  0.00  0.00    +0.000 A 
ATOM      3  C   UNL     1       4.862   6.238  17.182  0.00  0.00    +0.000 A 
ATOM      4  C   UNL     1       4.391   4.931  16.980  0.00  0.00    +0.000 A 
ATOM      5  C   UNL     1       5.275   3.966  16.235  0.00  0.00    +0.000 C 
ATOM      6  C   UNL     1       3.097   4.601  17.439  0.00  0.00    +0.000 A 
ATOM      7  C   UNL     1       2.300   5.616  18.022  0.00  0.00    +0.000 A 
ENDROOT
BRANCH   1  10
ATOM      8  C   UNL     1       1.583   9.094  18.425  0.00  0.00    +0.000 C 
ATOM      9  O   UNL     1       1.998   9.582  17.378  0.00  0.00    +0.000 OA
ATOM     10  N   UNL     1       1.922   7.831  18.885  0.00  0.00    +0.000 N 
ATOM     11  H   UNL     1       1.437   7.485  19.700  0.00  0.00    +0.000 HD
BRANCH   8  12
ATOM     12  C   UNL     1       0.616   9.907  19.326  0.00  0.00    +0.000 C 
ATOM     13  C   UNL     1      -0.664  10.193  18.508  0.00  0.00    +0.000 C 
ATOM     14  C   UNL     1       1.255  11.263  19.676  0.00  0.00    +0.000 C 
BRANCH  12  16
ATOM     15  C   UNL     1       1.012   9.644  21.875  0.00  0.00    +0.000 C 
ATOM     16  C   UNL     1       0.245   9.180  20.643  0.00  0.00    +0.000 C 
ENDBRANCH  12  16
ENDBRANCH   8  12
ENDBRANCH   1  10
BRANCH   6  17
ATOM     17  C   UNL     1       2.522   3.189  17.419  0.00  0.00    +0.000 C 
BRANCH  17  18
ATOM     18  N   UNL     1       2.717   2.468  18.680  0.00  0.00    +0.000 NA
ATOM     19  C   UNL     1       1.468   2.172  19.399  0.00  0.00    +0.000 C 
ATOM     20  C   UNL     1       1.111   3.055  20.615  0.00  0.00    +0.000 C 
ATOM     21  O   UNL     1       2.225   3.375  21.448  0.00  0.00    +0.000 OA
ATOM     22  C   UNL     1       3.300   3.925  20.690  0.00  0.00    +0.000 C 
ATOM     23  C   UNL     1       3.759   2.950  19.599  0.00  0.00    +0.000 C 
ENDBRANCH  17  18
ENDBRANCH   6  17
TORSDOF 5
ENDMDL
MODEL 6
REMARK VINA RESULT:      -6.6      0.779      1.291
REMARK  Name = 
REMARK  9 active torsions:
REMARK  status: ('A' for Active; 'I' for Inactive)
REMARK    1  A    between atoms: C_1  and  C_2
REMARK    2  A    between atoms: C_2  and  C_3
REMARK    3  A    between atoms: C_3  and  C_4
REMARK    4  A    between atoms: C_3  and  C_5
REMARK    5  A    between atoms: C_3  and  C_6
REMARK    6  A    between atoms: N_8  and  C_9
REMARK    7  A    between atoms: C_12  and  C_13
REMARK    8  A    between atoms: C_14  and  C_15
REMARK    9  A    between atoms: C_15  and  N_16
REMARK                            x       y       z     vdW  Elec       q    Type
REMARK                         _______ _______ _______ _____ _____    ______ ____
ROOT
ATOM      1  C   UNL     1       1.946   5.255  20.385  0.00  0.00    +0.000 A 
ATOM      2  C   UNL     1       1.741   3.994  20.936  0.00  0.00    +0.000 A 
ATOM      3  C   UNL     1       2.298   2.853  20.344  0.00  0.00    +0.000 A 
ATOM      4  C   UNL     1       3.040   2.936  19.156  0.00  0.00    +0.000 A 
ATOM      5  C   UNL     1       3.655   1.671  18.615  0.00  0.00    +0.000 C 
ATOM      6  C   UNL     1       3.215   4.201  18.555  0.00  0.00    +0.000 A 
ATOM      7  C   UNL     1       2.695   5.345  19.208  0.00  0.00    +0.000 A 
ENDROOT
BRANCH   1  10
ATOM      8  C   UNL     1       1.545   7.719  20.361  0.00  0.00    +0.000 C 
ATOM      9  O   UNL     1       2.150   7.955  19.320  0.00  0.00    +0.000 OA
ATOM     10  N   UNL     1       1.416   6.455  20.918  0.00  0.00    +0.000 N 
ATOM     11  H   UNL     1       0.803   6.357  21.714  0.00  0.00    +0.000 HD
BRANCH   8  12
ATOM     12  C   UNL     1       0.863   8.876  21.139  0.00  0.00    +0.000 C 
ATOM     13  C   UNL     1       1.759   9.221  22.350  0.00  0.00    +0.000 C 
ATOM     14  C   UNL     1      -0.493   8.397  21.688  0.00  0.00    +0.000 C 
BRANCH  12  16
ATOM     15  C   UNL     1       0.805  11.465  21.017  0.00  0.00    +0.000 C 
ATOM     16  C   UNL     1       0.631  10.143  20.279  0.00  0.00    +0.000 C 
ENDBRANCH  12  16
ENDBRANCH   8  12
ENDBRANCH   1  10
BRANCH   6  17
ATOM     17  C   UNL     1       3.867   4.413  17.193  0.00  0.00    +0.000 C 
BRANCH  17  18
ATOM     18  N   UNL     1       5.321   4.222  17.212  0.00  0.00    +0.000 NA
ATOM     19  C   UNL     1       6.055   5.286  17.915  0.00  0.00    +0.000 C 
ATOM     20  C   UNL     1       6.775   6.350  17.059  0.00  0.00    +0.000 C 
ATOM     21  O   UNL     1       7.434   5.822  15.909  0.00  0.00    +0.000 OA
ATOM     22  C   UNL     1       6.552   5.020  15.127  0.00  0.00    +0.000 C 
ATOM     23  C   UNL     1       5.987   3.858  15.953  0.00  0.00    +0.000 C 
ENDBRANCH  17  18
ENDBRANCH   6  17
TORSDOF 5
ENDMDL
MODEL 7
REMARK VINA RESULT:      -6.6      2.286      4.167
REMARK  Name = 
REMARK  9 active torsions:
REMARK  status: ('A' for Active; 'I' for Inactive)
REMARK    1  A    between atoms: C_1  and  C_2
REMARK    2  A    between atoms: C_2  and  C_3
REMARK    3  A    between atoms: C_3  and  C_4
REMARK    4  A    between atoms: C_3  and  C_5
REMARK    5  A    between atoms: C_3  and  C_6
REMARK    6  A    between atoms: N_8  and  C_9
REMARK    7  A    between atoms: C_12  and  C_13
REMARK    8  A    between atoms: C_14  and  C_15
REMARK    9  A    between atoms: C_15  and  N_16
REMARK                            x       y       z     vdW  Elec       q    Type
REMARK                         _______ _______ _______ _____ _____    ______ ____
ROOT
ATOM      1  C   UNL     1       2.852   6.970  18.281  0.00  0.00    +0.000 A 
ATOM      2  C   UNL     1       4.163   7.202  17.878  0.00  0.00    +0.000 A 
ATOM      3  C   UNL     1       4.899   6.205  17.225  0.00  0.00    +0.000 A 
ATOM      4  C   UNL     1       4.359   4.929  16.998  0.00  0.00    +0.000 A 
ATOM      5  C   UNL     1       5.194   3.933  16.238  0.00  0.00    +0.000 C 
ATOM      6  C   UNL     1       3.048   4.661  17.445  0.00  0.00    +0.000 A 
ATOM      7  C   UNL     1       2.304   5.706  18.046  0.00  0.00    +0.000 A 
ENDROOT
BRANCH   1  10
ATOM      8  C   UNL     1       1.632   9.143  18.435  0.00  0.00    +0.000 C 
ATOM      9  O   UNL     1       1.932   9.558  17.321  0.00  0.00    +0.000 OA
ATOM     10  N   UNL     1       2.041   7.922  18.948  0.00  0.00    +0.000 N 
ATOM     11  H   UNL     1       1.646   7.629  19.830  0.00  0.00    +0.000 HD
BRANCH   8  12
ATOM     12  C   UNL     1       0.739  10.005  19.368  0.00  0.00    +0.000 C 
ATOM     13  C   UNL     1       1.300  11.445  19.360  0.00  0.00    +0.000 C 
ATOM     14  C   UNL     1       0.840   9.475  20.810  0.00  0.00    +0.000 C 
BRANCH  12  16
ATOM     15  C   UNL     1      -1.205  11.275  18.214  0.00  0.00    +0.000 C 
ATOM     16  C   UNL     1      -0.753  10.020  18.949  0.00  0.00    +0.000 C 
ENDBRANCH  12  16
ENDBRANCH   8  12
ENDBRANCH   1  10
BRANCH   6  17
ATOM     17  C   UNL     1       2.399   3.283  17.397  0.00  0.00    +0.000 C 
BRANCH  17  18
ATOM     18  N   UNL     1       2.546   2.530  18.646  0.00  0.00    +0.000 NA
ATOM     19  C   UNL     1       1.290   2.352  19.390  0.00  0.00    +0.000 C 
ATOM     20  C   UNL     1       1.049   3.250  20.622  0.00  0.00    +0.000 C 
ATOM     21  O   UNL     1       2.207   3.446  21.433  0.00  0.00    +0.000 OA
ATOM     22  C   UNL     1       3.315   3.896  20.658  0.00  0.00    +0.000 C 
ATOM     23  C   UNL     1       3.651   2.894  19.547  0.00  0.00    +0.000 C 
ENDBRANCH  17  18
ENDBRANCH   6  17
TORSDOF 5
ENDMDL
MODEL 8
REMARK VINA RESULT:      -6.6      2.310      4.179
REMARK  Name = 
REMARK  9 active torsions:
REMARK  status: ('A' for Active; 'I' for Inactive)
REMARK    1  A    between atoms: C_1  and  C_2
REMARK    2  A    between atoms: C_2  and  C_3
REMARK    3  A    between atoms: C_3  and  C_4
REMARK    4  A    between atoms: C_3  and  C_5
REMARK    5  A    between atoms: C_3  and  C_6
REMARK    6  A    between atoms: N_8  and  C_9
REMARK    7  A    between atoms: C_12  and  C_13
REMARK    8  A    between atoms: C_14  and  C_15
REMARK    9  A    between atoms: C_15  and  N_16
REMARK                            x       y       z     vdW  Elec       q    Type
REMARK                         _______ _______ _______ _____ _____    ______ ____
ROOT
ATOM      1  C   UNL     1       2.820   6.998  18.232  0.00  0.00    +0.000 A 
ATOM      2  C   UNL     1       4.113   7.252  17.787  0.00  0.00    +0.000 A 
ATOM      3  C   UNL     1       4.866   6.251  17.159  0.00  0.00    +0.000 A 
ATOM      4  C   UNL     1       4.361   4.951  16.999  0.00  0.00    +0.000 A 
ATOM      5  C   UNL     1       5.209   3.948  16.261  0.00  0.00    +0.000 C 
ATOM      6  C   UNL     1       3.070   4.662  17.490  0.00  0.00    +0.000 A 
ATOM      7  C   UNL     1       2.307   5.708  18.064  0.00  0.00    +0.000 A 
ENDROOT
BRANCH   1  10
ATOM      8  C   UNL     1       1.645   9.195  18.377  0.00  0.00    +0.000 C 
ATOM      9  O   UNL     1       2.017   9.632  17.293  0.00  0.00    +0.000 OA
ATOM     10  N   UNL     1       1.996   7.951  18.878  0.00  0.00    +0.000 N 
ATOM     11  H   UNL     1       1.544   7.646  19.728  0.00  0.00    +0.000 HD
BRANCH   8  12
ATOM     12  C   UNL     1       0.721  10.055  19.281  0.00  0.00    +0.000 C 
ATOM     13  C   UNL     1       0.538   9.303  20.619  0.00  0.00    +0.000 C 
ATOM     14  C   UNL     1      -0.667  10.179  18.626  0.00  0.00    +0.000 C 
BRANCH  12  16
ATOM     15  C   UNL     1       0.612  12.588  18.740  0.00  0.00    +0.000 C 
ATOM     16  C   UNL     1       1.272  11.478  19.548  0.00  0.00    +0.000 C 
ENDBRANCH  12  16
ENDBRANCH   8  12
ENDBRANCH   1  10
BRANCH   6  17
ATOM     17  C   UNL     1       2.464   3.263  17.516  0.00  0.00    +0.000 C 
BRANCH  17  18
ATOM     18  N   UNL     1       2.746   2.534  18.756  0.00  0.00    +0.000 NA
ATOM     19  C   UNL     1       1.543   2.103  19.484  0.00  0.00    +0.000 C 
ATOM     20  C   UNL     1       1.124   2.918  20.727  0.00  0.00    +0.000 C 
ATOM     21  O   UNL     1       2.216   3.323  21.552  0.00  0.00    +0.000 OA
ATOM     22  C   UNL     1       3.221   3.991  20.793  0.00  0.00    +0.000 C 
ATOM     23  C   UNL     1       3.753   3.090  19.672  0.00  0.00    +0.000 C 
ENDBRANCH  17  18
ENDBRANCH   6  17
TORSDOF 5
ENDMDL
MODEL 9
REMARK VINA RESULT:      -6.6      1.479      2.059
REMARK  Name = 
REMARK  9 active torsions:
REMARK  status: ('A' for Active; 'I' for Inactive)
REMARK    1  A    between atoms: C_1  and  C_2
REMARK    2  A    between atoms: C_2  and  C_3
REMARK    3  A    between atoms: C_3  and  C_4
REMARK    4  A    between atoms: C_3  and  C_5
REMARK    5  A    between atoms: C_3  and  C_6
REMARK    6  A    between atoms: N_8  and  C_9
REMARK    7  A    between atoms: C_12  and  C_13
REMARK    8  A    between atoms: C_14  and  C_15
REMARK    9  A    between atoms: C_15  and  N_16
REMARK                            x       y       z     vdW  Elec       q    Type
REMARK                         _______ _______ _______ _____ _____    ______ ____
ROOT
ATOM      1  C   UNL     1       2.183   6.846  19.538  0.00  0.00    +0.000 A 
ATOM      2  C   UNL     1       1.869   6.062  20.643  0.00  0.00    +0.000 A 
ATOM      3  C   UNL     1       2.345   4.749  20.751  0.00  0.00    +0.000 A 
ATOM      4  C   UNL     1       3.114   4.167  19.731  0.00  0.00    +0.000 A 
ATOM      5  C   UNL     1       3.637   2.771  19.949  0.00  0.00    +0.000 C 
ATOM      6  C   UNL     1       3.401   4.931  18.580  0.00  0.00    +0.000 A 
ATOM      7  C   UNL     1       2.960   6.276  18.525  0.00  0.00    +0.000 A 
ENDROOT
BRANCH   1  10
ATOM      8  C   UNL     1       1.047   8.942  20.278  0.00  0.00    +0.000 C 
ATOM      9  O   UNL     1       0.724   8.547  21.393  0.00  0.00    +0.000 OA
ATOM     10  N   UNL     1       1.740   8.179  19.351  0.00  0.00    +0.000 N 
ATOM     11  H   UNL     1       2.053   8.638  18.508  0.00  0.00    +0.000 HD
BRANCH   8  12
ATOM     12  C   UNL     1       0.680  10.382  19.831  0.00  0.00    +0.000 C 
ATOM     13  C   UNL     1      -0.824  10.396  19.473  0.00  0.00    +0.000 C 
ATOM     14  C   UNL     1       1.463  10.741  18.556  0.00  0.00    +0.000 C 
BRANCH  12  16
ATOM     15  C   UNL     1      -0.258  12.147  21.483  0.00  0.00    +0.000 C 
ATOM     16  C   UNL     1       0.972  11.455  20.910  0.00  0.00    +0.000 C 
ENDBRANCH  12  16
ENDBRANCH   8  12
ENDBRANCH   1  10
BRANCH   6  17
ATOM     17  C   UNL     1       4.094   4.374  17.341  0.00  0.00    +0.000 C 
BRANCH  17  18
ATOM     18  N   UNL     1       5.114   5.275  16.796  0.00  0.00    +0.000 NA
ATOM     19  C   UNL     1       5.391   5.070  15.366  0.00  0.00    +0.000 C 
ATOM     20  C   UNL     1       6.676   4.302  14.984  0.00  0.00    +0.000 C 
ATOM     21  O   UNL     1       7.813   4.643  15.776  0.00  0.00    +0.000 OA
ATOM     22  C   UNL     1       7.527   4.540  17.169  0.00  0.00    +0.000 C 
ATOM     23  C   UNL     1       6.359   5.453  17.559  0.00  0.00    +0.000 C 
ENDBRANCH  17  18
ENDBRANCH   6  17
TORSDOF 5
ENDMDL
