MODEL 1
REMARK VINA RESULT:      -8.9      0.000      0.000
REMARK  Name = 
REMARK  7 active torsions:
REMARK  status: ('A' for Active; 'I' for Inactive)
REMARK    1  A    between atoms: N_1  and  C_2
REMARK    2  A    between atoms: C_5  and  C_6
REMARK    3  A    between atoms: N_8  and  C_9
REMARK    4  A    between atoms: C_9  and  C_10
REMARK    5  A    between atoms: C_14  and  C_15
REMARK    6  A    between atoms: C_20  and  C_21
REMARK    7  A    between atoms: C_21  and  O_23
REMARK                            x       y       z     vdW  Elec       q    Type
REMARK                         _______ _______ _______ _____ _____    ______ ____
ROOT
ATOM      1  C   UNL     1       6.348   4.948  17.618  0.00  0.00    +0.000 A 
ATOM      2  C   UNL     1       6.053   4.741  16.266  0.00  0.00    +0.000 A 
ATOM      3  C   UNL     1       4.824   4.206  15.895  0.00  0.00    +0.000 A 
ATOM      4  C   UNL     1       3.901   3.832  16.875  0.00  0.00    +0.000 A 
ATOM      5  C   UNL     1       4.150   4.039  18.246  0.00  0.00    +0.000 A 
ATOM      6  C   UNL     1       5.375   4.644  18.582  0.00  0.00    +0.000 A 
ENDROOT
BRANCH   5   7
ATOM      7  C   UNL     1       3.162   3.633  19.281  0.00  0.00    +0.000 A 
ATOM      8  C   UNL     1       1.960   4.379  19.381  0.00  0.00    +0.000 A 
ATOM      9  C   UNL     1       0.983   4.104  20.342  0.00  0.00    +0.000 A 
ATOM     10  C   UNL     1       1.178   3.079  21.253  0.00  0.00    +0.000 A 
ATOM     11  C   UNL     1       2.346   2.324  21.190  0.00  0.00    +0.000 A 
ATOM     12  C   UNL     1       3.329   2.574  20.210  0.00  0.00    +0.000 A 
BRANCH  12  13
ATOM     13  C   UNL     1       4.511   1.666  20.305  0.00  0.00    +0.000 C 
ATOM     14  O   UNL     1       5.228   1.637  21.289  0.00  0.00    +0.000 OA
BRANCH  13  15
ATOM     15  O   UNL     1       4.697   0.831  19.262  0.00  0.00    +0.000 OA
ATOM     16  H   UNL     1       5.537   0.940  18.774  0.00  0.00    +0.000 HD
ENDBRANCH  13  15
ENDBRANCH  12  13
ENDBRANCH   5   7
BRANCH   1  17
ATOM     17  C   UNL     1       7.709   5.442  18.046  0.00  0.00    +0.000 C 
BRANCH  17  20
ATOM     18  C   UNL     1       8.248   8.985  18.162  0.00  0.00    +0.000 A 
ATOM     19  C   UNL     1       8.620   7.736  18.610  0.00  0.00    +0.000 A 
ATOM     20  N   UNL     1       7.834   6.878  17.892  0.00  0.00    +0.000 N 
ATOM     21  N   UNL     1       7.031   7.549  17.044  0.00  0.00    +0.000 NA
ATOM     22  N   UNL     1       7.272   8.845  17.208  0.00  0.00    +0.000 NA
BRANCH  18  26
ATOM     23  C   UNL     1       9.703  12.767  19.545  0.00  0.00    +0.000 A 
ATOM     24  C   UNL     1       9.888  11.612  20.310  0.00  0.00    +0.000 A 
ATOM     25  C   UNL     1       9.401  10.375  19.871  0.00  0.00    +0.000 A 
ATOM     26  C   UNL     1       8.760  10.259  18.633  0.00  0.00    +0.000 A 
ATOM     27  C   UNL     1       8.634  11.406  17.836  0.00  0.00    +0.000 A 
ATOM     28  C   UNL     1       9.118  12.642  18.285  0.00  0.00    +0.000 A 
BRANCH  23  29
ATOM     29  N   UNL     1      10.307  13.971  19.933  0.00  0.00    +0.000 N 
ATOM     30  H   UNL     1       9.949  14.344  20.806  0.00  0.00    +0.000 HD
ATOM     31  H   UNL     1      10.334  14.669  19.198  0.00  0.00    +0.000 HD
ENDBRANCH  23  29
ENDBRANCH  18  26
ENDBRANCH  17  20
ENDBRANCH   1  17
TORSDOF 7
ENDMDL
MODEL 2
REMARK VINA RESULT:      -8.8      0.727      1.170
REMARK  Name = 
REMARK  7 active torsions:
REMARK  status: ('A' for Active; 'I' for Inactive)
REMARK    1  A    between atoms: N_1  and  C_2
REMARK    2  A    between atoms: C_5  and  C_6
REMARK    3  A    between atoms: N_8  and  C_9
REMARK    4  A    between atoms: C_9  and  C_10
REMARK    5  A    between atoms: C_14  and  C_15
REMARK    6  A    between atoms: C_20  and  C_21
REMARK    7  A    between atoms: C_21  and  O_23
REMARK                            x       y       z     vdW  Elec       q    Type
REMARK                         _______ _______ _______ _____ _____    ______ ____
ROOT
ATOM      1  C   UNL     1       6.632   5.578  17.969  0.00  0.00    +0.000 A 
ATOM      2  C   UNL     1       6.528   5.430  16.581  0.00  0.00    +0.000 A 
ATOM      3  C   UNL     1       5.379   4.879  16.023  0.00  0.00    +0.000 A 
ATOM      4  C   UNL     1       4.347   4.430  16.852  0.00  0.00    +0.000 A 
ATOM      5  C   UNL     1       4.404   4.576  18.252  0.00  0.00    +0.000 A 
ATOM      6  C   UNL     1       5.550   5.199  18.778  0.00  0.00    +0.000 A 
ENDROOT
BRANCH   5   7
ATOM      7  C   UNL     1       3.301   4.091  19.125  0.00  0.00    +0.000 A 
ATOM      8  C   UNL     1       2.203   4.959  19.352  0.00  0.00    +0.000 A 
ATOM      9  C   UNL     1       1.133   4.616  20.184  0.00  0.00    +0.000 A 
ATOM     10  C   UNL     1       1.129   3.393  20.836  0.00  0.00    +0.000 A 
ATOM     11  C   UNL     1       2.189   2.513  20.640  0.00  0.00    +0.000 A 
ATOM     12  C   UNL     1       3.263   2.836  19.784  0.00  0.00    +0.000 A 
BRANCH  12  13
ATOM     13  C   UNL     1       4.306   1.770  19.708  0.00  0.00    +0.000 C 
ATOM     14  O   UNL     1       5.176   1.653  20.552  0.00  0.00    +0.000 OA
BRANCH  13  15
ATOM     15  O   UNL     1       4.187   0.903  18.681  0.00  0.00    +0.000 OA
ATOM     16  H   UNL     1       3.372   0.363  18.674  0.00  0.00    +0.000 HD
ENDBRANCH  13  15
ENDBRANCH  12  13
ENDBRANCH   5   7
BRANCH   1  17
ATOM     17  C   UNL     1       7.906   6.089  18.598  0.00  0.00    +0.000 C 
BRANCH  17  20
ATOM     18  C   UNL     1       8.637   9.596  18.437  0.00  0.00    +0.000 A 
ATOM     19  C   UNL     1       8.935   8.369  18.990  0.00  0.00    +0.000 A 
ATOM     20  N   UNL     1       8.111   7.499  18.332  0.00  0.00    +0.000 N 
ATOM     21  N   UNL     1       7.354   8.141  17.420  0.00  0.00    +0.000 NA
ATOM     22  N   UNL     1       7.665   9.431  17.483  0.00  0.00    +0.000 NA
BRANCH  18  26
ATOM     23  C   UNL     1      10.384  13.341  19.557  0.00  0.00    +0.000 A 
ATOM     24  C   UNL     1       9.819  13.172  18.290  0.00  0.00    +0.000 A 
ATOM     25  C   UNL     1       9.260  11.945  17.912  0.00  0.00    +0.000 A 
ATOM     26  C   UNL     1       9.212  10.875  18.812  0.00  0.00    +0.000 A 
ATOM     27  C   UNL     1       9.719  11.067  20.105  0.00  0.00    +0.000 A 
ATOM     28  C   UNL     1      10.283  12.295  20.474  0.00  0.00    +0.000 A 
BRANCH  23  29
ATOM     29  N   UNL     1      10.823  14.607  19.968  0.00  0.00    +0.000 N 
ATOM     30  H   UNL     1      11.041  15.233  19.200  0.00  0.00    +0.000 HD
ATOM     31  H   UNL     1      11.562  14.578  20.663  0.00  0.00    +0.000 HD
ENDBRANCH  23  29
ENDBRANCH  18  26
ENDBRANCH  17  20
ENDBRANCH   1  17
TORSDOF 7
ENDMDL
MODEL 3
REMARK VINA RESULT:      -8.7      1.862      2.307
REMARK  Name = 
REMARK  7 active torsions:
REMARK  status: ('A' for Active; 'I' for Inactive)
REMARK    1  A    between atoms: N_1  and  C_2
REMARK    2  A    between atoms: C_5  and  C_6
REMARK    3  A    between atoms: N_8  and  C_9
REMARK    4  A    between atoms: C_9  and  C_10
REMARK    5  A    between atoms: C_14  and  C_15
REMARK    6  A    between atoms: C_20  and  C_21
REMARK    7  A    between atoms: C_21  and  O_23
REMARK                            x       y       z     vdW  Elec       q    Type
REMARK                         _______ _______ _______ _____ _____    ______ ____
ROOT
ATOM      1  C   UNL     1       6.530   5.205  17.815  0.00  0.00    +0.000 A 
ATOM      2  C   UNL     1       6.436   4.875  16.459  0.00  0.00    +0.000 A 
ATOM      3  C   UNL     1       5.264   4.320  15.956  0.00  0.00    +0.000 A 
ATOM      4  C   UNL     1       4.195   4.049  16.815  0.00  0.00    +0.000 A 
ATOM      5  C   UNL     1       4.242   4.381  18.183  0.00  0.00    +0.000 A 
ATOM      6  C   UNL     1       5.416   5.003  18.645  0.00  0.00    +0.000 A 
ENDROOT
BRANCH   5   7
ATOM      7  C   UNL     1       3.100   4.084  19.089  0.00  0.00    +0.000 A 
ATOM      8  C   UNL     1       2.809   2.724  19.367  0.00  0.00    +0.000 A 
ATOM      9  C   UNL     1       1.737   2.335  20.176  0.00  0.00    +0.000 A 
ATOM     10  C   UNL     1       0.904   3.295  20.728  0.00  0.00    +0.000 A 
ATOM     11  C   UNL     1       1.155   4.641  20.479  0.00  0.00    +0.000 A 
ATOM     12  C   UNL     1       2.247   5.048  19.685  0.00  0.00    +0.000 A 
BRANCH  12  13
ATOM     13  C   UNL     1       2.350   6.530  19.526  0.00  0.00    +0.000 C 
ATOM     14  O   UNL     1       2.406   7.062  18.432  0.00  0.00    +0.000 OA
BRANCH  13  15
ATOM     15  O   UNL     1       2.310   7.247  20.668  0.00  0.00    +0.000 OA
ATOM     16  H   UNL     1       2.644   8.164  20.606  0.00  0.00    +0.000 HD
ENDBRANCH  13  15
ENDBRANCH  12  13
ENDBRANCH   5   7
BRANCH   1  17
ATOM     17  C   UNL     1       7.823   5.723  18.397  0.00  0.00    +0.000 C 
BRANCH  17  20
ATOM     18  C   UNL     1       8.437   9.256  18.336  0.00  0.00    +0.000 A 
ATOM     19  C   UNL     1       8.765   8.026  18.865  0.00  0.00    +0.000 A 
ATOM     20  N   UNL     1       7.986   7.146  18.169  0.00  0.00    +0.000 N 
ATOM     21  N   UNL     1       7.227   7.784  17.257  0.00  0.00    +0.000 NA
ATOM     22  N   UNL     1       7.491   9.082  17.357  0.00  0.00    +0.000 NA
BRANCH  18  26
ATOM     23  C   UNL     1       9.929  13.079  19.553  0.00  0.00    +0.000 A 
ATOM     24  C   UNL     1       9.971  11.990  20.427  0.00  0.00    +0.000 A 
ATOM     25  C   UNL     1       9.471  10.741  20.041  0.00  0.00    +0.000 A 
ATOM     26  C   UNL     1       8.960  10.544  18.753  0.00  0.00    +0.000 A 
ATOM     27  C   UNL     1       8.981  11.620  17.855  0.00  0.00    +0.000 A 
ATOM     28  C   UNL     1       9.477  12.869  18.251  0.00  0.00    +0.000 A 
BRANCH  23  29
ATOM     29  N   UNL     1      10.549  14.286  19.905  0.00  0.00    +0.000 N 
ATOM     30  H   UNL     1      10.911  14.806  19.112  0.00  0.00    +0.000 HD
ATOM     31  H   UNL     1      11.233  14.193  20.649  0.00  0.00    +0.000 HD
ENDBRANCH  23  29
ENDBRANCH  18  26
ENDBRANCH  17  20
ENDBRANCH   1  17
TORSDOF 7
ENDMDL
MODEL 4
REMARK VINA RESULT:      -8.7      0.932      1.154
REMARK  Name = 
REMARK  7 active torsions:
REMARK  status: ('A' for Active; 'I' for Inactive)
REMARK    1  A    between atoms: N_1  and  C_2
REMARK    2  A    between atoms: C_5  and  C_6
REMARK    3  A    between atoms: N_8  and  C_9
REMARK    4  A    between atoms: C_9  and  C_10
REMARK    5  A    between atoms: C_14  and  C_15
REMARK    6  A    between atoms: C_20  and  C_21
REMARK    7  A    between atoms: C_21  and  O_23
REMARK                            x       y       z     vdW  Elec       q    Type
REMARK                         _______ _______ _______ _____ _____    ______ ____
ROOT
ATOM      1  C   UNL     1       6.736   5.722  18.078  0.00  0.00    +0.000 A 
ATOM      2  C   UNL     1       6.712   5.465  16.703  0.00  0.00    +0.000 A 
ATOM      3  C   UNL     1       5.605   4.851  16.127  0.00  0.00    +0.000 A 
ATOM      4  C   UNL     1       4.534   4.448  16.931  0.00  0.00    +0.000 A 
ATOM      5  C   UNL     1       4.510   4.703  18.316  0.00  0.00    +0.000 A 
ATOM      6  C   UNL     1       5.616   5.386  18.854  0.00  0.00    +0.000 A 
ENDROOT
BRANCH   5   7
ATOM      7  C   UNL     1       3.368   4.265  19.162  0.00  0.00    +0.000 A 
ATOM      8  C   UNL     1       2.454   5.255  19.607  0.00  0.00    +0.000 A 
ATOM      9  C   UNL     1       1.368   4.957  20.436  0.00  0.00    +0.000 A 
ATOM     10  C   UNL     1       1.163   3.655  20.865  0.00  0.00    +0.000 A 
ATOM     11  C   UNL     1       2.038   2.655  20.452  0.00  0.00    +0.000 A 
ATOM     12  C   UNL     1       3.123   2.937  19.596  0.00  0.00    +0.000 A 
BRANCH  12  13
ATOM     13  C   UNL     1       3.952   1.739  19.268  0.00  0.00    +0.000 C 
ATOM     14  O   UNL     1       3.669   0.986  18.355  0.00  0.00    +0.000 OA
BRANCH  13  15
ATOM     15  O   UNL     1       5.073   1.581  20.002  0.00  0.00    +0.000 OA
ATOM     16  H   UNL     1       5.880   1.350  19.502  0.00  0.00    +0.000 HD
ENDBRANCH  13  15
ENDBRANCH  12  13
ENDBRANCH   5   7
BRANCH   1  17
ATOM     17  C   UNL     1       7.964   6.305  18.735  0.00  0.00    +0.000 C 
BRANCH  17  20
ATOM     18  C   UNL     1       8.664   9.798  18.325  0.00  0.00    +0.000 A 
ATOM     19  C   UNL     1       8.948   8.624  18.989  0.00  0.00    +0.000 A 
ATOM     20  N   UNL     1       8.167   7.692  18.365  0.00  0.00    +0.000 N 
ATOM     21  N   UNL     1       7.450   8.247  17.368  0.00  0.00    +0.000 NA
ATOM     22  N   UNL     1       7.742   9.543  17.341  0.00  0.00    +0.000 NA
BRANCH  18  26
ATOM     23  C   UNL     1      10.209  13.693  19.205  0.00  0.00    +0.000 A 
ATOM     24  C   UNL     1      10.594  12.587  19.967  0.00  0.00    +0.000 A 
ATOM     25  C   UNL     1      10.081  11.313  19.695  0.00  0.00    +0.000 A 
ATOM     26  C   UNL     1       9.206  11.111  18.622  0.00  0.00    +0.000 A 
ATOM     27  C   UNL     1       8.873  12.209  17.816  0.00  0.00    +0.000 A 
ATOM     28  C   UNL     1       9.385  13.482  18.099  0.00  0.00    +0.000 A 
BRANCH  23  29
ATOM     29  N   UNL     1      10.826  14.935  19.405  0.00  0.00    +0.000 N 
ATOM     30  H   UNL     1      10.355  15.705  18.943  0.00  0.00    +0.000 HD
ATOM     31  H   UNL     1      11.825  14.929  19.222  0.00  0.00    +0.000 HD
ENDBRANCH  23  29
ENDBRANCH  18  26
ENDBRANCH  17  20
ENDBRANCH   1  17
TORSDOF 7
ENDMDL
MODEL 5
REMARK VINA RESULT:      -8.5      1.795      2.358
REMARK  Name = 
REMARK  7 active torsions:
REMARK  status: ('A' for Active; 'I' for Inactive)
REMARK    1  A    between atoms: N_1  and  C_2
REMARK    2  A    between atoms: C_5  and  C_6
REMARK    3  A    between atoms: N_8  and  C_9
REMARK    4  A    between atoms: C_9  and  C_10
REMARK    5  A    between atoms: C_14  and  C_15
REMARK    6  A    between atoms: C_20  and  C_21
REMARK    7  A    between atoms: C_21  and  O_23
REMARK                            x       y       z     vdW  Elec       q    Type
REMARK                         _______ _______ _______ _____ _____    ______ ____
ROOT
ATOM      1  C   UNL     1       6.772   5.135  18.320  0.00  0.00    +0.000 A 
ATOM      2  C   UNL     1       6.838   4.667  17.003  0.00  0.00    +0.000 A 
ATOM      3  C   UNL     1       5.787   3.926  16.472  0.00  0.00    +0.000 A 
ATOM      4  C   UNL     1       4.684   3.610  17.270  0.00  0.00    +0.000 A 
ATOM      5  C   UNL     1       4.569   4.075  18.594  0.00  0.00    +0.000 A 
ATOM      6  C   UNL     1       5.619   4.878  19.077  0.00  0.00    +0.000 A 
ENDROOT
BRANCH   5   7
ATOM      7  C   UNL     1       3.393   3.729  19.436  0.00  0.00    +0.000 A 
ATOM      8  C   UNL     1       3.612   2.932  20.588  0.00  0.00    +0.000 A 
ATOM      9  C   UNL     1       2.572   2.520  21.427  0.00  0.00    +0.000 A 
ATOM     10  C   UNL     1       1.265   2.879  21.134  0.00  0.00    +0.000 A 
ATOM     11  C   UNL     1       1.008   3.660  20.012  0.00  0.00    +0.000 A 
ATOM     12  C   UNL     1       2.050   4.103  19.172  0.00  0.00    +0.000 A 
BRANCH  12  13
ATOM     13  C   UNL     1       1.578   4.924  18.017  0.00  0.00    +0.000 C 
ATOM     14  O   UNL     1       1.872   6.100  17.895  0.00  0.00    +0.000 OA
BRANCH  13  15
ATOM     15  O   UNL     1       0.863   4.266  17.081  0.00  0.00    +0.000 OA
ATOM     16  H   UNL     1      -0.072   4.536  16.993  0.00  0.00    +0.000 HD
ENDBRANCH  13  15
ENDBRANCH  12  13
ENDBRANCH   5   7
BRANCH   1  17
ATOM     17  C   UNL     1       7.940   5.861  18.942  0.00  0.00    +0.000 C 
BRANCH  17  20
ATOM     18  C   UNL     1       8.449   9.331  18.189  0.00  0.00    +0.000 A 
ATOM     19  C   UNL     1       8.809   8.240  18.952  0.00  0.00    +0.000 A 
ATOM     20  N   UNL     1       8.063   7.216  18.439  0.00  0.00    +0.000 N 
ATOM     21  N   UNL     1       7.294   7.639  17.416  0.00  0.00    +0.000 NA
ATOM     22  N   UNL     1       7.519   8.939  17.260  0.00  0.00    +0.000 NA
BRANCH  18  26
ATOM     23  C   UNL     1       9.922  13.325  18.642  0.00  0.00    +0.000 A 
ATOM     24  C   UNL     1       8.832  13.061  17.809  0.00  0.00    +0.000 A 
ATOM     25  C   UNL     1       8.355  11.755  17.644  0.00  0.00    +0.000 A 
ATOM     26  C   UNL     1       8.930  10.691  18.348  0.00  0.00    +0.000 A 
ATOM     27  C   UNL     1       9.980  10.968  19.235  0.00  0.00    +0.000 A 
ATOM     28  C   UNL     1      10.456  12.276  19.390  0.00  0.00    +0.000 A 
BRANCH  23  29
ATOM     29  N   UNL     1      10.305  14.649  18.898  0.00  0.00    +0.000 N 
ATOM     30  H   UNL     1      11.030  14.992  18.276  0.00  0.00    +0.000 HD
ATOM     31  H   UNL     1      10.517  14.831  19.874  0.00  0.00    +0.000 HD
ENDBRANCH  23  29
ENDBRANCH  18  26
ENDBRANCH  17  20
ENDBRANCH   1  17
TORSDOF 7
ENDMDL
MODEL 6
REMARK VINA RESULT:      -8.5      7.163      8.860
REMARK  Name = 
REMARK  7 active torsions:
REMARK  status: ('A' for Active; 'I' for Inactive)
REMARK    1  A    between atoms: N_1  and  C_2
REMARK    2  A    between atoms: C_5  and  C_6
REMARK    3  A    between atoms: N_8  and  C_9
REMARK    4  A    between atoms: C_9  and  C_10
REMARK    5  A    between atoms: C_14  and  C_15
REMARK    6  A    between atoms: C_20  and  C_21
REMARK    7  A    between atoms: C_21  and  O_23
REMARK                            x       y       z     vdW  Elec       q    Type
REMARK                         _______ _______ _______ _____ _____    ______ ____
ROOT
ATOM      1  C   UNL     1       1.363   8.541  20.218  0.00  0.00    +0.000 A 
ATOM      2  C   UNL     1       0.915   9.500  19.303  0.00  0.00    +0.000 A 
ATOM      3  C   UNL     1       1.266   9.401  17.961  0.00  0.00    +0.000 A 
ATOM      4  C   UNL     1       2.105   8.368  17.533  0.00  0.00    +0.000 A 
ATOM      5  C   UNL     1       2.564   7.372  18.418  0.00  0.00    +0.000 A 
ATOM      6  C   UNL     1       2.135   7.465  19.754  0.00  0.00    +0.000 A 
ENDROOT
BRANCH   5   7
ATOM      7  C   UNL     1       3.461   6.280  17.953  0.00  0.00    +0.000 A 
ATOM      8  C   UNL     1       4.794   6.617  17.605  0.00  0.00    +0.000 A 
ATOM      9  C   UNL     1       5.706   5.674  17.124  0.00  0.00    +0.000 A 
ATOM     10  C   UNL     1       5.314   4.355  16.957  0.00  0.00    +0.000 A 
ATOM     11  C   UNL     1       4.014   3.983  17.286  0.00  0.00    +0.000 A 
ATOM     12  C   UNL     1       3.090   4.920  17.796  0.00  0.00    +0.000 A 
BRANCH  12  13
ATOM     13  C   UNL     1       1.746   4.336  18.084  0.00  0.00    +0.000 C 
ATOM     14  O   UNL     1       0.942   4.095  17.202  0.00  0.00    +0.000 OA
BRANCH  13  15
ATOM     15  O   UNL     1       1.503   4.029  19.375  0.00  0.00    +0.000 OA
ATOM     16  H   UNL     1       0.689   4.412  19.757  0.00  0.00    +0.000 HD
ENDBRANCH  13  15
ENDBRANCH  12  13
ENDBRANCH   5   7
BRANCH   1  17
ATOM     17  C   UNL     1       1.068   8.682  21.692  0.00  0.00    +0.000 C 
BRANCH  17  20
ATOM     18  C   UNL     1      -0.665  11.696  22.569  0.00  0.00    +0.000 A 
ATOM     19  C   UNL     1      -0.606  10.321  22.652  0.00  0.00    +0.000 A 
ATOM     20  N   UNL     1       0.562  10.001  22.017  0.00  0.00    +0.000 N 
ATOM     21  N   UNL     1       1.194  11.106  21.575  0.00  0.00    +0.000 NA
ATOM     22  N   UNL     1       0.444  12.152  21.902  0.00  0.00    +0.000 NA
BRANCH  18  26
ATOM     23  C   UNL     1      -3.815  14.233  23.973  0.00  0.00    +0.000 A 
ATOM     24  C   UNL     1      -3.998  12.850  23.899  0.00  0.00    +0.000 A 
ATOM     25  C   UNL     1      -2.977  12.016  23.426  0.00  0.00    +0.000 A 
ATOM     26  C   UNL     1      -1.735  12.545  23.062  0.00  0.00    +0.000 A 
ATOM     27  C   UNL     1      -1.530  13.925  23.200  0.00  0.00    +0.000 A 
ATOM     28  C   UNL     1      -2.558  14.754  23.668  0.00  0.00    +0.000 A 
BRANCH  23  29
ATOM     29  N   UNL     1      -4.795  15.040  24.568  0.00  0.00    +0.000 N 
ATOM     30  H   UNL     1      -5.395  14.543  25.218  0.00  0.00    +0.000 HD
ATOM     31  H   UNL     1      -5.323  15.597  23.905  0.00  0.00    +0.000 HD
ENDBRANCH  23  29
ENDBRANCH  18  26
ENDBRANCH  17  20
ENDBRANCH   1  17
TORSDOF 7
ENDMDL
MODEL 7
REMARK VINA RESULT:      -8.5      7.203      8.905
REMARK  Name = 
REMARK  7 active torsions:
REMARK  status: ('A' for Active; 'I' for Inactive)
REMARK    1  A    between atoms: N_1  and  C_2
REMARK    2  A    between atoms: C_5  and  C_6
REMARK    3  A    between atoms: N_8  and  C_9
REMARK    4  A    between atoms: C_9  and  C_10
REMARK    5  A    between atoms: C_14  and  C_15
REMARK    6  A    between atoms: C_20  and  C_21
REMARK    7  A    between atoms: C_21  and  O_23
REMARK                            x       y       z     vdW  Elec       q    Type
REMARK                         _______ _______ _______ _____ _____    ______ ____
ROOT
ATOM      1  C   UNL     1       1.329   8.592  20.226  0.00  0.00    +0.000 A 
ATOM      2  C   UNL     1       0.860   9.542  19.312  0.00  0.00    +0.000 A 
ATOM      3  C   UNL     1       1.198   9.442  17.967  0.00  0.00    +0.000 A 
ATOM      4  C   UNL     1       2.045   8.418  17.534  0.00  0.00    +0.000 A 
ATOM      5  C   UNL     1       2.525   7.431  18.417  0.00  0.00    +0.000 A 
ATOM      6  C   UNL     1       2.109   7.524  19.758  0.00  0.00    +0.000 A 
ENDROOT
BRANCH   5   7
ATOM      7  C   UNL     1       3.430   6.348  17.947  0.00  0.00    +0.000 A 
ATOM      8  C   UNL     1       4.737   6.708  17.530  0.00  0.00    +0.000 A 
ATOM      9  C   UNL     1       5.653   5.774  17.038  0.00  0.00    +0.000 A 
ATOM     10  C   UNL     1       5.290   4.441  16.929  0.00  0.00    +0.000 A 
ATOM     11  C   UNL     1       4.015   4.047  17.326  0.00  0.00    +0.000 A 
ATOM     12  C   UNL     1       3.090   4.975  17.848  0.00  0.00    +0.000 A 
BRANCH  12  13
ATOM     13  C   UNL     1       1.776   4.366  18.213  0.00  0.00    +0.000 C 
ATOM     14  O   UNL     1       1.467   4.137  19.368  0.00  0.00    +0.000 OA
BRANCH  13  15
ATOM     15  O   UNL     1       0.924   4.148  17.190  0.00  0.00    +0.000 OA
ATOM     16  H   UNL     1       0.999   3.278  16.752  0.00  0.00    +0.000 HD
ENDBRANCH  13  15
ENDBRANCH  12  13
ENDBRANCH   5   7
BRANCH   1  17
ATOM     17  C   UNL     1       1.048   8.734  21.702  0.00  0.00    +0.000 C 
BRANCH  17  20
ATOM     18  C   UNL     1      -0.701  11.736  22.594  0.00  0.00    +0.000 A 
ATOM     19  C   UNL     1      -0.625  10.362  22.684  0.00  0.00    +0.000 A 
ATOM     20  N   UNL     1       0.533  10.050  22.029  0.00  0.00    +0.000 N 
ATOM     21  N   UNL     1       1.146  11.158  21.569  0.00  0.00    +0.000 NA
ATOM     22  N   UNL     1       0.391  12.199  21.904  0.00  0.00    +0.000 NA
BRANCH  18  26
ATOM     23  C   UNL     1      -3.857  14.182  24.138  0.00  0.00    +0.000 A 
ATOM     24  C   UNL     1      -2.644  14.753  23.746  0.00  0.00    +0.000 A 
ATOM     25  C   UNL     1      -1.602  13.957  23.254  0.00  0.00    +0.000 A 
ATOM     26  C   UNL     1      -1.770  12.577  23.101  0.00  0.00    +0.000 A 
ATOM     27  C   UNL     1      -3.011  12.014  23.432  0.00  0.00    +0.000 A 
ATOM     28  C   UNL     1      -4.047  12.816  23.929  0.00  0.00    +0.000 A 
BRANCH  23  29
ATOM     29  N   UNL     1      -4.933  15.001  24.505  0.00  0.00    +0.000 N 
ATOM     30  H   UNL     1      -5.612  15.140  23.764  0.00  0.00    +0.000 HD
ATOM     31  H   UNL     1      -4.652  15.875  24.939  0.00  0.00    +0.000 HD
ENDBRANCH  23  29
ENDBRANCH  18  26
ENDBRANCH  17  20
ENDBRANCH   1  17
TORSDOF 7
ENDMDL
MODEL 8
REMARK VINA RESULT:      -8.5      1.881      2.368
REMARK  Name = 
REMARK  7 active torsions:
REMARK  status: ('A' for Active; 'I' for Inactive)
REMARK    1  A    between atoms: N_1  and  C_2
REMARK    2  A    between atoms: C_5  and  C_6
REMARK    3  A    between atoms: N_8  and  C_9
REMARK    4  A    between atoms: C_9  and  C_10
REMARK    5  A    between atoms: C_14  and  C_15
REMARK    6  A    between atoms: C_20  and  C_21
REMARK    7  A    between atoms: C_21  and  O_23
REMARK                            x       y       z     vdW  Elec       q    Type
REMARK                         _______ _______ _______ _____ _____    ______ ____
ROOT
ATOM      1  C   UNL     1       4.692   6.955  17.460  0.00  0.00    +0.000 A 
ATOM      2  C   UNL     1       3.776   7.992  17.245  0.00  0.00    +0.000 A 
ATOM      3  C   UNL     1       2.501   7.921  17.798  0.00  0.00    +0.000 A 
ATOM      4  C   UNL     1       2.119   6.792  18.529  0.00  0.00    +0.000 A 
ATOM      5  C   UNL     1       3.015   5.735  18.783  0.00  0.00    +0.000 A 
ATOM      6  C   UNL     1       4.317   5.870  18.267  0.00  0.00    +0.000 A 
ENDROOT
BRANCH   5   7
ATOM      7  C   UNL     1       2.596   4.537  19.558  0.00  0.00    +0.000 A 
ATOM      8  C   UNL     1       2.225   4.720  20.915  0.00  0.00    +0.000 A 
ATOM      9  C   UNL     1       1.851   3.657  21.742  0.00  0.00    +0.000 A 
ATOM     10  C   UNL     1       1.849   2.363  21.246  0.00  0.00    +0.000 A 
ATOM     11  C   UNL     1       2.209   2.141  19.920  0.00  0.00    +0.000 A 
ATOM     12  C   UNL     1       2.564   3.207  19.068  0.00  0.00    +0.000 A 
BRANCH  12  13
ATOM     13  C   UNL     1       2.925   2.771  17.685  0.00  0.00    +0.000 C 
ATOM     14  O   UNL     1       2.177   2.938  16.738  0.00  0.00    +0.000 OA
BRANCH  13  15
ATOM     15  O   UNL     1       4.157   2.243  17.537  0.00  0.00    +0.000 OA
ATOM     16  H   UNL     1       4.902   2.828  17.778  0.00  0.00    +0.000 HD
ENDBRANCH  13  15
ENDBRANCH  12  13
ENDBRANCH   5   7
BRANCH   1  17
ATOM     17  C   UNL     1       6.047   6.971  16.795  0.00  0.00    +0.000 C 
BRANCH  17  20
ATOM     18  C   UNL     1       8.486   8.991  18.478  0.00  0.00    +0.000 A 
ATOM     19  C   UNL     1       7.401   8.942  17.628  0.00  0.00    +0.000 A 
ATOM     20  N   UNL     1       7.046   7.622  17.620  0.00  0.00    +0.000 N 
ATOM     21  N   UNL     1       7.850   6.896  18.421  0.00  0.00    +0.000 NA
ATOM     22  N   UNL     1       8.743   7.727  18.947  0.00  0.00    +0.000 NA
BRANCH  18  26
ATOM     23  C   UNL     1      10.766  12.490  19.421  0.00  0.00    +0.000 A 
ATOM     24  C   UNL     1      10.207  11.711  20.438  0.00  0.00    +0.000 A 
ATOM     25  C   UNL     1       9.448  10.574  20.136  0.00  0.00    +0.000 A 
ATOM     26  C   UNL     1       9.271  10.166  18.810  0.00  0.00    +0.000 A 
ATOM     27  C   UNL     1       9.888  10.910  17.794  0.00  0.00    +0.000 A 
ATOM     28  C   UNL     1      10.641  12.050  18.103  0.00  0.00    +0.000 A 
BRANCH  23  29
ATOM     29  N   UNL     1      11.629  13.547  19.739  0.00  0.00    +0.000 N 
ATOM     30  H   UNL     1      11.792  13.656  20.734  0.00  0.00    +0.000 HD
ATOM     31  H   UNL     1      11.384  14.423  19.289  0.00  0.00    +0.000 HD
ENDBRANCH  23  29
ENDBRANCH  18  26
ENDBRANCH  17  20
ENDBRANCH   1  17
TORSDOF 7
ENDMDL
MODEL 9
REMARK VINA RESULT:      -8.4      6.479      8.724
REMARK  Name = 
REMARK  7 active torsions:
REMARK  status: ('A' for Active; 'I' for Inactive)
REMARK    1  A    between atoms: N_1  and  C_2
REMARK    2  A    between atoms: C_5  and  C_6
REMARK    3  A    between atoms: N_8  and  C_9
REMARK    4  A    between atoms: C_9  and  C_10
REMARK    5  A    between atoms: C_14  and  C_15
REMARK    6  A    between atoms: C_20  and  C_21
REMARK    7  A    between atoms: C_21  and  O_23
REMARK                            x       y       z     vdW  Elec       q    Type
REMARK                         _______ _______ _______ _____ _____    ______ ____
ROOT
ATOM      1  C   UNL     1       1.938   8.357  18.925  0.00  0.00    +0.000 A 
ATOM      2  C   UNL     1       1.531   8.451  20.260  0.00  0.00    +0.000 A 
ATOM      3  C   UNL     1       1.535   7.321  21.072  0.00  0.00    +0.000 A 
ATOM      4  C   UNL     1       1.901   6.081  20.540  0.00  0.00    +0.000 A 
ATOM      5  C   UNL     1       2.333   5.946  19.206  0.00  0.00    +0.000 A 
ATOM      6  C   UNL     1       2.381   7.120  18.433  0.00  0.00    +0.000 A 
ENDROOT
BRANCH   5   7
ATOM      7  C   UNL     1       2.716   4.621  18.649  0.00  0.00    +0.000 A 
ATOM      8  C   UNL     1       1.686   3.671  18.426  0.00  0.00    +0.000 A 
ATOM      9  C   UNL     1       1.942   2.385  17.940  0.00  0.00    +0.000 A 
ATOM     10  C   UNL     1       3.244   1.994  17.672  0.00  0.00    +0.000 A 
ATOM     11  C   UNL     1       4.283   2.896  17.878  0.00  0.00    +0.000 A 
ATOM     12  C   UNL     1       4.037   4.205  18.344  0.00  0.00    +0.000 A 
BRANCH  12  13
ATOM     13  C   UNL     1       5.276   5.022  18.509  0.00  0.00    +0.000 C 
ATOM     14  O   UNL     1       6.030   4.873  19.454  0.00  0.00    +0.000 OA
BRANCH  13  15
ATOM     15  O   UNL     1       5.545   5.890  17.511  0.00  0.00    +0.000 OA
ATOM     16  H   UNL     1       6.416   5.786  17.081  0.00  0.00    +0.000 HD
ENDBRANCH  13  15
ENDBRANCH  12  13
ENDBRANCH   5   7
BRANCH   1  17
ATOM     17  C   UNL     1       1.854   9.551  18.005  0.00  0.00    +0.000 C 
BRANCH  17  20
ATOM     18  C   UNL     1      -1.334  11.179  18.222  0.00  0.00    +0.000 A 
ATOM     19  C   UNL     1      -0.627  10.044  17.887  0.00  0.00    +0.000 A 
ATOM     20  N   UNL     1       0.659  10.336  18.247  0.00  0.00    +0.000 N 
ATOM     21  N   UNL     1       0.746  11.570  18.781  0.00  0.00    +0.000 NA
ATOM     22  N   UNL     1      -0.472  12.099  18.763  0.00  0.00    +0.000 NA
BRANCH  18  26
ATOM     23  C   UNL     1      -5.523  11.793  17.584  0.00  0.00    +0.000 A 
ATOM     24  C   UNL     1      -4.928  12.160  18.793  0.00  0.00    +0.000 A 
ATOM     25  C   UNL     1      -3.562  11.948  19.014  0.00  0.00    +0.000 A 
ATOM     26  C   UNL     1      -2.752  11.407  18.010  0.00  0.00    +0.000 A 
ATOM     27  C   UNL     1      -3.338  11.100  16.774  0.00  0.00    +0.000 A 
ATOM     28  C   UNL     1      -4.706  11.309  16.562  0.00  0.00    +0.000 A 
BRANCH  23  29
ATOM     29  N   UNL     1      -6.860  12.128  17.328  0.00  0.00    +0.000 N 
ATOM     30  H   UNL     1      -7.510  11.769  18.019  0.00  0.00    +0.000 HD
ATOM     31  H   UNL     1      -7.156  11.928  16.378  0.00  0.00    +0.000 HD
ENDBRANCH  23  29
ENDBRANCH  18  26
ENDBRANCH  17  20
ENDBRANCH   1  17
TORSDOF 7
ENDMDL
