MODEL 1
REMARK VINA RESULT:      -7.2      0.000      0.000
REMARK  Name = 
REMARK  5 active torsions:
REMARK  status: ('A' for Active; 'I' for Inactive)
REMARK    1  A    between atoms: C_1  and  C_2
REMARK    2  A    between atoms: C_2  and  N_3
REMARK    3  A    between atoms: C_9  and  N_10
REMARK    4  A    between atoms: C_14  and  C_15
REMARK    5  A    between atoms: C_23  and  C_24
REMARK                            x       y       z     vdW  Elec       q    Type
REMARK                         _______ _______ _______ _____ _____    ______ ____
ROOT
ATOM      1  N   UNL     1       6.256   5.968  15.662  0.00  0.00    +0.000 NA
ATOM      2  C   UNL     1       4.959   5.323  15.331  0.00  0.00    +0.000 C 
ATOM      3  C   UNL     1       4.620   4.159  16.286  0.00  0.00    +0.000 C 
ATOM      4  N   UNL     1       4.686   4.657  17.648  0.00  0.00    +0.000 N 
ATOM      5  C   UNL     1       3.547   4.586  18.515  0.00  0.00    +0.000 A 
ATOM      6  C   UNL     1       3.333   5.531  19.534  0.00  0.00    +0.000 A 
ATOM      7  C   UNL     1       2.161   5.455  20.289  0.00  0.00    +0.000 A 
ATOM      8  N   UNL     1       1.291   4.437  20.066  0.00  0.00    +0.000 NA
ATOM      9  C   UNL     1       1.519   3.504  19.113  0.00  0.00    +0.000 A 
ATOM     10  C   UNL     1       0.564   2.369  18.944  0.00  0.00    +0.000 C 
ATOM     11  N   UNL     1       2.621   3.599  18.327  0.00  0.00    +0.000 NA
ATOM     12  C   UNL     1       5.943   5.275  18.041  0.00  0.00    +0.000 C 
ATOM     13  C   UNL     1       6.261   6.424  17.075  0.00  0.00    +0.000 C 
ENDROOT
BRANCH   7  14
ATOM     14  N   UNL     1       1.858   6.464  21.245  0.00  0.00    +0.000 N 
ATOM     15  C   UNL     1       1.470   7.771  20.851  0.00  0.00    +0.000 A 
ATOM     16  N   UNL     1       1.385   8.169  19.564  0.00  0.00    +0.000 NA
ATOM     17  C   UNL     1       1.089   9.485  19.452  0.00  0.00    +0.000 A 
ATOM     18  C   UNL     1       0.940  10.156  20.666  0.00  0.00    +0.000 A 
ATOM     19  S   UNL     1       1.194   9.040  21.914  0.00  0.00    +0.000 S 
ATOM     20  H   UNL     1       2.049   6.292  22.245  0.00  0.00    +0.000 HD
BRANCH  18  21
ATOM     21  C   UNL     1       0.624  11.593  20.846  0.00  0.00    +0.000 A 
ATOM     22  C   UNL     1       1.197  12.573  20.012  0.00  0.00    +0.000 A 
ATOM     23  C   UNL     1       0.885  13.923  20.186  0.00  0.00    +0.000 A 
ATOM     24  C   UNL     1       0.003  14.312  21.192  0.00  0.00    +0.000 A 
ATOM     25  C   UNL     1      -0.569  13.355  22.029  0.00  0.00    +0.000 A 
ATOM     26  C   UNL     1      -0.262  12.001  21.860  0.00  0.00    +0.000 A 
ENDBRANCH  18  21
ENDBRANCH   7  14
BRANCH   1  28
ATOM     27  C   UNL     1       7.539   4.776  13.866  0.00  0.00    +0.000 C 
ATOM     28  C   UNL     1       7.459   5.162  15.344  0.00  0.00    +0.000 C 
ENDBRANCH   1  28
TORSDOF 3
ENDMDL
MODEL 2
REMARK VINA RESULT:      -7.2      4.743      7.285
REMARK  Name = 
REMARK  5 active torsions:
REMARK  status: ('A' for Active; 'I' for Inactive)
REMARK    1  A    between atoms: C_1  and  C_2
REMARK    2  A    between atoms: C_2  and  N_3
REMARK    3  A    between atoms: C_9  and  N_10
REMARK    4  A    between atoms: C_14  and  C_15
REMARK    5  A    between atoms: C_23  and  C_24
REMARK                            x       y       z     vdW  Elec       q    Type
REMARK                         _______ _______ _______ _____ _____    ______ ____
ROOT
ATOM      1  N   UNL     1       2.550   3.208  20.088  0.00  0.00    +0.000 NA
ATOM      2  C   UNL     1       3.361   2.554  19.029  0.00  0.00    +0.000 C 
ATOM      3  C   UNL     1       3.478   3.420  17.757  0.00  0.00    +0.000 C 
ATOM      4  N   UNL     1       3.980   4.727  18.143  0.00  0.00    +0.000 N 
ATOM      5  C   UNL     1       5.195   5.244  17.587  0.00  0.00    +0.000 A 
ATOM      6  C   UNL     1       6.021   6.126  18.307  0.00  0.00    +0.000 A 
ATOM      7  C   UNL     1       7.233   6.526  17.742  0.00  0.00    +0.000 A 
ATOM      8  N   UNL     1       7.554   6.109  16.490  0.00  0.00    +0.000 NA
ATOM      9  C   UNL     1       6.738   5.293  15.782  0.00  0.00    +0.000 A 
ATOM     10  C   UNL     1       7.105   4.908  14.388  0.00  0.00    +0.000 C 
ATOM     11  N   UNL     1       5.586   4.843  16.342  0.00  0.00    +0.000 NA
ATOM     12  C   UNL     1       3.210   5.431  19.158  0.00  0.00    +0.000 C 
ATOM     13  C   UNL     1       3.104   4.548  20.409  0.00  0.00    +0.000 C 
ENDROOT
BRANCH   7  14
ATOM     14  N   UNL     1       8.145   7.321  18.491  0.00  0.00    +0.000 N 
ATOM     15  C   UNL     1       8.245   8.723  18.295  0.00  0.00    +0.000 A 
ATOM     16  N   UNL     1       7.520   9.404  17.382  0.00  0.00    +0.000 NA
ATOM     17  C   UNL     1       7.865  10.711  17.322  0.00  0.00    +0.000 A 
ATOM     18  C   UNL     1       8.888  11.085  18.196  0.00  0.00    +0.000 A 
ATOM     19  S   UNL     1       9.362   9.712  19.064  0.00  0.00    +0.000 S 
ATOM     20  H   UNL     1       8.845   6.861  19.094  0.00  0.00    +0.000 HD
BRANCH  18  21
ATOM     21  C   UNL     1       9.470  12.441  18.340  0.00  0.00    +0.000 A 
ATOM     22  C   UNL     1      10.852  12.620  18.550  0.00  0.00    +0.000 A 
ATOM     23  C   UNL     1      11.389  13.903  18.677  0.00  0.00    +0.000 A 
ATOM     24  C   UNL     1      10.560  15.019  18.597  0.00  0.00    +0.000 A 
ATOM     25  C   UNL     1       9.189  14.859  18.394  0.00  0.00    +0.000 A 
ATOM     26  C   UNL     1       8.644  13.577  18.266  0.00  0.00    +0.000 A 
ENDBRANCH  18  21
ENDBRANCH   7  14
BRANCH   1  28
ATOM     27  C   UNL     1       0.630   2.198  18.830  0.00  0.00    +0.000 C 
ATOM     28  C   UNL     1       1.095   3.269  19.818  0.00  0.00    +0.000 C 
ENDBRANCH   1  28
TORSDOF 3
ENDMDL
MODEL 3
REMARK VINA RESULT:      -7.2      1.144      1.214
REMARK  Name = 
REMARK  5 active torsions:
REMARK  status: ('A' for Active; 'I' for Inactive)
REMARK    1  A    between atoms: C_1  and  C_2
REMARK    2  A    between atoms: C_2  and  N_3
REMARK    3  A    between atoms: C_9  and  N_10
REMARK    4  A    between atoms: C_14  and  C_15
REMARK    5  A    between atoms: C_23  and  C_24
REMARK                            x       y       z     vdW  Elec       q    Type
REMARK                         _______ _______ _______ _____ _____    ______ ____
ROOT
ATOM      1  N   UNL     1       5.848   5.757  15.518  0.00  0.00    +0.000 NA
ATOM      2  C   UNL     1       4.680   4.838  15.514  0.00  0.00    +0.000 C 
ATOM      3  C   UNL     1       4.590   3.995  16.804  0.00  0.00    +0.000 C 
ATOM      4  N   UNL     1       4.607   4.901  17.938  0.00  0.00    +0.000 N 
ATOM      5  C   UNL     1       3.529   4.921  18.882  0.00  0.00    +0.000 A 
ATOM      6  C   UNL     1       3.178   6.091  19.579  0.00  0.00    +0.000 A 
ATOM      7  C   UNL     1       2.064   6.066  20.420  0.00  0.00    +0.000 A 
ATOM      8  N   UNL     1       1.389   4.901  20.595  0.00  0.00    +0.000 NA
ATOM      9  C   UNL     1       1.753   3.766  19.955  0.00  0.00    +0.000 A 
ATOM     10  C   UNL     1       1.016   2.495  20.223  0.00  0.00    +0.000 C 
ATOM     11  N   UNL     1       2.794   3.788  19.085  0.00  0.00    +0.000 NA
ATOM     12  C   UNL     1       5.742   5.809  18.013  0.00  0.00    +0.000 C 
ATOM     13  C   UNL     1       5.814   6.629  16.719  0.00  0.00    +0.000 C 
ENDROOT
BRANCH   7  14
ATOM     14  N   UNL     1       1.612   7.260  21.047  0.00  0.00    +0.000 N 
ATOM     15  C   UNL     1       1.393   8.452  20.307  0.00  0.00    +0.000 A 
ATOM     16  N   UNL     1       1.617   8.560  18.981  0.00  0.00    +0.000 NA
ATOM     17  C   UNL     1       1.426   9.821  18.528  0.00  0.00    +0.000 A 
ATOM     18  C   UNL     1       1.048  10.741  19.506  0.00  0.00    +0.000 A 
ATOM     19  S   UNL     1       0.958   9.924  20.986  0.00  0.00    +0.000 S 
ATOM     20  H   UNL     1       1.568   7.310  22.077  0.00  0.00    +0.000 HD
BRANCH  18  21
ATOM     21  C   UNL     1       0.779  12.185  19.301  0.00  0.00    +0.000 A 
ATOM     22  C   UNL     1       1.773  13.044  18.792  0.00  0.00    +0.000 A 
ATOM     23  C   UNL     1       1.504  14.401  18.595  0.00  0.00    +0.000 A 
ATOM     24  C   UNL     1       0.247  14.916  18.905  0.00  0.00    +0.000 A 
ATOM     25  C   UNL     1      -0.746  14.080  19.414  0.00  0.00    +0.000 A 
ATOM     26  C   UNL     1      -0.484  12.720  19.613  0.00  0.00    +0.000 A 
ENDBRANCH  18  21
ENDBRANCH   7  14
BRANCH   1  28
ATOM     27  C   UNL     1       7.491   4.773  13.898  0.00  0.00    +0.000 C 
ATOM     28  C   UNL     1       7.166   5.101  15.357  0.00  0.00    +0.000 C 
ENDBRANCH   1  28
TORSDOF 3
ENDMDL
MODEL 4
REMARK VINA RESULT:      -6.9      2.855      8.835
REMARK  Name = 
REMARK  5 active torsions:
REMARK  status: ('A' for Active; 'I' for Inactive)
REMARK    1  A    between atoms: C_1  and  C_2
REMARK    2  A    between atoms: C_2  and  N_3
REMARK    3  A    between atoms: C_9  and  N_10
REMARK    4  A    between atoms: C_14  and  C_15
REMARK    5  A    between atoms: C_23  and  C_24
REMARK                            x       y       z     vdW  Elec       q    Type
REMARK                         _______ _______ _______ _____ _____    ______ ____
ROOT
ATOM      1  N   UNL     1       2.723  15.344  19.445  0.00  0.00    +0.000 NA
ATOM      2  C   UNL     1       1.991  15.461  20.734  0.00  0.00    +0.000 C 
ATOM      3  C   UNL     1       0.556  14.898  20.648  0.00  0.00    +0.000 C 
ATOM      4  N   UNL     1       0.633  13.537  20.149  0.00  0.00    +0.000 N 
ATOM      5  C   UNL     1       0.113  12.441  20.912  0.00  0.00    +0.000 A 
ATOM      6  C   UNL     1       0.664  11.150  20.822  0.00  0.00    +0.000 A 
ATOM      7  C   UNL     1       0.167  10.146  21.654  0.00  0.00    +0.000 A 
ATOM      8  N   UNL     1      -0.874  10.421  22.481  0.00  0.00    +0.000 NA
ATOM      9  C   UNL     1      -1.430  11.654  22.538  0.00  0.00    +0.000 A 
ATOM     10  C   UNL     1      -2.611  11.895  23.418  0.00  0.00    +0.000 C 
ATOM     11  N   UNL     1      -0.918  12.658  21.781  0.00  0.00    +0.000 NA
ATOM     12  C   UNL     1       1.315  13.362  18.875  0.00  0.00    +0.000 C 
ATOM     13  C   UNL     1       2.734  13.934  18.984  0.00  0.00    +0.000 C 
ENDROOT
BRANCH   7  14
ATOM     14  N   UNL     1       0.779   8.862  21.673  0.00  0.00    +0.000 N 
ATOM     15  C   UNL     1       1.453   8.341  20.538  0.00  0.00    +0.000 A 
ATOM     16  N   UNL     1       1.543   8.994  19.359  0.00  0.00    +0.000 NA
ATOM     17  C   UNL     1       2.150   8.249  18.405  0.00  0.00    +0.000 A 
ATOM     18  C   UNL     1       2.547   6.978  18.821  0.00  0.00    +0.000 A 
ATOM     19  S   UNL     1       2.111   6.801  20.448  0.00  0.00    +0.000 S 
ATOM     20  H   UNL     1       0.622   8.234  22.477  0.00  0.00    +0.000 HD
BRANCH  18  21
ATOM     21  C   UNL     1       3.224   5.951  17.993  0.00  0.00    +0.000 A 
ATOM     22  C   UNL     1       4.372   6.265  17.240  0.00  0.00    +0.000 A 
ATOM     23  C   UNL     1       5.005   5.286  16.470  0.00  0.00    +0.000 A 
ATOM     24  C   UNL     1       4.501   3.987  16.439  0.00  0.00    +0.000 A 
ATOM     25  C   UNL     1       3.362   3.661  17.176  0.00  0.00    +0.000 A 
ATOM     26  C   UNL     1       2.724   4.636  17.950  0.00  0.00    +0.000 A 
ENDBRANCH  18  21
ENDBRANCH   7  14
BRANCH   1  28
ATOM     27  C   UNL     1       3.300  16.436  17.262  0.00  0.00    +0.000 C 
ATOM     28  C   UNL     1       2.268  16.265  18.378  0.00  0.00    +0.000 C 
ENDBRANCH   1  28
TORSDOF 3
ENDMDL
MODEL 5
REMARK VINA RESULT:      -6.8      6.445     10.898
REMARK  Name = 
REMARK  5 active torsions:
REMARK  status: ('A' for Active; 'I' for Inactive)
REMARK    1  A    between atoms: C_1  and  C_2
REMARK    2  A    between atoms: C_2  and  N_3
REMARK    3  A    between atoms: C_9  and  N_10
REMARK    4  A    between atoms: C_14  and  C_15
REMARK    5  A    between atoms: C_23  and  C_24
REMARK                            x       y       z     vdW  Elec       q    Type
REMARK                         _______ _______ _______ _____ _____    ______ ____
ROOT
ATOM      1  N   UNL     1       0.303  11.428  19.927  0.00  0.00    +0.000 NA
ATOM      2  C   UNL     1       0.055  12.165  18.661  0.00  0.00    +0.000 C 
ATOM      3  C   UNL     1      -0.228  13.664  18.899  0.00  0.00    +0.000 C 
ATOM      4  N   UNL     1       0.867  14.212  19.681  0.00  0.00    +0.000 N 
ATOM      5  C   UNL     1       1.652  15.304  19.186  0.00  0.00    +0.000 A 
ATOM      6  C   UNL     1       3.003  15.464  19.543  0.00  0.00    +0.000 A 
ATOM      7  C   UNL     1       3.735  16.500  18.960  0.00  0.00    +0.000 A 
ATOM      8  N   UNL     1       3.113  17.363  18.117  0.00  0.00    +0.000 NA
ATOM      9  C   UNL     1       1.802  17.231  17.806  0.00  0.00    +0.000 A 
ATOM     10  C   UNL     1       1.146  18.238  16.920  0.00  0.00    +0.000 C 
ATOM     11  N   UNL     1       1.091  16.192  18.314  0.00  0.00    +0.000 NA
ATOM     12  C   UNL     1       1.141  13.548  20.947  0.00  0.00    +0.000 C 
ATOM     13  C   UNL     1       1.411  12.061  20.685  0.00  0.00    +0.000 C 
ENDROOT
BRANCH   7  14
ATOM     14  N   UNL     1       5.131  16.618  19.208  0.00  0.00    +0.000 N 
ATOM     15  C   UNL     1       6.066  15.707  18.651  0.00  0.00    +0.000 A 
ATOM     16  N   UNL     1       5.716  14.656  17.879  0.00  0.00    +0.000 NA
ATOM     17  C   UNL     1       6.778  13.883  17.551  0.00  0.00    +0.000 A 
ATOM     18  C   UNL     1       7.998  14.315  18.073  0.00  0.00    +0.000 A 
ATOM     19  S   UNL     1       7.712  15.719  18.975  0.00  0.00    +0.000 S 
ATOM     20  H   UNL     1       5.468  17.294  19.911  0.00  0.00    +0.000 HD
BRANCH  18  21
ATOM     21  C   UNL     1       9.316  13.664  17.884  0.00  0.00    +0.000 A 
ATOM     22  C   UNL     1      10.475  14.426  17.637  0.00  0.00    +0.000 A 
ATOM     23  C   UNL     1      11.713  13.800  17.470  0.00  0.00    +0.000 A 
ATOM     24  C   UNL     1      11.810  12.412  17.545  0.00  0.00    +0.000 A 
ATOM     25  C   UNL     1      10.671  11.643  17.784  0.00  0.00    +0.000 A 
ATOM     26  C   UNL     1       9.428  12.263  17.954  0.00  0.00    +0.000 A 
ENDBRANCH  18  21
ENDBRANCH   7  14
BRANCH   1  28
ATOM     27  C   UNL     1      -0.595  10.373  22.018  0.00  0.00    +0.000 C 
ATOM     28  C   UNL     1      -0.891  11.219  20.779  0.00  0.00    +0.000 C 
ENDBRANCH   1  28
TORSDOF 3
ENDMDL
MODEL 6
REMARK VINA RESULT:      -6.8      1.726      2.550
REMARK  Name = 
REMARK  5 active torsions:
REMARK  status: ('A' for Active; 'I' for Inactive)
REMARK    1  A    between atoms: C_1  and  C_2
REMARK    2  A    between atoms: C_2  and  N_3
REMARK    3  A    between atoms: C_9  and  N_10
REMARK    4  A    between atoms: C_14  and  C_15
REMARK    5  A    between atoms: C_23  and  C_24
REMARK                            x       y       z     vdW  Elec       q    Type
REMARK                         _______ _______ _______ _____ _____    ______ ____
ROOT
ATOM      1  N   UNL     1       5.600   5.008  14.763  0.00  0.00    +0.000 NA
ATOM      2  C   UNL     1       4.751   4.087  15.562  0.00  0.00    +0.000 C 
ATOM      3  C   UNL     1       4.963   4.259  17.081  0.00  0.00    +0.000 C 
ATOM      4  N   UNL     1       4.763   5.659  17.410  0.00  0.00    +0.000 N 
ATOM      5  C   UNL     1       3.766   6.060  18.358  0.00  0.00    +0.000 A 
ATOM      6  C   UNL     1       3.120   7.306  18.270  0.00  0.00    +0.000 A 
ATOM      7  C   UNL     1       2.098   7.600  19.174  0.00  0.00    +0.000 A 
ATOM      8  N   UNL     1       1.796   6.708  20.152  0.00  0.00    +0.000 NA
ATOM      9  C   UNL     1       2.447   5.526  20.260  0.00  0.00    +0.000 A 
ATOM     10  C   UNL     1       2.123   4.602  21.386  0.00  0.00    +0.000 C 
ATOM     11  N   UNL     1       3.400   5.197  19.351  0.00  0.00    +0.000 NA
ATOM     12  C   UNL     1       5.589   6.610  16.680  0.00  0.00    +0.000 C 
ATOM     13  C   UNL     1       5.365   6.415  15.174  0.00  0.00    +0.000 C 
ENDROOT
BRANCH   7  14
ATOM     14  N   UNL     1       1.345   8.800  19.039  0.00  0.00    +0.000 N 
ATOM     15  C   UNL     1       0.864   9.508  20.170  0.00  0.00    +0.000 A 
ATOM     16  N   UNL     1       1.051   9.098  21.443  0.00  0.00    +0.000 NA
ATOM     17  C   UNL     1       0.415   9.892  22.337  0.00  0.00    +0.000 A 
ATOM     18  C   UNL     1      -0.298  10.951  21.774  0.00  0.00    +0.000 A 
ATOM     19  S   UNL     1      -0.112  10.871  20.093  0.00  0.00    +0.000 S 
ATOM     20  H   UNL     1       1.024   9.098  18.104  0.00  0.00    +0.000 HD
BRANCH  18  21
ATOM     21  C   UNL     1      -1.089  11.968  22.507  0.00  0.00    +0.000 A 
ATOM     22  C   UNL     1      -2.263  11.615  23.201  0.00  0.00    +0.000 A 
ATOM     23  C   UNL     1      -2.996  12.581  23.894  0.00  0.00    +0.000 A 
ATOM     24  C   UNL     1      -2.570  13.907  23.903  0.00  0.00    +0.000 A 
ATOM     25  C   UNL     1      -1.412  14.275  23.217  0.00  0.00    +0.000 A 
ATOM     26  C   UNL     1      -0.673  13.312  22.522  0.00  0.00    +0.000 A 
ENDBRANCH  18  21
ENDBRANCH   7  14
BRANCH   1  28
ATOM     27  C   UNL     1       7.724   5.048  13.429  0.00  0.00    +0.000 C 
ATOM     28  C   UNL     1       7.045   4.678  14.748  0.00  0.00    +0.000 C 
ENDBRANCH   1  28
TORSDOF 3
ENDMDL
MODEL 7
REMARK VINA RESULT:      -6.7      2.715      8.682
REMARK  Name = 
REMARK  5 active torsions:
REMARK  status: ('A' for Active; 'I' for Inactive)
REMARK    1  A    between atoms: C_1  and  C_2
REMARK    2  A    between atoms: C_2  and  N_3
REMARK    3  A    between atoms: C_9  and  N_10
REMARK    4  A    between atoms: C_14  and  C_15
REMARK    5  A    between atoms: C_23  and  C_24
REMARK                            x       y       z     vdW  Elec       q    Type
REMARK                         _______ _______ _______ _____ _____    ______ ____
ROOT
ATOM      1  N   UNL     1       3.037  14.871  19.224  0.00  0.00    +0.000 NA
ATOM      2  C   UNL     1       2.395  14.976  20.560  0.00  0.00    +0.000 C 
ATOM      3  C   UNL     1       0.927  14.501  20.547  0.00  0.00    +0.000 C 
ATOM      4  N   UNL     1       0.891  13.159  19.993  0.00  0.00    +0.000 N 
ATOM      5  C   UNL     1       0.355  12.064  20.747  0.00  0.00    +0.000 A 
ATOM      6  C   UNL     1       0.820  10.748  20.572  0.00  0.00    +0.000 A 
ATOM      7  C   UNL     1       0.318   9.741  21.397  0.00  0.00    +0.000 A 
ATOM      8  N   UNL     1      -0.651  10.041  22.300  0.00  0.00    +0.000 NA
ATOM      9  C   UNL     1      -1.127  11.300  22.438  0.00  0.00    +0.000 A 
ATOM     10  C   UNL     1      -2.234  11.572  23.402  0.00  0.00    +0.000 C 
ATOM     11  N   UNL     1      -0.605  12.304  21.689  0.00  0.00    +0.000 NA
ATOM     12  C   UNL     1       1.479  12.998  18.672  0.00  0.00    +0.000 C 
ATOM     13  C   UNL     1       2.935  13.483  18.709  0.00  0.00    +0.000 C 
ENDROOT
BRANCH   7  14
ATOM     14  N   UNL     1       0.852   8.424  21.328  0.00  0.00    +0.000 N 
ATOM     15  C   UNL     1       1.651   8.002  20.233  0.00  0.00    +0.000 A 
ATOM     16  N   UNL     1       1.942   8.786  19.174  0.00  0.00    +0.000 NA
ATOM     17  C   UNL     1       2.637   8.124  18.219  0.00  0.00    +0.000 A 
ATOM     18  C   UNL     1       2.903   6.786  18.514  0.00  0.00    +0.000 A 
ATOM     19  S   UNL     1       2.233   6.441  20.029  0.00  0.00    +0.000 S 
ATOM     20  H   UNL     1       0.549   7.715  22.014  0.00  0.00    +0.000 HD
BRANCH  18  21
ATOM     21  C   UNL     1       3.635   5.824  17.655  0.00  0.00    +0.000 A 
ATOM     22  C   UNL     1       3.359   4.444  17.710  0.00  0.00    +0.000 A 
ATOM     23  C   UNL     1       4.049   3.549  16.889  0.00  0.00    +0.000 A 
ATOM     24  C   UNL     1       5.021   4.017  16.008  0.00  0.00    +0.000 A 
ATOM     25  C   UNL     1       5.310   5.381  15.944  0.00  0.00    +0.000 A 
ATOM     26  C   UNL     1       4.622   6.283  16.763  0.00  0.00    +0.000 A 
ENDBRANCH  18  21
ENDBRANCH   7  14
BRANCH   1  28
ATOM     27  C   UNL     1       3.489  15.946  17.003  0.00  0.00    +0.000 C 
ATOM     28  C   UNL     1       2.571  15.860  18.224  0.00  0.00    +0.000 C 
ENDBRANCH   1  28
TORSDOF 3
ENDMDL
MODEL 8
REMARK VINA RESULT:      -6.7      3.601      9.172
REMARK  Name = 
REMARK  5 active torsions:
REMARK  status: ('A' for Active; 'I' for Inactive)
REMARK    1  A    between atoms: C_1  and  C_2
REMARK    2  A    between atoms: C_2  and  N_3
REMARK    3  A    between atoms: C_9  and  N_10
REMARK    4  A    between atoms: C_14  and  C_15
REMARK    5  A    between atoms: C_23  and  C_24
REMARK                            x       y       z     vdW  Elec       q    Type
REMARK                         _______ _______ _______ _____ _____    ______ ____
ROOT
ATOM      1  N   UNL     1       4.918  15.945  20.480  0.00  0.00    +0.000 NA
ATOM      2  C   UNL     1       3.700  15.606  21.262  0.00  0.00    +0.000 C 
ATOM      3  C   UNL     1       2.428  15.583  20.388  0.00  0.00    +0.000 C 
ATOM      4  N   UNL     1       2.664  14.689  19.269  0.00  0.00    +0.000 N 
ATOM      5  C   UNL     1       1.820  13.553  19.042  0.00  0.00    +0.000 A 
ATOM      6  C   UNL     1       2.304  12.382  18.431  0.00  0.00    +0.000 A 
ATOM      7  C   UNL     1       1.454  11.281  18.316  0.00  0.00    +0.000 A 
ATOM      8  N   UNL     1       0.167  11.387  18.736  0.00  0.00    +0.000 NA
ATOM      9  C   UNL     1      -0.309  12.528  19.287  0.00  0.00    +0.000 A 
ATOM     10  C   UNL     1      -1.746  12.618  19.680  0.00  0.00    +0.000 C 
ATOM     11  N   UNL     1       0.522  13.587  19.464  0.00  0.00    +0.000 NA
ATOM     12  C   UNL     1       3.828  14.987  18.448  0.00  0.00    +0.000 C 
ATOM     13  C   UNL     1       5.077  15.010  19.339  0.00  0.00    +0.000 C 
ENDROOT
BRANCH   7  14
ATOM     14  N   UNL     1       1.946  10.045  17.812  0.00  0.00    +0.000 N 
ATOM     15  C   UNL     1       1.938   8.864  18.599  0.00  0.00    +0.000 A 
ATOM     16  N   UNL     1       1.499   8.820  19.875  0.00  0.00    +0.000 NA
ATOM     17  C   UNL     1       1.683   7.603  20.440  0.00  0.00    +0.000 A 
ATOM     18  C   UNL     1       2.285   6.658  19.607  0.00  0.00    +0.000 A 
ATOM     19  S   UNL     1       2.590   7.396  18.115  0.00  0.00    +0.000 S 
ATOM     20  H   UNL     1       2.443  10.026  16.908  0.00  0.00    +0.000 HD
BRANCH  18  21
ATOM     21  C   UNL     1       2.614   5.257  19.960  0.00  0.00    +0.000 A 
ATOM     22  C   UNL     1       3.507   4.499  19.176  0.00  0.00    +0.000 A 
ATOM     23  C   UNL     1       3.814   3.182  19.524  0.00  0.00    +0.000 A 
ATOM     24  C   UNL     1       3.236   2.604  20.652  0.00  0.00    +0.000 A 
ATOM     25  C   UNL     1       2.346   3.339  21.437  0.00  0.00    +0.000 A 
ATOM     26  C   UNL     1       2.034   4.659  21.095  0.00  0.00    +0.000 A 
ENDBRANCH  18  21
ENDBRANCH   7  14
BRANCH   1  28
ATOM     27  C   UNL     1       5.715  18.249  21.074  0.00  0.00    +0.000 C 
ATOM     28  C   UNL     1       5.013  17.359  20.046  0.00  0.00    +0.000 C 
ENDBRANCH   1  28
TORSDOF 3
ENDMDL
MODEL 9
REMARK VINA RESULT:      -6.6      3.460      9.341
REMARK  Name = 
REMARK  5 active torsions:
REMARK  status: ('A' for Active; 'I' for Inactive)
REMARK    1  A    between atoms: C_1  and  C_2
REMARK    2  A    between atoms: C_2  and  N_3
REMARK    3  A    between atoms: C_9  and  N_10
REMARK    4  A    between atoms: C_14  and  C_15
REMARK    5  A    between atoms: C_23  and  C_24
REMARK                            x       y       z     vdW  Elec       q    Type
REMARK                         _______ _______ _______ _____ _____    ______ ____
ROOT
ATOM      1  N   UNL     1       4.055  15.948  21.360  0.00  0.00    +0.000 NA
ATOM      2  C   UNL     1       2.780  15.493  21.972  0.00  0.00    +0.000 C 
ATOM      3  C   UNL     1       1.615  15.473  20.960  0.00  0.00    +0.000 C 
ATOM      4  N   UNL     1       2.023  14.677  19.816  0.00  0.00    +0.000 N 
ATOM      5  C   UNL     1       1.275  13.521  19.418  0.00  0.00    +0.000 A 
ATOM      6  C   UNL     1       1.889  12.424  18.787  0.00  0.00    +0.000 A 
ATOM      7  C   UNL     1       1.120  11.295  18.501  0.00  0.00    +0.000 A 
ATOM      8  N   UNL     1      -0.209  11.306  18.778  0.00  0.00    +0.000 NA
ATOM      9  C   UNL     1      -0.806  12.379  19.348  0.00  0.00    +0.000 A 
ATOM     10  C   UNL     1      -2.281  12.369  19.579  0.00  0.00    +0.000 C 
ATOM     11  N   UNL     1      -0.062  13.461  19.690  0.00  0.00    +0.000 NA
ATOM     12  C   UNL     1       3.251  15.092  19.156  0.00  0.00    +0.000 C 
ATOM     13  C   UNL     1       4.391  15.109  20.182  0.00  0.00    +0.000 C 
ENDROOT
BRANCH   7  14
ATOM     14  N   UNL     1       1.734  10.125  17.973  0.00  0.00    +0.000 N 
ATOM     15  C   UNL     1       1.787   8.914  18.712  0.00  0.00    +0.000 A 
ATOM     16  N   UNL     1       1.295   8.779  19.962  0.00  0.00    +0.000 NA
ATOM     17  C   UNL     1       1.552   7.558  20.486  0.00  0.00    +0.000 A 
ATOM     18  C   UNL     1       2.267   6.701  19.647  0.00  0.00    +0.000 A 
ATOM     19  S   UNL     1       2.578   7.525  18.202  0.00  0.00    +0.000 S 
ATOM     20  H   UNL     1       2.272  10.184  17.094  0.00  0.00    +0.000 HD
BRANCH  18  21
ATOM     21  C   UNL     1       2.692   5.316  19.960  0.00  0.00    +0.000 A 
ATOM     22  C   UNL     1       2.122   4.604  21.033  0.00  0.00    +0.000 A 
ATOM     23  C   UNL     1       2.526   3.296  21.312  0.00  0.00    +0.000 A 
ATOM     24  C   UNL     1       3.502   2.685  20.528  0.00  0.00    +0.000 A 
ATOM     25  C   UNL     1       4.080   3.377  19.464  0.00  0.00    +0.000 A 
ATOM     26  C   UNL     1       3.680   4.687  19.179  0.00  0.00    +0.000 A 
ENDBRANCH  18  21
ENDBRANCH   7  14
BRANCH   1  28
ATOM     27  C   UNL     1       5.444  18.035  21.445  0.00  0.00    +0.000 C 
ATOM     28  C   UNL     1       4.117  17.393  21.037  0.00  0.00    +0.000 C 
ENDBRANCH   1  28
TORSDOF 3
ENDMDL
