MODEL 1
REMARK VINA RESULT:      -6.5      0.000      0.000
REMARK  Name = 
REMARK  12 active torsions:
REMARK  status: ('A' for Active; 'I' for Inactive)
REMARK    1  A    between atoms: C_1  and  C_2
REMARK    2  A    between atoms: C_2  and  C_14
REMARK    3  A    between atoms: N_3  and  O_4
REMARK    4  A    between atoms: O_4  and  C_5
REMARK    5  A    between atoms: C_5  and  C_6
REMARK    6  A    between atoms: C_6  and  O_7
REMARK    7  A    between atoms: C_6  and  C_8
REMARK    8  A    between atoms: C_8  and  N_9
REMARK    9  A    between atoms: N_9  and  C_10
REMARK   10  A    between atoms: C_10  and  C_11
REMARK   11  A    between atoms: C_10  and  C_12
REMARK   12  A    between atoms: C_10  and  C_13
REMARK                            x       y       z     vdW  Elec       q    Type
REMARK                         _______ _______ _______ _____ _____    ______ ____
ROOT
ATOM      1  O   UNL     1       5.105   3.522  16.372  0.00  0.00    +0.000 OA
ENDROOT
BRANCH   1   4
ATOM      2  C   UNL     1       3.550   2.730  18.441  0.00  0.00    +0.000 C 
ATOM      3  C   UNL     1       3.565   4.134  17.873  0.00  0.00    +0.000 C 
ATOM      4  N   UNL     1       4.274   4.529  16.857  0.00  0.00    +0.000 NA
BRANCH   3   5
ATOM      5  C   UNL     1       2.791   5.189  18.587  0.00  0.00    +0.000 A 
ATOM      6  C   UNL     1       2.340   4.963  19.891  0.00  0.00    +0.000 A 
ATOM      7  C   UNL     1       1.862   6.030  20.654  0.00  0.00    +0.000 A 
ATOM      8  C   UNL     1       1.813   7.318  20.113  0.00  0.00    +0.000 A 
ATOM      9 CL   UNL     1       1.280   8.598  21.142  0.00  0.00    +0.000 Cl
ATOM     10  C   UNL     1       2.233   7.538  18.795  0.00  0.00    +0.000 A 
ATOM     11 CL   UNL     1       2.231   9.109  18.078  0.00  0.00    +0.000 Cl
ATOM     12  C   UNL     1       2.725   6.475  18.035  0.00  0.00    +0.000 A 
ENDBRANCH   3   5
ENDBRANCH   1   4
BRANCH   1  13
ATOM     13  C   UNL     1       6.467   3.975  16.366  0.00  0.00    +0.000 C 
BRANCH  13  14
ATOM     14  C   UNL     1       6.567   5.150  15.408  0.00  0.00    +0.000 C 
BRANCH  14  15
ATOM     15  O   UNL     1       7.547   6.092  15.890  0.00  0.00    +0.000 OA
ATOM     16  H   UNL     1       8.046   6.412  15.110  0.00  0.00    +0.000 HD
ENDBRANCH  14  15
BRANCH  14  17
ATOM     17  C   UNL     1       7.003   4.673  14.022  0.00  0.00    +0.000 C 
BRANCH  17  18
ATOM     18  N   UNL     1       6.318   3.438  13.625  0.00  0.00    +0.000 NA
ATOM     19  H   UNL     1       5.418   3.390  14.105  0.00  0.00    +0.000 HD
BRANCH  18  20
ATOM     20  C   UNL     1       6.128   3.285  12.175  0.00  0.00    +0.000 C 
ATOM     21  C   UNL     1       4.658   3.504  11.777  0.00  0.00    +0.000 C 
ATOM     22  C   UNL     1       6.975   4.372  11.490  0.00  0.00    +0.000 C 
ATOM     23  C   UNL     1       6.618   1.908  11.704  0.00  0.00    +0.000 C 
ENDBRANCH  18  20
ENDBRANCH  17  18
ENDBRANCH  14  17
ENDBRANCH  13  14
ENDBRANCH   1  13
TORSDOF 8
ENDMDL
MODEL 2
REMARK VINA RESULT:      -6.4      3.733      5.880
REMARK  Name = 
REMARK  12 active torsions:
REMARK  status: ('A' for Active; 'I' for Inactive)
REMARK    1  A    between atoms: C_1  and  C_2
REMARK    2  A    between atoms: C_2  and  C_14
REMARK    3  A    between atoms: N_3  and  O_4
REMARK    4  A    between atoms: O_4  and  C_5
REMARK    5  A    between atoms: C_5  and  C_6
REMARK    6  A    between atoms: C_6  and  O_7
REMARK    7  A    between atoms: C_6  and  C_8
REMARK    8  A    between atoms: C_8  and  N_9
REMARK    9  A    between atoms: N_9  and  C_10
REMARK   10  A    between atoms: C_10  and  C_11
REMARK   11  A    between atoms: C_10  and  C_12
REMARK   12  A    between atoms: C_10  and  C_13
REMARK                            x       y       z     vdW  Elec       q    Type
REMARK                         _______ _______ _______ _____ _____    ______ ____
ROOT
ATOM      1  O   UNL     1       3.523   4.661  17.075  0.00  0.00    +0.000 OA
ENDROOT
BRANCH   1   4
ATOM      2  C   UNL     1       4.758   7.044  17.422  0.00  0.00    +0.000 C 
ATOM      3  C   UNL     1       3.360   6.728  17.912  0.00  0.00    +0.000 C 
ATOM      4  N   UNL     1       2.760   5.580  17.792  0.00  0.00    +0.000 NA
BRANCH   3   5
ATOM      5  C   UNL     1       2.549   7.839  18.488  0.00  0.00    +0.000 A 
ATOM      6  C   UNL     1       2.010   8.819  17.649  0.00  0.00    +0.000 A 
ATOM      7  C   UNL     1       1.038   9.693  18.139  0.00  0.00    +0.000 A 
ATOM      8  C   UNL     1       0.617   9.604  19.469  0.00  0.00    +0.000 A 
ATOM      9 CL   UNL     1      -0.642  10.670  19.982  0.00  0.00    +0.000 Cl
ATOM     10  C   UNL     1       1.182   8.646  20.319  0.00  0.00    +0.000 A 
ATOM     11 CL   UNL     1       0.683   8.461  21.962  0.00  0.00    +0.000 Cl
ATOM     12  C   UNL     1       2.144   7.761  19.827  0.00  0.00    +0.000 A 
ENDBRANCH   3   5
ENDBRANCH   1   4
BRANCH   1  13
ATOM     13  C   UNL     1       2.871   3.382  17.074  0.00  0.00    +0.000 C 
BRANCH  13  14
ATOM     14  C   UNL     1       3.709   2.427  17.907  0.00  0.00    +0.000 C 
BRANCH  14  15
ATOM     15  O   UNL     1       4.818   3.135  18.497  0.00  0.00    +0.000 OA
ATOM     16  H   UNL     1       4.772   4.060  18.176  0.00  0.00    +0.000 HD
ENDBRANCH  14  15
BRANCH  14  17
ATOM     17  C   UNL     1       2.870   1.826  19.036  0.00  0.00    +0.000 C 
BRANCH  17  18
ATOM     18  N   UNL     1       3.062   2.539  20.303  0.00  0.00    +0.000 NA
ATOM     19  H   UNL     1       3.776   3.257  20.174  0.00  0.00    +0.000 HD
BRANCH  18  20
ATOM     20  C   UNL     1       1.838   3.137  20.858  0.00  0.00    +0.000 C 
ATOM     21  C   UNL     1       1.404   2.426  22.151  0.00  0.00    +0.000 C 
ATOM     22  C   UNL     1       2.166   4.600  21.204  0.00  0.00    +0.000 C 
ATOM     23  C   UNL     1       0.705   3.118  19.822  0.00  0.00    +0.000 C 
ENDBRANCH  18  20
ENDBRANCH  17  18
ENDBRANCH  14  17
ENDBRANCH  13  14
ENDBRANCH   1  13
TORSDOF 8
ENDMDL
MODEL 3
REMARK VINA RESULT:      -6.4      1.203      1.967
REMARK  Name = 
REMARK  12 active torsions:
REMARK  status: ('A' for Active; 'I' for Inactive)
REMARK    1  A    between atoms: C_1  and  C_2
REMARK    2  A    between atoms: C_2  and  C_14
REMARK    3  A    between atoms: N_3  and  O_4
REMARK    4  A    between atoms: O_4  and  C_5
REMARK    5  A    between atoms: C_5  and  C_6
REMARK    6  A    between atoms: C_6  and  O_7
REMARK    7  A    between atoms: C_6  and  C_8
REMARK    8  A    between atoms: C_8  and  N_9
REMARK    9  A    between atoms: N_9  and  C_10
REMARK   10  A    between atoms: C_10  and  C_11
REMARK   11  A    between atoms: C_10  and  C_12
REMARK   12  A    between atoms: C_10  and  C_13
REMARK                            x       y       z     vdW  Elec       q    Type
REMARK                         _______ _______ _______ _____ _____    ______ ____
ROOT
ATOM      1  O   UNL     1       5.431   4.360  17.411  0.00  0.00    +0.000 OA
ENDROOT
BRANCH   1   4
ATOM      2  C   UNL     1       2.756   4.395  17.822  0.00  0.00    +0.000 C 
ATOM      3  C   UNL     1       3.645   5.620  17.883  0.00  0.00    +0.000 C 
ATOM      4  N   UNL     1       4.925   5.635  17.652  0.00  0.00    +0.000 NA
BRANCH   3   5
ATOM      5  C   UNL     1       3.043   6.903  18.346  0.00  0.00    +0.000 A 
ATOM      6  C   UNL     1       2.829   7.943  17.437  0.00  0.00    +0.000 A 
ATOM      7  C   UNL     1       2.026   9.026  17.800  0.00  0.00    +0.000 A 
ATOM      8  C   UNL     1       1.454   9.084  19.074  0.00  0.00    +0.000 A 
ATOM      9 CL   UNL     1       0.413  10.418  19.423  0.00  0.00    +0.000 Cl
ATOM     10  C   UNL     1       1.696   8.059  19.996  0.00  0.00    +0.000 A 
ATOM     11 CL   UNL     1       0.993   8.053  21.573  0.00  0.00    +0.000 Cl
ATOM     12  C   UNL     1       2.487   6.967  19.631  0.00  0.00    +0.000 A 
ENDBRANCH   3   5
ENDBRANCH   1   4
BRANCH   1  13
ATOM     13  C   UNL     1       6.667   4.454  16.687  0.00  0.00    +0.000 C 
BRANCH  13  14
ATOM     14  C   UNL     1       6.397   5.202  15.392  0.00  0.00    +0.000 C 
BRANCH  14  15
ATOM     15  O   UNL     1       7.644   5.513  14.738  0.00  0.00    +0.000 OA
ATOM     16  H   UNL     1       7.947   4.695  14.294  0.00  0.00    +0.000 HD
ENDBRANCH  14  15
BRANCH  14  17
ATOM     17  C   UNL     1       5.560   4.342  14.444  0.00  0.00    +0.000 C 
BRANCH  17  18
ATOM     18  N   UNL     1       6.377   3.356  13.731  0.00  0.00    +0.000 NA
ATOM     19  H   UNL     1       6.213   2.433  14.136  0.00  0.00    +0.000 HD
BRANCH  18  20
ATOM     20  C   UNL     1       6.155   3.317  12.277  0.00  0.00    +0.000 C 
ATOM     21  C   UNL     1       4.719   3.735  11.919  0.00  0.00    +0.000 C 
ATOM     22  C   UNL     1       7.121   4.334  11.644  0.00  0.00    +0.000 C 
ATOM     23  C   UNL     1       6.470   1.923  11.716  0.00  0.00    +0.000 C 
ENDBRANCH  18  20
ENDBRANCH  17  18
ENDBRANCH  14  17
ENDBRANCH  13  14
ENDBRANCH   1  13
TORSDOF 8
ENDMDL
MODEL 4
REMARK VINA RESULT:      -6.4      2.648      4.057
REMARK  Name = 
REMARK  12 active torsions:
REMARK  status: ('A' for Active; 'I' for Inactive)
REMARK    1  A    between atoms: C_1  and  C_2
REMARK    2  A    between atoms: C_2  and  C_14
REMARK    3  A    between atoms: N_3  and  O_4
REMARK    4  A    between atoms: O_4  and  C_5
REMARK    5  A    between atoms: C_5  and  C_6
REMARK    6  A    between atoms: C_6  and  O_7
REMARK    7  A    between atoms: C_6  and  C_8
REMARK    8  A    between atoms: C_8  and  N_9
REMARK    9  A    between atoms: N_9  and  C_10
REMARK   10  A    between atoms: C_10  and  C_11
REMARK   11  A    between atoms: C_10  and  C_12
REMARK   12  A    between atoms: C_10  and  C_13
REMARK                            x       y       z     vdW  Elec       q    Type
REMARK                         _______ _______ _______ _____ _____    ______ ____
ROOT
ATOM      1  O   UNL     1       3.597   3.868  20.021  0.00  0.00    +0.000 OA
ENDROOT
BRANCH   1   4
ATOM      2  C   UNL     1       1.151   4.889  20.570  0.00  0.00    +0.000 C 
ATOM      3  C   UNL     1       2.277   5.671  19.925  0.00  0.00    +0.000 C 
ATOM      4  N   UNL     1       3.447   5.193  19.617  0.00  0.00    +0.000 NA
BRANCH   3   5
ATOM      5  C   UNL     1       2.085   7.134  19.715  0.00  0.00    +0.000 A 
ATOM      6  C   UNL     1       2.340   7.700  18.462  0.00  0.00    +0.000 A 
ATOM      7  C   UNL     1       1.907   8.998  18.187  0.00  0.00    +0.000 A 
ATOM      8  C   UNL     1       1.239   9.740  19.165  0.00  0.00    +0.000 A 
ATOM      9 CL   UNL     1       0.668  11.310  18.725  0.00  0.00    +0.000 Cl
ATOM     10  C   UNL     1       1.014   9.186  20.431  0.00  0.00    +0.000 A 
ATOM     11 CL   UNL     1       0.166  10.036  21.672  0.00  0.00    +0.000 Cl
ATOM     12  C   UNL     1       1.434   7.883  20.704  0.00  0.00    +0.000 A 
ENDBRANCH   3   5
ENDBRANCH   1   4
BRANCH   1  13
ATOM     13  C   UNL     1       4.642   3.242  19.262  0.00  0.00    +0.000 C 
BRANCH  13  14
ATOM     14  C   UNL     1       4.051   2.786  17.938  0.00  0.00    +0.000 C 
BRANCH  14  15
ATOM     15  O   UNL     1       2.620   2.962  17.954  0.00  0.00    +0.000 OA
ATOM     16  H   UNL     1       2.290   2.720  17.064  0.00  0.00    +0.000 HD
ENDBRANCH  14  15
BRANCH  14  17
ATOM     17  C   UNL     1       4.623   3.613  16.785  0.00  0.00    +0.000 C 
BRANCH  17  18
ATOM     18  N   UNL     1       5.979   4.091  17.072  0.00  0.00    +0.000 NA
ATOM     19  H   UNL     1       6.643   3.341  16.875  0.00  0.00    +0.000 HD
BRANCH  18  20
ATOM     20  C   UNL     1       6.362   5.310  16.344  0.00  0.00    +0.000 C 
ATOM     21  C   UNL     1       6.992   4.974  14.981  0.00  0.00    +0.000 C 
ATOM     22  C   UNL     1       5.072   6.110  16.089  0.00  0.00    +0.000 C 
ATOM     23  C   UNL     1       7.317   6.169  17.186  0.00  0.00    +0.000 C 
ENDBRANCH  18  20
ENDBRANCH  17  18
ENDBRANCH  14  17
ENDBRANCH  13  14
ENDBRANCH   1  13
TORSDOF 8
ENDMDL
MODEL 5
REMARK VINA RESULT:      -6.3      2.507      3.858
REMARK  Name = 
REMARK  12 active torsions:
REMARK  status: ('A' for Active; 'I' for Inactive)
REMARK    1  A    between atoms: C_1  and  C_2
REMARK    2  A    between atoms: C_2  and  C_14
REMARK    3  A    between atoms: N_3  and  O_4
REMARK    4  A    between atoms: O_4  and  C_5
REMARK    5  A    between atoms: C_5  and  C_6
REMARK    6  A    between atoms: C_6  and  O_7
REMARK    7  A    between atoms: C_6  and  C_8
REMARK    8  A    between atoms: C_8  and  N_9
REMARK    9  A    between atoms: N_9  and  C_10
REMARK   10  A    between atoms: C_10  and  C_11
REMARK   11  A    between atoms: C_10  and  C_12
REMARK   12  A    between atoms: C_10  and  C_13
REMARK                            x       y       z     vdW  Elec       q    Type
REMARK                         _______ _______ _______ _____ _____    ______ ____
ROOT
ATOM      1  O   UNL     1       2.005   2.737  19.026  0.00  0.00    +0.000 OA
ENDROOT
BRANCH   1   4
ATOM      2  C   UNL     1       2.169   4.281  21.243  0.00  0.00    +0.000 C 
ATOM      3  C   UNL     1       1.984   4.820  19.838  0.00  0.00    +0.000 C 
ATOM      4  N   UNL     1       1.864   4.098  18.763  0.00  0.00    +0.000 NA
BRANCH   3   5
ATOM      5  C   UNL     1       2.047   6.296  19.638  0.00  0.00    +0.000 A 
ATOM      6  C   UNL     1       2.355   6.818  18.378  0.00  0.00    +0.000 A 
ATOM      7  C   UNL     1       2.149   8.175  18.122  0.00  0.00    +0.000 A 
ATOM      8  C   UNL     1       1.657   9.015  19.124  0.00  0.00    +0.000 A 
ATOM      9 CL   UNL     1       1.358  10.665  18.709  0.00  0.00    +0.000 Cl
ATOM     10  C   UNL     1       1.382   8.499  20.396  0.00  0.00    +0.000 A 
ATOM     11 CL   UNL     1       0.741   9.475  21.669  0.00  0.00    +0.000 Cl
ATOM     12  C   UNL     1       1.573   7.139  20.652  0.00  0.00    +0.000 A 
ENDBRANCH   3   5
ENDBRANCH   1   4
BRANCH   1  13
ATOM     13  C   UNL     1       3.160   2.225  18.344  0.00  0.00    +0.000 C 
BRANCH  13  14
ATOM     14  C   UNL     1       4.250   3.283  18.410  0.00  0.00    +0.000 C 
BRANCH  14  15
ATOM     15  O   UNL     1       5.321   2.829  19.262  0.00  0.00    +0.000 OA
ATOM     16  H   UNL     1       4.946   2.145  19.856  0.00  0.00    +0.000 HD
ENDBRANCH  14  15
BRANCH  14  17
ATOM     17  C   UNL     1       4.824   3.544  17.016  0.00  0.00    +0.000 C 
BRANCH  17  18
ATOM     18  N   UNL     1       6.196   4.057  17.075  0.00  0.00    +0.000 NA
ATOM     19  H   UNL     1       6.834   3.336  16.737  0.00  0.00    +0.000 HD
BRANCH  18  20
ATOM     20  C   UNL     1       6.411   5.310  16.334  0.00  0.00    +0.000 C 
ATOM     21  C   UNL     1       7.292   6.287  17.131  0.00  0.00    +0.000 C 
ATOM     22  C   UNL     1       7.154   4.947  15.036  0.00  0.00    +0.000 C 
ATOM     23  C   UNL     1       5.070   5.963  15.968  0.00  0.00    +0.000 C 
ENDBRANCH  18  20
ENDBRANCH  17  18
ENDBRANCH  14  17
ENDBRANCH  13  14
ENDBRANCH   1  13
TORSDOF 8
ENDMDL
MODEL 6
REMARK VINA RESULT:      -6.3      0.530      1.056
REMARK  Name = 
REMARK  12 active torsions:
REMARK  status: ('A' for Active; 'I' for Inactive)
REMARK    1  A    between atoms: C_1  and  C_2
REMARK    2  A    between atoms: C_2  and  C_14
REMARK    3  A    between atoms: N_3  and  O_4
REMARK    4  A    between atoms: O_4  and  C_5
REMARK    5  A    between atoms: C_5  and  C_6
REMARK    6  A    between atoms: C_6  and  O_7
REMARK    7  A    between atoms: C_6  and  C_8
REMARK    8  A    between atoms: C_8  and  N_9
REMARK    9  A    between atoms: N_9  and  C_10
REMARK   10  A    between atoms: C_10  and  C_11
REMARK   11  A    between atoms: C_10  and  C_12
REMARK   12  A    between atoms: C_10  and  C_13
REMARK                            x       y       z     vdW  Elec       q    Type
REMARK                         _______ _______ _______ _____ _____    ______ ____
ROOT
ATOM      1  O   UNL     1       5.172   3.626  16.743  0.00  0.00    +0.000 OA
ENDROOT
BRANCH   1   4
ATOM      2  C   UNL     1       3.564   2.989  18.825  0.00  0.00    +0.000 C 
ATOM      3  C   UNL     1       3.583   4.342  18.143  0.00  0.00    +0.000 C 
ATOM      4  N   UNL     1       4.318   4.660  17.118  0.00  0.00    +0.000 NA
BRANCH   3   5
ATOM      5  C   UNL     1       2.779   5.443  18.746  0.00  0.00    +0.000 A 
ATOM      6  C   UNL     1       2.279   5.314  20.045  0.00  0.00    +0.000 A 
ATOM      7  C   UNL     1       1.769   6.433  20.706  0.00  0.00    +0.000 A 
ATOM      8  C   UNL     1       1.736   7.675  20.067  0.00  0.00    +0.000 A 
ATOM      9 CL   UNL     1       1.160   9.027  20.975  0.00  0.00    +0.000 Cl
ATOM     10  C   UNL     1       2.205   7.798  18.753  0.00  0.00    +0.000 A 
ATOM     11 CL   UNL     1       2.224   9.309  17.918  0.00  0.00    +0.000 Cl
ATOM     12  C   UNL     1       2.729   6.683  18.095  0.00  0.00    +0.000 A 
ENDBRANCH   3   5
ENDBRANCH   1   4
BRANCH   1  13
ATOM     13  C   UNL     1       6.474   4.153  16.444  0.00  0.00    +0.000 C 
BRANCH  13  14
ATOM     14  C   UNL     1       6.338   5.096  15.260  0.00  0.00    +0.000 C 
BRANCH  14  15
ATOM     15  O   UNL     1       7.643   5.414  14.736  0.00  0.00    +0.000 OA
ATOM     16  H   UNL     1       7.667   6.383  14.594  0.00  0.00    +0.000 HD
ENDBRANCH  14  15
BRANCH  14  17
ATOM     17  C   UNL     1       5.522   4.438  14.145  0.00  0.00    +0.000 C 
BRANCH  17  18
ATOM     18  N   UNL     1       6.204   3.271  13.580  0.00  0.00    +0.000 NA
ATOM     19  H   UNL     1       5.823   2.425  14.007  0.00  0.00    +0.000 HD
BRANCH  18  20
ATOM     20  C   UNL     1       6.134   3.173  12.115  0.00  0.00    +0.000 C 
ATOM     21  C   UNL     1       6.427   1.742  11.633  0.00  0.00    +0.000 C 
ATOM     22  C   UNL     1       4.693   3.528  11.706  0.00  0.00    +0.000 C 
ATOM     23  C   UNL     1       7.093   4.174  11.455  0.00  0.00    +0.000 C 
ENDBRANCH  18  20
ENDBRANCH  17  18
ENDBRANCH  14  17
ENDBRANCH  13  14
ENDBRANCH   1  13
TORSDOF 8
ENDMDL
MODEL 7
REMARK VINA RESULT:      -6.3      2.043      3.506
REMARK  Name = 
REMARK  12 active torsions:
REMARK  status: ('A' for Active; 'I' for Inactive)
REMARK    1  A    between atoms: C_1  and  C_2
REMARK    2  A    between atoms: C_2  and  C_14
REMARK    3  A    between atoms: N_3  and  O_4
REMARK    4  A    between atoms: O_4  and  C_5
REMARK    5  A    between atoms: C_5  and  C_6
REMARK    6  A    between atoms: C_6  and  O_7
REMARK    7  A    between atoms: C_6  and  C_8
REMARK    8  A    between atoms: C_8  and  N_9
REMARK    9  A    between atoms: N_9  and  C_10
REMARK   10  A    between atoms: C_10  and  C_11
REMARK   11  A    between atoms: C_10  and  C_12
REMARK   12  A    between atoms: C_10  and  C_13
REMARK                            x       y       z     vdW  Elec       q    Type
REMARK                         _______ _______ _______ _____ _____    ______ ____
ROOT
ATOM      1  O   UNL     1       4.747   3.972  16.718  0.00  0.00    +0.000 OA
ENDROOT
BRANCH   1   4
ATOM      2  C   UNL     1       3.997   3.724  19.307  0.00  0.00    +0.000 C 
ATOM      3  C   UNL     1       3.486   4.798  18.368  0.00  0.00    +0.000 C 
ATOM      4  N   UNL     1       3.801   4.915  17.112  0.00  0.00    +0.000 NA
BRANCH   3   5
ATOM      5  C   UNL     1       2.632   5.880  18.937  0.00  0.00    +0.000 A 
ATOM      6  C   UNL     1       2.150   5.774  20.246  0.00  0.00    +0.000 A 
ATOM      7  C   UNL     1       1.590   6.891  20.869  0.00  0.00    +0.000 A 
ATOM      8  C   UNL     1       1.491   8.105  20.185  0.00  0.00    +0.000 A 
ATOM      9 CL   UNL     1       0.855   9.460  21.048  0.00  0.00    +0.000 Cl
ATOM     10  C   UNL     1       1.942   8.202  18.863  0.00  0.00    +0.000 A 
ATOM     11 CL   UNL     1       1.881   9.680  17.974  0.00  0.00    +0.000 Cl
ATOM     12  C   UNL     1       2.517   7.091  18.242  0.00  0.00    +0.000 A 
ENDBRANCH   3   5
ENDBRANCH   1   4
BRANCH   1  13
ATOM     13  C   UNL     1       5.090   4.171  15.338  0.00  0.00    +0.000 C 
BRANCH  13  14
ATOM     14  C   UNL     1       6.596   4.025  15.202  0.00  0.00    +0.000 C 
BRANCH  14  15
ATOM     15  O   UNL     1       7.055   4.749  14.043  0.00  0.00    +0.000 OA
ATOM     16  H   UNL     1       6.402   4.593  13.329  0.00  0.00    +0.000 HD
ENDBRANCH  14  15
BRANCH  14  17
ATOM     17  C   UNL     1       7.301   4.594  16.434  0.00  0.00    +0.000 C 
BRANCH  17  18
ATOM     18  N   UNL     1       7.532   6.037  16.316  0.00  0.00    +0.000 NA
ATOM     19  H   UNL     1       7.058   6.382  15.480  0.00  0.00    +0.000 HD
BRANCH  18  20
ATOM     20  C   UNL     1       7.117   6.819  17.491  0.00  0.00    +0.000 C 
ATOM     21  C   UNL     1       8.085   7.983  17.760  0.00  0.00    +0.000 C 
ATOM     22  C   UNL     1       5.733   7.413  17.173  0.00  0.00    +0.000 C 
ATOM     23  C   UNL     1       6.994   5.918  18.729  0.00  0.00    +0.000 C 
ENDBRANCH  18  20
ENDBRANCH  17  18
ENDBRANCH  14  17
ENDBRANCH  13  14
ENDBRANCH   1  13
TORSDOF 8
ENDMDL
MODEL 8
REMARK VINA RESULT:      -6.3      3.567      5.774
REMARK  Name = 
REMARK  12 active torsions:
REMARK  status: ('A' for Active; 'I' for Inactive)
REMARK    1  A    between atoms: C_1  and  C_2
REMARK    2  A    between atoms: C_2  and  C_14
REMARK    3  A    between atoms: N_3  and  O_4
REMARK    4  A    between atoms: O_4  and  C_5
REMARK    5  A    between atoms: C_5  and  C_6
REMARK    6  A    between atoms: C_6  and  O_7
REMARK    7  A    between atoms: C_6  and  C_8
REMARK    8  A    between atoms: C_8  and  N_9
REMARK    9  A    between atoms: N_9  and  C_10
REMARK   10  A    between atoms: C_10  and  C_11
REMARK   11  A    between atoms: C_10  and  C_12
REMARK   12  A    between atoms: C_10  and  C_13
REMARK                            x       y       z     vdW  Elec       q    Type
REMARK                         _______ _______ _______ _____ _____    ______ ____
ROOT
ATOM      1  O   UNL     1       4.048   4.393  17.106  0.00  0.00    +0.000 OA
ENDROOT
BRANCH   1   4
ATOM      2  C   UNL     1       5.071   6.899  17.135  0.00  0.00    +0.000 C 
ATOM      3  C   UNL     1       3.761   6.504  17.787  0.00  0.00    +0.000 C 
ATOM      4  N   UNL     1       3.268   5.301  17.820  0.00  0.00    +0.000 NA
BRANCH   3   5
ATOM      5  C   UNL     1       2.903   7.585  18.350  0.00  0.00    +0.000 A 
ATOM      6  C   UNL     1       2.453   8.621  17.527  0.00  0.00    +0.000 A 
ATOM      7  C   UNL     1       1.441   9.472  17.975  0.00  0.00    +0.000 A 
ATOM      8  C   UNL     1       0.891   9.305  19.249  0.00  0.00    +0.000 A 
ATOM      9 CL   UNL     1      -0.408  10.349  19.703  0.00  0.00    +0.000 Cl
ATOM     10  C   UNL     1       1.367   8.288  20.087  0.00  0.00    +0.000 A 
ATOM     11 CL   UNL     1       0.709   8.006  21.658  0.00  0.00    +0.000 Cl
ATOM     12  C   UNL     1       2.369   7.427  19.636  0.00  0.00    +0.000 A 
ENDBRANCH   3   5
ENDBRANCH   1   4
BRANCH   1  13
ATOM     13  C   UNL     1       3.711   3.052  17.491  0.00  0.00    +0.000 C 
BRANCH  13  14
ATOM     14  C   UNL     1       4.657   2.631  18.603  0.00  0.00    +0.000 C 
BRANCH  14  15
ATOM     15  O   UNL     1       5.627   3.671  18.840  0.00  0.00    +0.000 OA
ATOM     16  H   UNL     1       5.895   4.020  17.964  0.00  0.00    +0.000 HD
ENDBRANCH  14  15
BRANCH  14  17
ATOM     17  C   UNL     1       3.884   2.392  19.900  0.00  0.00    +0.000 C 
BRANCH  17  18
ATOM     18  N   UNL     1       2.442   2.588  19.724  0.00  0.00    +0.000 NA
ATOM     19  H   UNL     1       1.990   1.675  19.650  0.00  0.00    +0.000 HD
BRANCH  18  20
ATOM     20  C   UNL     1       1.801   3.386  20.780  0.00  0.00    +0.000 C 
ATOM     21  C   UNL     1       2.764   4.445  21.344  0.00  0.00    +0.000 C 
ATOM     22  C   UNL     1       0.611   4.118  20.135  0.00  0.00    +0.000 C 
ATOM     23  C   UNL     1       1.273   2.480  21.902  0.00  0.00    +0.000 C 
ENDBRANCH  18  20
ENDBRANCH  17  18
ENDBRANCH  14  17
ENDBRANCH  13  14
ENDBRANCH   1  13
TORSDOF 8
ENDMDL
MODEL 9
REMARK VINA RESULT:      -6.2      2.594      4.333
REMARK  Name = 
REMARK  12 active torsions:
REMARK  status: ('A' for Active; 'I' for Inactive)
REMARK    1  A    between atoms: C_1  and  C_2
REMARK    2  A    between atoms: C_2  and  C_14
REMARK    3  A    between atoms: N_3  and  O_4
REMARK    4  A    between atoms: O_4  and  C_5
REMARK    5  A    between atoms: C_5  and  C_6
REMARK    6  A    between atoms: C_6  and  O_7
REMARK    7  A    between atoms: C_6  and  C_8
REMARK    8  A    between atoms: C_8  and  N_9
REMARK    9  A    between atoms: N_9  and  C_10
REMARK   10  A    between atoms: C_10  and  C_11
REMARK   11  A    between atoms: C_10  and  C_12
REMARK   12  A    between atoms: C_10  and  C_13
REMARK                            x       y       z     vdW  Elec       q    Type
REMARK                         _______ _______ _______ _____ _____    ______ ____
ROOT
ATOM      1  O   UNL     1       4.236   4.944  16.888  0.00  0.00    +0.000 OA
ENDROOT
BRANCH   1   4
ATOM      2  C   UNL     1       2.234   4.922  18.709  0.00  0.00    +0.000 C 
ATOM      3  C   UNL     1       2.809   6.179  18.087  0.00  0.00    +0.000 C 
ATOM      4  N   UNL     1       3.743   6.213  17.183  0.00  0.00    +0.000 NA
BRANCH   3   5
ATOM      5  C   UNL     1       2.354   7.496  18.617  0.00  0.00    +0.000 A 
ATOM      6  C   UNL     1       2.094   8.551  17.737  0.00  0.00    +0.000 A 
ATOM      7  C   UNL     1       1.416   9.683  18.193  0.00  0.00    +0.000 A 
ATOM      8  C   UNL     1       1.014   9.773  19.529  0.00  0.00    +0.000 A 
ATOM      9 CL   UNL     1       0.114  11.170  20.001  0.00  0.00    +0.000 Cl
ATOM     10  C   UNL     1       1.304   8.731  20.418  0.00  0.00    +0.000 A 
ATOM     11 CL   UNL     1       0.807   8.764  22.071  0.00  0.00    +0.000 Cl
ATOM     12  C   UNL     1       1.970   7.591  19.961  0.00  0.00    +0.000 A 
ENDBRANCH   3   5
ENDBRANCH   1   4
BRANCH   1  13
ATOM     13  C   UNL     1       4.980   4.983  15.660  0.00  0.00    +0.000 C 
BRANCH  13  14
ATOM     14  C   UNL     1       6.087   3.946  15.748  0.00  0.00    +0.000 C 
BRANCH  14  15
ATOM     15  O   UNL     1       6.429   3.483  14.427  0.00  0.00    +0.000 OA
ATOM     16  H   UNL     1       5.949   2.640  14.284  0.00  0.00    +0.000 HD
ENDBRANCH  14  15
BRANCH  14  17
ATOM     17  C   UNL     1       7.339   4.555  16.383  0.00  0.00    +0.000 C 
BRANCH  17  18
ATOM     18  N   UNL     1       7.421   4.270  17.818  0.00  0.00    +0.000 NA
ATOM     19  H   UNL     1       8.293   3.774  18.008  0.00  0.00    +0.000 HD
BRANCH  18  20
ATOM     20  C   UNL     1       7.315   5.455  18.682  0.00  0.00    +0.000 C 
ATOM     21  C   UNL     1       7.311   6.752  17.856  0.00  0.00    +0.000 C 
ATOM     22  C   UNL     1       5.969   5.356  19.422  0.00  0.00    +0.000 C 
ATOM     23  C   UNL     1       8.447   5.476  19.720  0.00  0.00    +0.000 C 
ENDBRANCH  18  20
ENDBRANCH  17  18
ENDBRANCH  14  17
ENDBRANCH  13  14
ENDBRANCH   1  13
TORSDOF 8
ENDMDL
