MODEL 1
REMARK VINA RESULT:      -8.3      0.000      0.000
REMARK  Name = 
REMARK  7 active torsions:
REMARK  status: ('A' for Active; 'I' for Inactive)
REMARK    1  A    between atoms: C_1  and  N_2
REMARK    2  A    between atoms: C_7  and  C_8
REMARK    3  A    between atoms: C_10  and  O_11
REMARK    4  A    between atoms: O_11  and  C_12
REMARK    5  A    between atoms: C_12  and  C_13
REMARK    6  A    between atoms: C_19  and  N_20
REMARK    7  A    between atoms: C_21  and  O_22
REMARK                            x       y       z     vdW  Elec       q    Type
REMARK                         _______ _______ _______ _____ _____    ______ ____
ROOT
ATOM      1  C   UNL     1       2.769   4.919  19.415  0.00  0.00    +0.000 A 
ATOM      2  C   UNL     1       3.921   5.103  18.636  0.00  0.00    +0.000 A 
ATOM      3  C   UNL     1       4.469   4.057  17.886  0.00  0.00    +0.000 A 
ATOM      4  C   UNL     1       3.914   2.782  18.014  0.00  0.00    +0.000 A 
ATOM      5  C   UNL     1       2.758   2.589  18.775  0.00  0.00    +0.000 A 
ATOM      6  F   UNL     1       2.223   1.359  18.859  0.00  0.00    +0.000 F 
ATOM      7  C   UNL     1       2.166   3.655  19.456  0.00  0.00    +0.000 A 
ATOM      8 BR   UNL     1       0.572   3.352  20.444  0.00  0.00    +0.000 Br
ENDROOT
BRANCH   1  15
ATOM      9  C   UNL     1       0.930  10.776  20.111  0.00  0.00    +0.000 C 
ATOM     10  N   UNL     1       1.396   9.502  19.616  0.00  0.00    +0.000 N 
ATOM     11  C   UNL     1       1.791   9.347  18.318  0.00  0.00    +0.000 C 
ATOM     12  O   UNL     1       1.897  10.214  17.462  0.00  0.00    +0.000 OA
ATOM     13  S   UNL     1       2.167   7.671  18.003  0.00  0.00    +0.000 S 
ATOM     14  C   UNL     1       2.036   7.251  19.669  0.00  0.00    +0.000 C 
ATOM     15  C   UNL     1       2.342   6.071  20.222  0.00  0.00    +0.000 C 
ATOM     16  C   UNL     1       1.532   8.416  20.449  0.00  0.00    +0.000 C 
ATOM     17  O   UNL     1       1.279   8.377  21.641  0.00  0.00    +0.000 OA
ENDBRANCH   1  15
BRANCH   4  18
ATOM     18  O   UNL     1       4.488   1.701  17.403  0.00  0.00    +0.000 OA
ATOM     19  H   UNL     1       5.306   1.497  17.891  0.00  0.00    +0.000 HD
ENDBRANCH   4  18
BRANCH   3  20
ATOM     20  O   UNL     1       5.524   4.221  17.011  0.00  0.00    +0.000 OA
BRANCH  20  21
ATOM     21  C   UNL     1       6.786   4.378  17.690  0.00  0.00    +0.000 C 
BRANCH  21  22
ATOM     22  C   UNL     1       7.290   5.783  17.785  0.00  0.00    +0.000 A 
ATOM     23  C   UNL     1       7.058   6.748  16.828  0.00  0.00    +0.000 A 
ATOM     24  N   UNL     1       7.489   8.016  16.933  0.00  0.00    +0.000 NA
ATOM     25  C   UNL     1       8.161   8.295  18.057  0.00  0.00    +0.000 A 
ATOM     26 CL   UNL     1       8.711   9.900  18.239  0.00  0.00    +0.000 Cl
ATOM     27  N   UNL     1       8.458   7.453  19.051  0.00  0.00    +0.000 NA
ATOM     28  C   UNL     1       8.022   6.200  18.893  0.00  0.00    +0.000 A 
BRANCH  28  29
ATOM     29  N   UNL     1       8.314   5.331  19.945  0.00  0.00    +0.000 N 
ATOM     30  H   UNL     1       8.614   4.447  19.532  0.00  0.00    +0.000 HD
ATOM     31  H   UNL     1       7.525   5.180  20.564  0.00  0.00    +0.000 HD
ENDBRANCH  28  29
ENDBRANCH  21  22
ENDBRANCH  20  21
ENDBRANCH   3  20
TORSDOF 6
ENDMDL
MODEL 2
REMARK VINA RESULT:      -8.2      0.779      1.477
REMARK  Name = 
REMARK  7 active torsions:
REMARK  status: ('A' for Active; 'I' for Inactive)
REMARK    1  A    between atoms: C_1  and  N_2
REMARK    2  A    between atoms: C_7  and  C_8
REMARK    3  A    between atoms: C_10  and  O_11
REMARK    4  A    between atoms: O_11  and  C_12
REMARK    5  A    between atoms: C_12  and  C_13
REMARK    6  A    between atoms: C_19  and  N_20
REMARK    7  A    between atoms: C_21  and  O_22
REMARK                            x       y       z     vdW  Elec       q    Type
REMARK                         _______ _______ _______ _____ _____    ______ ____
ROOT
ATOM      1  C   UNL     1       2.635   4.754  19.479  0.00  0.00    +0.000 A 
ATOM      2  C   UNL     1       3.477   5.002  18.386  0.00  0.00    +0.000 A 
ATOM      3  C   UNL     1       3.984   3.959  17.604  0.00  0.00    +0.000 A 
ATOM      4  C   UNL     1       3.731   2.645  18.001  0.00  0.00    +0.000 A 
ATOM      5  C   UNL     1       2.882   2.384  19.080  0.00  0.00    +0.000 A 
ATOM      6  F   UNL     1       2.627   1.110  19.424  0.00  0.00    +0.000 F 
ATOM      7  C   UNL     1       2.311   3.432  19.806  0.00  0.00    +0.000 A 
ATOM      8 BR   UNL     1       1.129   3.029  21.238  0.00  0.00    +0.000 Br
ENDROOT
BRANCH   1  15
ATOM      9  C   UNL     1       0.977  10.674  20.097  0.00  0.00    +0.000 C 
ATOM     10  N   UNL     1       1.407   9.381  19.619  0.00  0.00    +0.000 N 
ATOM     11  C   UNL     1       1.809   9.199  18.326  0.00  0.00    +0.000 C 
ATOM     12  O   UNL     1       1.950  10.053  17.463  0.00  0.00    +0.000 OA
ATOM     13  S   UNL     1       2.133   7.509  18.033  0.00  0.00    +0.000 S 
ATOM     14  C   UNL     1       1.975   7.111  19.702  0.00  0.00    +0.000 C 
ATOM     15  C   UNL     1       2.238   5.928  20.269  0.00  0.00    +0.000 C 
ATOM     16  C   UNL     1       1.501   8.300  20.464  0.00  0.00    +0.000 C 
ATOM     17  O   UNL     1       1.236   8.282  21.655  0.00  0.00    +0.000 OA
ENDBRANCH   1  15
BRANCH   4  18
ATOM     18  O   UNL     1       4.307   1.589  17.348  0.00  0.00    +0.000 OA
ATOM     19  H   UNL     1       4.904   1.151  17.980  0.00  0.00    +0.000 HD
ENDBRANCH   4  18
BRANCH   3  20
ATOM     20  O   UNL     1       4.713   4.159  16.449  0.00  0.00    +0.000 OA
BRANCH  20  21
ATOM     21  C   UNL     1       6.136   4.132  16.680  0.00  0.00    +0.000 C 
BRANCH  21  22
ATOM     22  C   UNL     1       6.728   5.417  17.167  0.00  0.00    +0.000 A 
ATOM     23  C   UNL     1       7.601   5.506  18.230  0.00  0.00    +0.000 A 
ATOM     24  N   UNL     1       8.151   6.659  18.644  0.00  0.00    +0.000 NA
ATOM     25  C   UNL     1       7.800   7.740  17.937  0.00  0.00    +0.000 A 
ATOM     26 CL   UNL     1       8.491   9.225  18.419  0.00  0.00    +0.000 Cl
ATOM     27  N   UNL     1       6.962   7.789  16.898  0.00  0.00    +0.000 NA
ATOM     28  C   UNL     1       6.429   6.620  16.534  0.00  0.00    +0.000 A 
BRANCH  28  29
ATOM     29  N   UNL     1       5.572   6.673  15.433  0.00  0.00    +0.000 N 
ATOM     30  H   UNL     1       5.660   7.605  15.027  0.00  0.00    +0.000 HD
ATOM     31  H   UNL     1       4.606   6.484  15.674  0.00  0.00    +0.000 HD
ENDBRANCH  28  29
ENDBRANCH  21  22
ENDBRANCH  20  21
ENDBRANCH   3  20
TORSDOF 6
ENDMDL
MODEL 3
REMARK VINA RESULT:      -7.9      2.280      2.721
REMARK  Name = 
REMARK  7 active torsions:
REMARK  status: ('A' for Active; 'I' for Inactive)
REMARK    1  A    between atoms: C_1  and  N_2
REMARK    2  A    between atoms: C_7  and  C_8
REMARK    3  A    between atoms: C_10  and  O_11
REMARK    4  A    between atoms: O_11  and  C_12
REMARK    5  A    between atoms: C_12  and  C_13
REMARK    6  A    between atoms: C_19  and  N_20
REMARK    7  A    between atoms: C_21  and  O_22
REMARK                            x       y       z     vdW  Elec       q    Type
REMARK                         _______ _______ _______ _____ _____    ______ ____
ROOT
ATOM      1  C   UNL     1       2.648   4.854  20.077  0.00  0.00    +0.000 A 
ATOM      2  C   UNL     1       4.028   4.902  19.832  0.00  0.00    +0.000 A 
ATOM      3  C   UNL     1       4.724   3.785  19.358  0.00  0.00    +0.000 A 
ATOM      4  C   UNL     1       4.040   2.573  19.241  0.00  0.00    +0.000 A 
ATOM      5  C   UNL     1       2.662   2.515  19.468  0.00  0.00    +0.000 A 
ATOM      6  F   UNL     1       2.020   1.345  19.318  0.00  0.00    +0.000 F 
ATOM      7  C   UNL     1       1.957   3.655  19.860  0.00  0.00    +0.000 A 
ATOM      8 BR   UNL     1       0.078   3.537  20.117  0.00  0.00    +0.000 Br
ENDROOT
BRANCH   1  15
ATOM      9  C   UNL     1       0.693  10.706  19.770  0.00  0.00    +0.000 C 
ATOM     10  N   UNL     1       1.260   9.402  19.518  0.00  0.00    +0.000 N 
ATOM     11  C   UNL     1       1.937   9.134  18.362  0.00  0.00    +0.000 C 
ATOM     12  O   UNL     1       2.232   9.918  17.472  0.00  0.00    +0.000 OA
ATOM     13  S   UNL     1       2.375   7.445  18.304  0.00  0.00    +0.000 S 
ATOM     14  C   UNL     1       1.874   7.182  19.932  0.00  0.00    +0.000 C 
ATOM     15  C   UNL     1       2.049   6.067  20.651  0.00  0.00    +0.000 C 
ATOM     16  C   UNL     1       1.207   8.404  20.462  0.00  0.00    +0.000 C 
ATOM     17  O   UNL     1       0.693   8.472  21.566  0.00  0.00    +0.000 OA
ENDBRANCH   1  15
BRANCH   4  18
ATOM     18  O   UNL     1       4.701   1.423  18.905  0.00  0.00    +0.000 OA
ATOM     19  H   UNL     1       4.216   0.684  19.314  0.00  0.00    +0.000 HD
ENDBRANCH   4  18
BRANCH   3  20
ATOM     20  O   UNL     1       6.053   3.819  18.986  0.00  0.00    +0.000 OA
BRANCH  20  21
ATOM     21  C   UNL     1       6.381   4.989  18.210  0.00  0.00    +0.000 C 
BRANCH  21  22
ATOM     22  C   UNL     1       6.521   4.759  16.738  0.00  0.00    +0.000 A 
ATOM     23  C   UNL     1       5.966   3.688  16.072  0.00  0.00    +0.000 A 
ATOM     24  N   UNL     1       6.071   3.503  14.745  0.00  0.00    +0.000 NA
ATOM     25  C   UNL     1       6.753   4.452  14.094  0.00  0.00    +0.000 A 
ATOM     26 CL   UNL     1       6.896   4.266  12.402  0.00  0.00    +0.000 Cl
ATOM     27  N   UNL     1       7.344   5.529  14.620  0.00  0.00    +0.000 NA
ATOM     28  C   UNL     1       7.224   5.660  15.944  0.00  0.00    +0.000 A 
BRANCH  28  29
ATOM     29  N   UNL     1       7.823   6.800  16.486  0.00  0.00    +0.000 N 
ATOM     30  H   UNL     1       7.114   7.534  16.500  0.00  0.00    +0.000 HD
ATOM     31  H   UNL     1       8.636   7.105  15.963  0.00  0.00    +0.000 HD
ENDBRANCH  28  29
ENDBRANCH  21  22
ENDBRANCH  20  21
ENDBRANCH   3  20
TORSDOF 6
ENDMDL
MODEL 4
REMARK VINA RESULT:      -7.8      2.188      2.948
REMARK  Name = 
REMARK  7 active torsions:
REMARK  status: ('A' for Active; 'I' for Inactive)
REMARK    1  A    between atoms: C_1  and  N_2
REMARK    2  A    between atoms: C_7  and  C_8
REMARK    3  A    between atoms: C_10  and  O_11
REMARK    4  A    between atoms: O_11  and  C_12
REMARK    5  A    between atoms: C_12  and  C_13
REMARK    6  A    between atoms: C_19  and  N_20
REMARK    7  A    between atoms: C_21  and  O_22
REMARK                            x       y       z     vdW  Elec       q    Type
REMARK                         _______ _______ _______ _____ _____    ______ ____
ROOT
ATOM      1  C   UNL     1       3.358   5.809  18.431  0.00  0.00    +0.000 A 
ATOM      2  C   UNL     1       4.617   5.912  19.041  0.00  0.00    +0.000 A 
ATOM      3  C   UNL     1       5.294   4.781  19.510  0.00  0.00    +0.000 A 
ATOM      4  C   UNL     1       4.642   3.547  19.467  0.00  0.00    +0.000 A 
ATOM      5  C   UNL     1       3.394   3.430  18.849  0.00  0.00    +0.000 A 
ATOM      6  F   UNL     1       2.799   2.226  18.791  0.00  0.00    +0.000 F 
ATOM      7  C   UNL     1       2.759   4.549  18.307  0.00  0.00    +0.000 A 
ATOM      8 BR   UNL     1       1.083   4.334  17.440  0.00  0.00    +0.000 Br
ENDROOT
BRANCH   1  15
ATOM      9  C   UNL     1       0.134  10.928  19.687  0.00  0.00    +0.000 C 
ATOM     10  N   UNL     1       0.819   9.657  19.726  0.00  0.00    +0.000 N 
ATOM     11  C   UNL     1       0.777   8.862  20.836  0.00  0.00    +0.000 C 
ATOM     12  O   UNL     1       0.126   9.040  21.856  0.00  0.00    +0.000 OA
ATOM     13  S   UNL     1       1.808   7.471  20.615  0.00  0.00    +0.000 S 
ATOM     14  C   UNL     1       2.077   7.841  18.953  0.00  0.00    +0.000 C 
ATOM     15  C   UNL     1       2.715   7.077  18.058  0.00  0.00    +0.000 C 
ATOM     16  C   UNL     1       1.476   9.164  18.624  0.00  0.00    +0.000 C 
ATOM     17  O   UNL     1       1.578   9.703  17.534  0.00  0.00    +0.000 OA
ENDBRANCH   1  15
BRANCH   4  18
ATOM     18  O   UNL     1       5.207   2.434  20.027  0.00  0.00    +0.000 OA
ATOM     19  H   UNL     1       4.528   2.020  20.590  0.00  0.00    +0.000 HD
ENDBRANCH   4  18
BRANCH   3  20
ATOM     20  O   UNL     1       6.583   4.817  20.003  0.00  0.00    +0.000 OA
BRANCH  20  21
ATOM     21  C   UNL     1       7.440   5.698  19.249  0.00  0.00    +0.000 C 
BRANCH  21  22
ATOM     22  C   UNL     1       7.441   5.475  17.770  0.00  0.00    +0.000 A 
ATOM     23  C   UNL     1       7.501   4.231  17.181  0.00  0.00    +0.000 A 
ATOM     24  N   UNL     1       7.471   4.037  15.851  0.00  0.00    +0.000 NA
ATOM     25  C   UNL     1       7.366   5.151  15.118  0.00  0.00    +0.000 A 
ATOM     26 CL   UNL     1       7.307   4.949  13.424  0.00  0.00    +0.000 Cl
ATOM     27  N   UNL     1       7.308   6.410  15.564  0.00  0.00    +0.000 NA
ATOM     28  C   UNL     1       7.356   6.552  16.892  0.00  0.00    +0.000 A 
BRANCH  28  29
ATOM     29  N   UNL     1       7.271   7.867  17.353  0.00  0.00    +0.000 N 
ATOM     30  H   UNL     1       7.948   8.416  16.823  0.00  0.00    +0.000 HD
ATOM     31  H   UNL     1       7.453   7.949  18.347  0.00  0.00    +0.000 HD
ENDBRANCH  28  29
ENDBRANCH  21  22
ENDBRANCH  20  21
ENDBRANCH   3  20
TORSDOF 6
ENDMDL
MODEL 5
REMARK VINA RESULT:      -7.8      2.541      2.855
REMARK  Name = 
REMARK  7 active torsions:
REMARK  status: ('A' for Active; 'I' for Inactive)
REMARK    1  A    between atoms: C_1  and  N_2
REMARK    2  A    between atoms: C_7  and  C_8
REMARK    3  A    between atoms: C_10  and  O_11
REMARK    4  A    between atoms: O_11  and  C_12
REMARK    5  A    between atoms: C_12  and  C_13
REMARK    6  A    between atoms: C_19  and  N_20
REMARK    7  A    between atoms: C_21  and  O_22
REMARK                            x       y       z     vdW  Elec       q    Type
REMARK                         _______ _______ _______ _____ _____    ______ ____
ROOT
ATOM      1  C   UNL     1       2.623   5.558  20.088  0.00  0.00    +0.000 A 
ATOM      2  C   UNL     1       3.922   6.029  19.851  0.00  0.00    +0.000 A 
ATOM      3  C   UNL     1       4.929   5.182  19.376  0.00  0.00    +0.000 A 
ATOM      4  C   UNL     1       4.651   3.820  19.251  0.00  0.00    +0.000 A 
ATOM      5  C   UNL     1       3.357   3.340  19.471  0.00  0.00    +0.000 A 
ATOM      6  F   UNL     1       3.105   2.029  19.313  0.00  0.00    +0.000 F 
ATOM      7  C   UNL     1       2.334   4.206  19.864  0.00  0.00    +0.000 A 
ATOM      8 BR   UNL     1       0.581   3.515  20.111  0.00  0.00    +0.000 Br
ENDROOT
BRANCH   1  15
ATOM      9  C   UNL     1      -0.431  10.928  20.111  0.00  0.00    +0.000 C 
ATOM     10  N   UNL     1       0.438   9.811  19.827  0.00  0.00    +0.000 N 
ATOM     11  C   UNL     1       1.372   9.873  18.832  0.00  0.00    +0.000 C 
ATOM     12  O   UNL     1       1.663  10.840  18.142  0.00  0.00    +0.000 OA
ATOM     13  S   UNL     1       2.161   8.326  18.655  0.00  0.00    +0.000 S 
ATOM     14  C   UNL     1       1.416   7.699  20.076  0.00  0.00    +0.000 C 
ATOM     15  C   UNL     1       1.678   6.525  20.664  0.00  0.00    +0.000 C 
ATOM     16  C   UNL     1       0.412   8.671  20.595  0.00  0.00    +0.000 C 
ATOM     17  O   UNL     1      -0.312   8.452  21.552  0.00  0.00    +0.000 OA
ENDBRANCH   1  15
BRANCH   4  18
ATOM     18  O   UNL     1       5.634   2.930  18.914  0.00  0.00    +0.000 OA
ATOM     19  H   UNL     1       6.252   2.886  19.665  0.00  0.00    +0.000 HD
ENDBRANCH   4  18
BRANCH   3  20
ATOM     20  O   UNL     1       6.185   5.625  19.011  0.00  0.00    +0.000 OA
BRANCH  20  21
ATOM     21  C   UNL     1       6.160   6.448  17.828  0.00  0.00    +0.000 C 
BRANCH  21  22
ATOM     22  C   UNL     1       6.115   5.702  16.532  0.00  0.00    +0.000 A 
ATOM     23  C   UNL     1       5.247   6.001  15.504  0.00  0.00    +0.000 A 
ATOM     24  N   UNL     1       5.231   5.345  14.331  0.00  0.00    +0.000 NA
ATOM     25  C   UNL     1       6.140   4.370  14.216  0.00  0.00    +0.000 A 
ATOM     26 CL   UNL     1       6.167   3.523  12.734  0.00  0.00    +0.000 Cl
ATOM     27  N   UNL     1       7.027   3.978  15.135  0.00  0.00    +0.000 NA
ATOM     28  C   UNL     1       6.993   4.650  16.290  0.00  0.00    +0.000 A 
BRANCH  28  29
ATOM     29  N   UNL     1       7.938   4.253  17.238  0.00  0.00    +0.000 N 
ATOM     30  H   UNL     1       7.456   4.189  18.135  0.00  0.00    +0.000 HD
ATOM     31  H   UNL     1       8.723   4.891  17.305  0.00  0.00    +0.000 HD
ENDBRANCH  28  29
ENDBRANCH  21  22
ENDBRANCH  20  21
ENDBRANCH   3  20
TORSDOF 6
ENDMDL
MODEL 6
REMARK VINA RESULT:      -7.5      1.151      1.782
REMARK  Name = 
REMARK  7 active torsions:
REMARK  status: ('A' for Active; 'I' for Inactive)
REMARK    1  A    between atoms: C_1  and  N_2
REMARK    2  A    between atoms: C_7  and  C_8
REMARK    3  A    between atoms: C_10  and  O_11
REMARK    4  A    between atoms: O_11  and  C_12
REMARK    5  A    between atoms: C_12  and  C_13
REMARK    6  A    between atoms: C_19  and  N_20
REMARK    7  A    between atoms: C_21  and  O_22
REMARK                            x       y       z     vdW  Elec       q    Type
REMARK                         _______ _______ _______ _____ _____    ______ ____
ROOT
ATOM      1  C   UNL     1       3.020   5.149  18.401  0.00  0.00    +0.000 A 
ATOM      2  C   UNL     1       4.416   5.163  18.534  0.00  0.00    +0.000 A 
ATOM      3  C   UNL     1       5.124   4.016  18.908  0.00  0.00    +0.000 A 
ATOM      4  C   UNL     1       4.405   2.874  19.263  0.00  0.00    +0.000 A 
ATOM      5  C   UNL     1       3.015   2.842  19.121  0.00  0.00    +0.000 A 
ATOM      6  F   UNL     1       2.346   1.721  19.440  0.00  0.00    +0.000 F 
ATOM      7  C   UNL     1       2.319   3.966  18.667  0.00  0.00    +0.000 A 
ATOM      8 BR   UNL     1       0.435   3.863  18.451  0.00  0.00    +0.000 Br
ENDROOT
BRANCH   1  15
ATOM      9  C   UNL     1       0.472  10.559  19.951  0.00  0.00    +0.000 C 
ATOM     10  N   UNL     1       1.070   9.245  19.933  0.00  0.00    +0.000 N 
ATOM     11  C   UNL     1       1.229   8.522  21.081  0.00  0.00    +0.000 C 
ATOM     12  O   UNL     1       0.834   8.807  22.202  0.00  0.00    +0.000 OA
ATOM     13  S   UNL     1       2.099   7.047  20.742  0.00  0.00    +0.000 S 
ATOM     14  C   UNL     1       2.012   7.298  19.040  0.00  0.00    +0.000 C 
ATOM     15  C   UNL     1       2.387   6.437  18.085  0.00  0.00    +0.000 C 
ATOM     16  C   UNL     1       1.433   8.640  18.753  0.00  0.00    +0.000 C 
ATOM     17  O   UNL     1       1.322   9.106  17.631  0.00  0.00    +0.000 OA
ENDBRANCH   1  15
BRANCH   4  18
ATOM     18  O   UNL     1       5.040   1.767  19.757  0.00  0.00    +0.000 OA
ATOM     19  H   UNL     1       5.054   1.103  19.046  0.00  0.00    +0.000 HD
ENDBRANCH   4  18
BRANCH   3  20
ATOM     20  O   UNL     1       6.503   3.948  18.932  0.00  0.00    +0.000 OA
BRANCH  20  21
ATOM     21  C   UNL     1       7.105   4.485  17.737  0.00  0.00    +0.000 C 
BRANCH  21  22
ATOM     22  C   UNL     1       7.526   5.918  17.823  0.00  0.00    +0.000 A 
ATOM     23  C   UNL     1       7.289   6.849  16.836  0.00  0.00    +0.000 A 
ATOM     24  N   UNL     1       7.645   8.142  16.932  0.00  0.00    +0.000 NA
ATOM     25  C   UNL     1       8.247   8.479  18.079  0.00  0.00    +0.000 A 
ATOM     26 CL   UNL     1       8.700  10.116  18.251  0.00  0.00    +0.000 Cl
ATOM     27  N   UNL     1       8.541   7.674  19.105  0.00  0.00    +0.000 NA
ATOM     28  C   UNL     1       8.181   6.397  18.955  0.00  0.00    +0.000 A 
BRANCH  28  29
ATOM     29  N   UNL     1       8.469   5.566  20.039  0.00  0.00    +0.000 N 
ATOM     30  H   UNL     1       9.472   5.633  20.212  0.00  0.00    +0.000 HD
ATOM     31  H   UNL     1       8.204   4.601  19.879  0.00  0.00    +0.000 HD
ENDBRANCH  28  29
ENDBRANCH  21  22
ENDBRANCH  20  21
ENDBRANCH   3  20
TORSDOF 6
ENDMDL
MODEL 7
REMARK VINA RESULT:      -7.4      3.435      6.800
REMARK  Name = 
REMARK  7 active torsions:
REMARK  status: ('A' for Active; 'I' for Inactive)
REMARK    1  A    between atoms: C_1  and  N_2
REMARK    2  A    between atoms: C_7  and  C_8
REMARK    3  A    between atoms: C_10  and  O_11
REMARK    4  A    between atoms: O_11  and  C_12
REMARK    5  A    between atoms: C_12  and  C_13
REMARK    6  A    between atoms: C_19  and  N_20
REMARK    7  A    between atoms: C_21  and  O_22
REMARK                            x       y       z     vdW  Elec       q    Type
REMARK                         _______ _______ _______ _____ _____    ______ ____
ROOT
ATOM      1  C   UNL     1       4.150   4.084  19.146  0.00  0.00    +0.000 A 
ATOM      2  C   UNL     1       3.569   5.246  19.673  0.00  0.00    +0.000 A 
ATOM      3  C   UNL     1       2.288   5.231  20.235  0.00  0.00    +0.000 A 
ATOM      4  C   UNL     1       1.541   4.054  20.159  0.00  0.00    +0.000 A 
ATOM      5  C   UNL     1       2.113   2.886  19.649  0.00  0.00    +0.000 A 
ATOM      6  F   UNL     1       1.385   1.757  19.614  0.00  0.00    +0.000 F 
ATOM      7  C   UNL     1       3.424   2.887  19.165  0.00  0.00    +0.000 A 
ATOM      8 BR   UNL     1       4.174   1.265  18.520  0.00  0.00    +0.000 Br
ENDROOT
BRANCH   1  15
ATOM      9  C   UNL     1       7.842   4.845  14.250  0.00  0.00    +0.000 C 
ATOM     10  N   UNL     1       6.732   4.640  15.151  0.00  0.00    +0.000 N 
ATOM     11  C   UNL     1       5.477   4.373  14.682  0.00  0.00    +0.000 C 
ATOM     12  O   UNL     1       5.139   4.184  13.522  0.00  0.00    +0.000 OA
ATOM     13  S   UNL     1       4.343   4.312  16.009  0.00  0.00    +0.000 S 
ATOM     14  C   UNL     1       5.600   4.389  17.185  0.00  0.00    +0.000 C 
ATOM     15  C   UNL     1       5.465   4.249  18.509  0.00  0.00    +0.000 C 
ATOM     16  C   UNL     1       6.909   4.629  16.515  0.00  0.00    +0.000 C 
ATOM     17  O   UNL     1       7.958   4.797  17.114  0.00  0.00    +0.000 OA
ENDBRANCH   1  15
BRANCH   4  18
ATOM     18  O   UNL     1       0.238   4.020  20.577  0.00  0.00    +0.000 OA
ATOM     19  H   UNL     1       0.235   3.644  21.476  0.00  0.00    +0.000 HD
ENDBRANCH   4  18
BRANCH   3  20
ATOM     20  O   UNL     1       1.726   6.317  20.876  0.00  0.00    +0.000 OA
BRANCH  20  21
ATOM     21  C   UNL     1       1.900   7.545  20.141  0.00  0.00    +0.000 C 
BRANCH  21  22
ATOM     22  C   UNL     1       1.224   8.742  20.730  0.00  0.00    +0.000 A 
ATOM     23  C   UNL     1       1.086   8.957  22.084  0.00  0.00    +0.000 A 
ATOM     24  N   UNL     1       0.503  10.049  22.607  0.00  0.00    +0.000 NA
ATOM     25  C   UNL     1       0.065  10.941  21.711  0.00  0.00    +0.000 A 
ATOM     26 CL   UNL     1      -0.667  12.353  22.332  0.00  0.00    +0.000 Cl
ATOM     27  N   UNL     1       0.130  10.848  20.379  0.00  0.00    +0.000 NA
ATOM     28  C   UNL     1       0.705   9.738  19.908  0.00  0.00    +0.000 A 
BRANCH  28  29
ATOM     29  N   UNL     1       0.791   9.657  18.517  0.00  0.00    +0.000 N 
ATOM     30  H   UNL     1       1.774   9.776  18.269  0.00  0.00    +0.000 HD
ATOM     31  H   UNL     1       0.223  10.350  18.045  0.00  0.00    +0.000 HD
ENDBRANCH  28  29
ENDBRANCH  21  22
ENDBRANCH  20  21
ENDBRANCH   3  20
TORSDOF 6
ENDMDL
MODEL 8
REMARK VINA RESULT:      -7.4      1.538      2.328
REMARK  Name = 
REMARK  7 active torsions:
REMARK  status: ('A' for Active; 'I' for Inactive)
REMARK    1  A    between atoms: C_1  and  N_2
REMARK    2  A    between atoms: C_7  and  C_8
REMARK    3  A    between atoms: C_10  and  O_11
REMARK    4  A    between atoms: O_11  and  C_12
REMARK    5  A    between atoms: C_12  and  C_13
REMARK    6  A    between atoms: C_19  and  N_20
REMARK    7  A    between atoms: C_21  and  O_22
REMARK                            x       y       z     vdW  Elec       q    Type
REMARK                         _______ _______ _______ _____ _____    ______ ____
ROOT
ATOM      1  C   UNL     1       3.376   5.684  18.286  0.00  0.00    +0.000 A 
ATOM      2  C   UNL     1       4.697   5.753  18.752  0.00  0.00    +0.000 A 
ATOM      3  C   UNL     1       5.382   4.609  19.176  0.00  0.00    +0.000 A 
ATOM      4  C   UNL     1       4.686   3.401  19.238  0.00  0.00    +0.000 A 
ATOM      5  C   UNL     1       3.374   3.316  18.764  0.00  0.00    +0.000 A 
ATOM      6  F   UNL     1       2.734   2.135  18.805  0.00  0.00    +0.000 F 
ATOM      7  C   UNL     1       2.723   4.446  18.263  0.00  0.00    +0.000 A 
ATOM      8 BR   UNL     1       0.955   4.273  17.590  0.00  0.00    +0.000 Br
ENDROOT
BRANCH   1  15
ATOM      9  C   UNL     1       0.272  10.833  19.707  0.00  0.00    +0.000 C 
ATOM     10  N   UNL     1       0.938   9.552  19.709  0.00  0.00    +0.000 N 
ATOM     11  C   UNL     1       0.918   8.743  20.809  0.00  0.00    +0.000 C 
ATOM     12  O   UNL     1       0.302   8.917  21.851  0.00  0.00    +0.000 OA
ATOM     13  S   UNL     1       1.921   7.339  20.538  0.00  0.00    +0.000 S 
ATOM     14  C   UNL     1       2.143   7.727  18.874  0.00  0.00    +0.000 C 
ATOM     15  C   UNL     1       2.741   6.966  17.949  0.00  0.00    +0.000 C 
ATOM     16  C   UNL     1       1.552   9.063  18.580  0.00  0.00    +0.000 C 
ATOM     17  O   UNL     1       1.628   9.615  17.495  0.00  0.00    +0.000 OA
ENDBRANCH   1  15
BRANCH   4  18
ATOM     18  O   UNL     1       5.268   2.280  19.765  0.00  0.00    +0.000 OA
ATOM     19  H   UNL     1       5.036   1.535  19.183  0.00  0.00    +0.000 HD
ENDBRANCH   4  18
BRANCH   3  20
ATOM     20  O   UNL     1       6.717   4.608  19.524  0.00  0.00    +0.000 OA
BRANCH  20  21
ATOM     21  C   UNL     1       7.575   5.000  18.433  0.00  0.00    +0.000 C 
BRANCH  21  22
ATOM     22  C   UNL     1       7.822   6.471  18.313  0.00  0.00    +0.000 A 
ATOM     23  C   UNL     1       8.521   7.210  19.242  0.00  0.00    +0.000 A 
ATOM     24  N   UNL     1       8.765   8.526  19.114  0.00  0.00    +0.000 NA
ATOM     25  C   UNL     1       8.286   9.083  17.995  0.00  0.00    +0.000 A 
ATOM     26 CL   UNL     1       8.588  10.750  17.783  0.00  0.00    +0.000 Cl
ATOM     27  N   UNL     1       7.588   8.482  17.027  0.00  0.00    +0.000 NA
ATOM     28  C   UNL     1       7.359   7.179  17.208  0.00  0.00    +0.000 A 
BRANCH  28  29
ATOM     29  N   UNL     1       6.651   6.551  16.181  0.00  0.00    +0.000 N 
ATOM     30  H   UNL     1       6.643   7.190  15.386  0.00  0.00    +0.000 HD
ATOM     31  H   UNL     1       5.704   6.307  16.447  0.00  0.00    +0.000 HD
ENDBRANCH  28  29
ENDBRANCH  21  22
ENDBRANCH  20  21
ENDBRANCH   3  20
TORSDOF 6
ENDMDL
MODEL 9
REMARK VINA RESULT:      -7.2      2.587      2.939
REMARK  Name = 
REMARK  7 active torsions:
REMARK  status: ('A' for Active; 'I' for Inactive)
REMARK    1  A    between atoms: C_1  and  N_2
REMARK    2  A    between atoms: C_7  and  C_8
REMARK    3  A    between atoms: C_10  and  O_11
REMARK    4  A    between atoms: O_11  and  C_12
REMARK    5  A    between atoms: C_12  and  C_13
REMARK    6  A    between atoms: C_19  and  N_20
REMARK    7  A    between atoms: C_21  and  O_22
REMARK                            x       y       z     vdW  Elec       q    Type
REMARK                         _______ _______ _______ _____ _____    ______ ____
ROOT
ATOM      1  C   UNL     1       2.791   5.133  20.077  0.00  0.00    +0.000 A 
ATOM      2  C   UNL     1       4.129   5.306  19.696  0.00  0.00    +0.000 A 
ATOM      3  C   UNL     1       4.899   4.236  19.228  0.00  0.00    +0.000 A 
ATOM      4  C   UNL     1       4.345   2.954  19.256  0.00  0.00    +0.000 A 
ATOM      5  C   UNL     1       3.008   2.770  19.619  0.00  0.00    +0.000 A 
ATOM      6  F   UNL     1       2.487   1.532  19.608  0.00  0.00    +0.000 F 
ATOM      7  C   UNL     1       2.219   3.856  20.005  0.00  0.00    +0.000 A 
ATOM      8 BR   UNL     1       0.396   3.564  20.451  0.00  0.00    +0.000 Br
ENDROOT
BRANCH   1  15
ATOM      9  C   UNL     1       0.507  10.860  19.672  0.00  0.00    +0.000 C 
ATOM     10  N   UNL     1       1.151   9.587  19.443  0.00  0.00    +0.000 N 
ATOM     11  C   UNL     1       1.857   9.345  18.300  0.00  0.00    +0.000 C 
ATOM     12  O   UNL     1       2.117  10.134  17.403  0.00  0.00    +0.000 OA
ATOM     13  S   UNL     1       2.392   7.683  18.268  0.00  0.00    +0.000 S 
ATOM     14  C   UNL     1       1.887   7.411  19.893  0.00  0.00    +0.000 C 
ATOM     15  C   UNL     1       2.117   6.316  20.629  0.00  0.00    +0.000 C 
ATOM     16  C   UNL     1       1.143   8.599  20.399  0.00  0.00    +0.000 C 
ATOM     17  O   UNL     1       0.613   8.651  21.497  0.00  0.00    +0.000 OA
ENDBRANCH   1  15
BRANCH   4  18
ATOM     18  O   UNL     1       5.095   1.857  18.931  0.00  0.00    +0.000 OA
ATOM     19  H   UNL     1       5.751   1.738  19.640  0.00  0.00    +0.000 HD
ENDBRANCH   4  18
BRANCH   3  20
ATOM     20  O   UNL     1       6.177   4.380  18.727  0.00  0.00    +0.000 OA
BRANCH  20  21
ATOM     21  C   UNL     1       6.296   5.499  17.826  0.00  0.00    +0.000 C 
BRANCH  21  22
ATOM     22  C   UNL     1       6.436   5.141  16.380  0.00  0.00    +0.000 A 
ATOM     23  C   UNL     1       7.535   5.461  15.613  0.00  0.00    +0.000 A 
ATOM     24  N   UNL     1       7.667   5.111  14.322  0.00  0.00    +0.000 NA
ATOM     25  C   UNL     1       6.647   4.407  13.820  0.00  0.00    +0.000 A 
ATOM     26 CL   UNL     1       6.782   3.927  12.187  0.00  0.00    +0.000 Cl
ATOM     27  N   UNL     1       5.527   4.042  14.451  0.00  0.00    +0.000 NA
ATOM     28  C   UNL     1       5.436   4.426  15.727  0.00  0.00    +0.000 A 
BRANCH  28  29
ATOM     29  N   UNL     1       4.275   4.022  16.389  0.00  0.00    +0.000 N 
ATOM     30  H   UNL     1       3.490   4.484  15.930  0.00  0.00    +0.000 HD
ATOM     31  H   UNL     1       4.286   4.245  17.378  0.00  0.00    +0.000 HD
ENDBRANCH  28  29
ENDBRANCH  21  22
ENDBRANCH  20  21
ENDBRANCH   3  20
TORSDOF 6
ENDMDL
