MODEL 1
REMARK VINA RESULT:      -8.3      0.000      0.000
REMARK  Name = 
REMARK  3 active torsions:
REMARK  status: ('A' for Active; 'I' for Inactive)
REMARK    1  A    between atoms: C_1  and  C_2
REMARK    2  A    between atoms: N_5  and  C_6
REMARK    3  A    between atoms: C_22  and  C_23
REMARK                            x       y       z     vdW  Elec       q    Type
REMARK                         _______ _______ _______ _____ _____    ______ ____
ROOT
ATOM      1  C   UNL     1       3.922   4.466  18.951  0.00  0.00    +0.000 A 
ATOM      2  N   UNL     1       3.629   3.551  19.922  0.00  0.00    +0.000 NA
ATOM      3  N   UNL     1       2.830   3.798  20.943  0.00  0.00    +0.000 NA
ATOM      4  N   UNL     1       2.255   4.897  21.106  0.00  0.00    +0.000 NA
ATOM      5  C   UNL     1       2.426   5.868  20.183  0.00  0.00    +0.000 A 
ATOM      6  C   UNL     1       3.250   5.693  19.080  0.00  0.00    +0.000 A 
ATOM      7  S   UNL     1       3.184   7.104  18.081  0.00  0.00    +0.000 S 
ATOM      8  C   UNL     1       2.159   7.932  19.154  0.00  0.00    +0.000 A 
ATOM      9  N   UNL     1       1.770   9.201  18.916  0.00  0.00    +0.000 NA
ATOM     10  C   UNL     1       0.946   9.772  19.826  0.00  0.00    +0.000 A 
ATOM     11  N   UNL     1       0.613  11.094  19.612  0.00  0.00    +0.000 N 
ATOM     12  C   UNL     1       1.468  11.956  18.779  0.00  0.00    +0.000 C 
ATOM     13  C   UNL     1       1.559  13.336  19.467  0.00  0.00    +0.000 C 
ATOM     14  O   UNL     1       0.261  13.908  19.723  0.00  0.00    +0.000 OA
ATOM     15  C   UNL     1      -0.544  13.021  20.524  0.00  0.00    +0.000 C 
ATOM     16  C   UNL     1      -0.725  11.673  19.807  0.00  0.00    +0.000 C 
ATOM     17  C   UNL     1       0.532   9.066  20.972  0.00  0.00    +0.000 A 
ATOM     18  C   UNL     1       0.950   7.747  21.177  0.00  0.00    +0.000 A 
ATOM     19  C   UNL     1       1.807   7.156  20.240  0.00  0.00    +0.000 A 
ENDROOT
BRANCH   1  24
ATOM     20  C   UNL     1       7.067   5.137  14.453  0.00  0.00    +0.000 C 
ATOM     21  C   UNL     1       6.528   4.370  15.657  0.00  0.00    +0.000 C 
ATOM     22  C   UNL     1       5.016   4.165  15.529  0.00  0.00    +0.000 C 
ATOM     23  C   UNL     1       4.442   3.426  16.739  0.00  0.00    +0.000 C 
ATOM     24  N   UNL     1       4.823   4.109  17.963  0.00  0.00    +0.000 N 
ATOM     25  C   UNL     1       6.247   4.386  18.175  0.00  0.00    +0.000 C 
ATOM     26  C   UNL     1       6.841   5.108  16.965  0.00  0.00    +0.000 C 
ENDBRANCH   1  24
BRANCH  17  27
ATOM     27  C   UNL     1      -0.239   9.657  22.019  0.00  0.00    +0.000 C 
ATOM     28  N   UNL     1      -0.870  10.108  22.885  0.00  0.00    +0.000 NA
ENDBRANCH  17  27
TORSDOF 2
ENDMDL
MODEL 2
REMARK VINA RESULT:      -7.6      2.507      4.373
REMARK  Name = 
REMARK  3 active torsions:
REMARK  status: ('A' for Active; 'I' for Inactive)
REMARK    1  A    between atoms: C_1  and  C_2
REMARK    2  A    between atoms: N_5  and  C_6
REMARK    3  A    between atoms: C_22  and  C_23
REMARK                            x       y       z     vdW  Elec       q    Type
REMARK                         _______ _______ _______ _____ _____    ______ ____
ROOT
ATOM      1  C   UNL     1       2.526   6.981  18.905  0.00  0.00    +0.000 A 
ATOM      2  N   UNL     1       3.018   7.301  17.672  0.00  0.00    +0.000 NA
ATOM      3  N   UNL     1       2.851   8.478  17.100  0.00  0.00    +0.000 NA
ATOM      4  N   UNL     1       2.231   9.417  17.646  0.00  0.00    +0.000 NA
ATOM      5  C   UNL     1       1.738   9.239  18.892  0.00  0.00    +0.000 A 
ATOM      6  C   UNL     1       1.869   8.033  19.565  0.00  0.00    +0.000 A 
ATOM      7  S   UNL     1       1.184   8.178  21.147  0.00  0.00    +0.000 S 
ATOM      8  C   UNL     1       0.662   9.773  20.878  0.00  0.00    +0.000 A 
ATOM      9  N   UNL     1      -0.034  10.451  21.813  0.00  0.00    +0.000 NA
ATOM     10  C   UNL     1      -0.398  11.719  21.507  0.00  0.00    +0.000 A 
ATOM     11  N   UNL     1      -1.173  12.380  22.440  0.00  0.00    +0.000 N 
ATOM     12  C   UNL     1      -1.962  11.624  23.426  0.00  0.00    +0.000 C 
ATOM     13  C   UNL     1      -3.336  12.318  23.561  0.00  0.00    +0.000 C 
ATOM     14  O   UNL     1      -3.215  13.716  23.887  0.00  0.00    +0.000 OA
ATOM     15  C   UNL     1      -2.419  14.408  22.905  0.00  0.00    +0.000 C 
ATOM     16  C   UNL     1      -1.013  13.789  22.828  0.00  0.00    +0.000 C 
ATOM     17  C   UNL     1      -0.071  12.287  20.261  0.00  0.00    +0.000 A 
ATOM     18  C   UNL     1       0.661  11.552  19.322  0.00  0.00    +0.000 A 
ATOM     19  C   UNL     1       1.035  10.238  19.633  0.00  0.00    +0.000 A 
ENDROOT
BRANCH   1  24
ATOM     20  C   UNL     1       3.461   1.539  18.586  0.00  0.00    +0.000 C 
ATOM     21  C   UNL     1       3.238   2.860  19.317  0.00  0.00    +0.000 C 
ATOM     22  C   UNL     1       1.862   3.438  18.974  0.00  0.00    +0.000 C 
ATOM     23  C   UNL     1       1.623   4.779  19.669  0.00  0.00    +0.000 C 
ATOM     24  N   UNL     1       2.714   5.692  19.373  0.00  0.00    +0.000 N 
ATOM     25  C   UNL     1       4.080   5.229  19.634  0.00  0.00    +0.000 C 
ATOM     26  C   UNL     1       4.329   3.879  18.962  0.00  0.00    +0.000 C 
ENDBRANCH   1  24
BRANCH  17  27
ATOM     27  C   UNL     1      -0.529  13.573  19.843  0.00  0.00    +0.000 C 
ATOM     28  N   UNL     1      -0.874  14.624  19.484  0.00  0.00    +0.000 NA
ENDBRANCH  17  27
TORSDOF 2
ENDMDL
MODEL 3
REMARK VINA RESULT:      -7.6      1.216      1.331
REMARK  Name = 
REMARK  3 active torsions:
REMARK  status: ('A' for Active; 'I' for Inactive)
REMARK    1  A    between atoms: C_1  and  C_2
REMARK    2  A    between atoms: N_5  and  C_6
REMARK    3  A    between atoms: C_22  and  C_23
REMARK                            x       y       z     vdW  Elec       q    Type
REMARK                         _______ _______ _______ _____ _____    ______ ____
ROOT
ATOM      1  C   UNL     1       3.435   5.451  19.077  0.00  0.00    +0.000 A 
ATOM      2  N   UNL     1       2.998   4.625  20.073  0.00  0.00    +0.000 NA
ATOM      3  N   UNL     1       2.121   4.985  20.991  0.00  0.00    +0.000 NA
ATOM      4  N   UNL     1       1.598   6.120  21.023  0.00  0.00    +0.000 NA
ATOM      5  C   UNL     1       1.912   7.013  20.059  0.00  0.00    +0.000 A 
ATOM      6  C   UNL     1       2.826   6.717  19.057  0.00  0.00    +0.000 A 
ATOM      7  S   UNL     1       2.938   8.054  17.965  0.00  0.00    +0.000 S 
ATOM      8  C   UNL     1       1.864   9.009  18.874  0.00  0.00    +0.000 A 
ATOM      9  N   UNL     1       1.574  10.275  18.515  0.00  0.00    +0.000 NA
ATOM     10  C   UNL     1       0.701  10.952  19.299  0.00  0.00    +0.000 A 
ATOM     11  N   UNL     1       0.467  12.270  18.966  0.00  0.00    +0.000 N 
ATOM     12  C   UNL     1       1.447  13.025  18.166  0.00  0.00    +0.000 C 
ATOM     13  C   UNL     1       1.551  14.445  18.766  0.00  0.00    +0.000 C 
ATOM     14  O   UNL     1       0.270  15.099  18.854  0.00  0.00    +0.000 OA
ATOM     15  C   UNL     1      -0.658  14.314  19.629  0.00  0.00    +0.000 C 
ATOM     16  C   UNL     1      -0.848  12.929  18.988  0.00  0.00    +0.000 C 
ATOM     17  C   UNL     1       0.139  10.351  20.442  0.00  0.00    +0.000 A 
ATOM     18  C   UNL     1       0.459   9.031  20.775  0.00  0.00    +0.000 A 
ATOM     19  C   UNL     1       1.366   8.331  19.968  0.00  0.00    +0.000 A 
ENDROOT
BRANCH   1  24
ATOM     20  C   UNL     1       5.842   4.442  14.201  0.00  0.00    +0.000 C 
ATOM     21  C   UNL     1       5.760   4.444  15.725  0.00  0.00    +0.000 C 
ATOM     22  C   UNL     1       4.573   3.600  16.200  0.00  0.00    +0.000 C 
ATOM     23  C   UNL     1       4.448   3.610  17.724  0.00  0.00    +0.000 C 
ATOM     24  N   UNL     1       4.404   4.979  18.209  0.00  0.00    +0.000 N 
ATOM     25  C   UNL     1       5.477   5.885  17.790  0.00  0.00    +0.000 C 
ATOM     26  C   UNL     1       5.628   5.873  16.269  0.00  0.00    +0.000 C 
ENDBRANCH   1  24
BRANCH  17  27
ATOM     27  C   UNL     1      -0.692  11.055  21.366  0.00  0.00    +0.000 C 
ATOM     28  N   UNL     1      -1.372  11.651  22.096  0.00  0.00    +0.000 NA
ENDBRANCH  17  27
TORSDOF 2
ENDMDL
MODEL 4
REMARK VINA RESULT:      -7.5      1.534      2.142
REMARK  Name = 
REMARK  3 active torsions:
REMARK  status: ('A' for Active; 'I' for Inactive)
REMARK    1  A    between atoms: C_1  and  C_2
REMARK    2  A    between atoms: N_5  and  C_6
REMARK    3  A    between atoms: C_22  and  C_23
REMARK                            x       y       z     vdW  Elec       q    Type
REMARK                         _______ _______ _______ _____ _____    ______ ____
ROOT
ATOM      1  C   UNL     1       2.895   6.299  18.707  0.00  0.00    +0.000 A 
ATOM      2  N   UNL     1       2.752   5.405  19.730  0.00  0.00    +0.000 NA
ATOM      3  N   UNL     1       2.122   5.677  20.856  0.00  0.00    +0.000 NA
ATOM      4  N   UNL     1       1.583   6.782  21.085  0.00  0.00    +0.000 NA
ATOM      5  C   UNL     1       1.614   7.735  20.128  0.00  0.00    +0.000 A 
ATOM      6  C   UNL     1       2.257   7.534  18.914  0.00  0.00    +0.000 A 
ATOM      7  S   UNL     1       2.044   8.926  17.911  0.00  0.00    +0.000 S 
ATOM      8  C   UNL     1       1.200   9.782  19.113  0.00  0.00    +0.000 A 
ATOM      9  N   UNL     1       0.784  11.048  18.913  0.00  0.00    +0.000 NA
ATOM     10  C   UNL     1       0.113  11.642  19.928  0.00  0.00    +0.000 A 
ATOM     11  N   UNL     1      -0.244  12.963  19.742  0.00  0.00    +0.000 N 
ATOM     12  C   UNL     1       0.476  13.802  18.771  0.00  0.00    +0.000 C 
ATOM     13  C   UNL     1       0.678  15.194  19.409  0.00  0.00    +0.000 C 
ATOM     14  O   UNL     1      -0.562  15.780  19.851  0.00  0.00    +0.000 OA
ATOM     15  C   UNL     1      -1.238  14.914  20.784  0.00  0.00    +0.000 C 
ATOM     16  C   UNL     1      -1.534  13.554  20.130  0.00  0.00    +0.000 C 
ATOM     17  C   UNL     1      -0.123  10.960  21.137  0.00  0.00    +0.000 A 
ATOM     18  C   UNL     1       0.317   9.643  21.301  0.00  0.00    +0.000 A 
ATOM     19  C   UNL     1       1.016   9.028  20.254  0.00  0.00    +0.000 A 
ENDROOT
BRANCH   1  24
ATOM     20  C   UNL     1       7.236   4.291  15.932  0.00  0.00    +0.000 C 
ATOM     21  C   UNL     1       5.822   4.849  16.064  0.00  0.00    +0.000 C 
ATOM     22  C   UNL     1       5.857   6.263  16.652  0.00  0.00    +0.000 C 
ATOM     23  C   UNL     1       4.450   6.837  16.826  0.00  0.00    +0.000 C 
ATOM     24  N   UNL     1       3.632   5.918  17.600  0.00  0.00    +0.000 N 
ATOM     25  C   UNL     1       3.553   4.528  17.144  0.00  0.00    +0.000 C 
ATOM     26  C   UNL     1       4.952   3.944  16.947  0.00  0.00    +0.000 C 
ENDBRANCH   1  24
BRANCH  17  27
ATOM     27  C   UNL     1      -0.721  11.576  22.279  0.00  0.00    +0.000 C 
ATOM     28  N   UNL     1      -1.219  12.047  23.217  0.00  0.00    +0.000 NA
ENDBRANCH  17  27
TORSDOF 2
ENDMDL
MODEL 5
REMARK VINA RESULT:      -7.5      1.016      1.322
REMARK  Name = 
REMARK  3 active torsions:
REMARK  status: ('A' for Active; 'I' for Inactive)
REMARK    1  A    between atoms: C_1  and  C_2
REMARK    2  A    between atoms: N_5  and  C_6
REMARK    3  A    between atoms: C_22  and  C_23
REMARK                            x       y       z     vdW  Elec       q    Type
REMARK                         _______ _______ _______ _____ _____    ______ ____
ROOT
ATOM      1  C   UNL     1       4.456   5.269  18.031  0.00  0.00    +0.000 A 
ATOM      2  N   UNL     1       4.384   4.197  18.873  0.00  0.00    +0.000 NA
ATOM      3  N   UNL     1       3.640   4.171  19.963  0.00  0.00    +0.000 NA
ATOM      4  N   UNL     1       2.919   5.129  20.317  0.00  0.00    +0.000 NA
ATOM      5  C   UNL     1       2.867   6.232  19.538  0.00  0.00    +0.000 A 
ATOM      6  C   UNL     1       3.618   6.343  18.376  0.00  0.00    +0.000 A 
ATOM      7  S   UNL     1       3.260   7.847  17.600  0.00  0.00    +0.000 S 
ATOM      8  C   UNL     1       2.209   8.345  18.839  0.00  0.00    +0.000 A 
ATOM      9  N   UNL     1       1.615   9.555  18.812  0.00  0.00    +0.000 NA
ATOM     10  C   UNL     1       0.788   9.857  19.841  0.00  0.00    +0.000 A 
ATOM     11  N   UNL     1       0.242  11.124  19.842  0.00  0.00    +0.000 N 
ATOM     12  C   UNL     1       0.888  12.217  19.097  0.00  0.00    +0.000 C 
ATOM     13  C   UNL     1       0.822  13.488  19.973  0.00  0.00    +0.000 C 
ATOM     14  O   UNL     1      -0.523  13.803  20.383  0.00  0.00    +0.000 OA
ATOM     15  C   UNL     1      -1.119  12.697  21.091  0.00  0.00    +0.000 C 
ATOM     16  C   UNL     1      -1.149  11.447  20.195  0.00  0.00    +0.000 C 
ATOM     17  C   UNL     1       0.577   8.944  20.892  0.00  0.00    +0.000 A 
ATOM     18  C   UNL     1       1.206   7.695  20.879  0.00  0.00    +0.000 A 
ATOM     19  C   UNL     1       2.066   7.382  19.818  0.00  0.00    +0.000 A 
ENDROOT
BRANCH   1  24
ATOM     20  C   UNL     1       6.210   3.765  13.007  0.00  0.00    +0.000 C 
ATOM     21  C   UNL     1       6.307   4.508  14.336  0.00  0.00    +0.000 C 
ATOM     22  C   UNL     1       6.337   3.517  15.504  0.00  0.00    +0.000 C 
ATOM     23  C   UNL     1       6.402   4.235  16.852  0.00  0.00    +0.000 C 
ATOM     24  N   UNL     1       5.321   5.200  16.952  0.00  0.00    +0.000 N 
ATOM     25  C   UNL     1       5.178   6.179  15.871  0.00  0.00    +0.000 C 
ATOM     26  C   UNL     1       5.131   5.478  14.513  0.00  0.00    +0.000 C 
ENDBRANCH   1  24
BRANCH  17  27
ATOM     27  C   UNL     1      -0.189   9.255  22.057  0.00  0.00    +0.000 C 
ATOM     28  N   UNL     1      -0.784   9.517  23.020  0.00  0.00    +0.000 NA
ENDBRANCH  17  27
TORSDOF 2
ENDMDL
MODEL 6
REMARK VINA RESULT:      -7.3      3.121      8.293
REMARK  Name = 
REMARK  3 active torsions:
REMARK  status: ('A' for Active; 'I' for Inactive)
REMARK    1  A    between atoms: C_1  and  C_2
REMARK    2  A    between atoms: N_5  and  C_6
REMARK    3  A    between atoms: C_22  and  C_23
REMARK                            x       y       z     vdW  Elec       q    Type
REMARK                         _______ _______ _______ _____ _____    ______ ____
ROOT
ATOM      1  C   UNL     1       0.539  10.994  20.262  0.00  0.00    +0.000 A 
ATOM      2  N   UNL     1      -0.031  11.156  21.493  0.00  0.00    +0.000 NA
ATOM      3  N   UNL     1      -0.132  10.188  22.384  0.00  0.00    +0.000 NA
ATOM      4  N   UNL     1       0.299   9.031  22.185  0.00  0.00    +0.000 NA
ATOM      5  C   UNL     1       0.929   8.760  21.021  0.00  0.00    +0.000 A 
ATOM      6  C   UNL     1       1.078   9.718  20.028  0.00  0.00    +0.000 A 
ATOM      7  S   UNL     1       1.982   9.050  18.713  0.00  0.00    +0.000 S 
ATOM      8  C   UNL     1       2.076   7.513  19.433  0.00  0.00    +0.000 A 
ATOM      9  N   UNL     1       2.670   6.479  18.806  0.00  0.00    +0.000 NA
ATOM     10  C   UNL     1       2.702   5.296  19.466  0.00  0.00    +0.000 A 
ATOM     11  N   UNL     1       3.246   4.226  18.786  0.00  0.00    +0.000 N 
ATOM     12  C   UNL     1       3.311   4.228  17.315  0.00  0.00    +0.000 C 
ATOM     13  C   UNL     1       2.939   2.812  16.824  0.00  0.00    +0.000 C 
ATOM     14  O   UNL     1       3.759   1.790  17.423  0.00  0.00    +0.000 OA
ATOM     15  C   UNL     1       3.677   1.840  18.862  0.00  0.00    +0.000 C 
ATOM     16  C   UNL     1       4.139   3.215  19.373  0.00  0.00    +0.000 C 
ATOM     17  C   UNL     1       2.125   5.164  20.743  0.00  0.00    +0.000 A 
ATOM     18  C   UNL     1       1.526   6.265  21.364  0.00  0.00    +0.000 A 
ATOM     19  C   UNL     1       1.487   7.488  20.681  0.00  0.00    +0.000 A 
ENDROOT
BRANCH   1  24
ATOM     20  C   UNL     1       0.354  16.306  18.733  0.00  0.00    +0.000 C 
ATOM     21  C   UNL     1       0.485  14.804  18.491  0.00  0.00    +0.000 C 
ATOM     22  C   UNL     1      -0.785  14.076  18.940  0.00  0.00    +0.000 C 
ATOM     23  C   UNL     1      -0.671  12.564  18.739  0.00  0.00    +0.000 C 
ATOM     24  N   UNL     1       0.531  12.068  19.388  0.00  0.00    +0.000 N 
ATOM     25  C   UNL     1       1.803  12.715  19.055  0.00  0.00    +0.000 C 
ATOM     26  C   UNL     1       1.699  14.230  19.233  0.00  0.00    +0.000 C 
ENDBRANCH   1  24
BRANCH  17  27
ATOM     27  C   UNL     1       2.026   3.916  21.432  0.00  0.00    +0.000 C 
ATOM     28  N   UNL     1       1.919   2.913  22.007  0.00  0.00    +0.000 NA
ENDBRANCH  17  27
TORSDOF 2
ENDMDL
MODEL 7
REMARK VINA RESULT:      -7.2      2.921      4.883
REMARK  Name = 
REMARK  3 active torsions:
REMARK  status: ('A' for Active; 'I' for Inactive)
REMARK    1  A    between atoms: C_1  and  C_2
REMARK    2  A    between atoms: N_5  and  C_6
REMARK    3  A    between atoms: C_22  and  C_23
REMARK                            x       y       z     vdW  Elec       q    Type
REMARK                         _______ _______ _______ _____ _____    ______ ____
ROOT
ATOM      1  C   UNL     1       2.401   7.015  18.712  0.00  0.00    +0.000 A 
ATOM      2  N   UNL     1       2.933   7.381  17.508  0.00  0.00    +0.000 NA
ATOM      3  N   UNL     1       2.824   8.593  16.998  0.00  0.00    +0.000 NA
ATOM      4  N   UNL     1       2.229   9.525  17.582  0.00  0.00    +0.000 NA
ATOM      5  C   UNL     1       1.702   9.301  18.805  0.00  0.00    +0.000 A 
ATOM      6  C   UNL     1       1.771   8.055  19.415  0.00  0.00    +0.000 A 
ATOM      7  S   UNL     1       1.057   8.143  20.988  0.00  0.00    +0.000 S 
ATOM      8  C   UNL     1       0.603   9.769  20.796  0.00  0.00    +0.000 A 
ATOM      9  N   UNL     1      -0.086  10.424  21.752  0.00  0.00    +0.000 NA
ATOM     10  C   UNL     1      -0.395  11.720  21.509  0.00  0.00    +0.000 A 
ATOM     11  N   UNL     1      -1.163  12.360  22.460  0.00  0.00    +0.000 N 
ATOM     12  C   UNL     1      -2.004  11.585  23.387  0.00  0.00    +0.000 C 
ATOM     13  C   UNL     1      -3.352  12.324  23.532  0.00  0.00    +0.000 C 
ATOM     14  O   UNL     1      -3.184  13.697  23.936  0.00  0.00    +0.000 OA
ATOM     15  C   UNL     1      -2.340  14.408  23.009  0.00  0.00    +0.000 C 
ATOM     16  C   UNL     1      -0.958  13.739  22.927  0.00  0.00    +0.000 C 
ATOM     17  C   UNL     1      -0.017  12.340  20.302  0.00  0.00    +0.000 A 
ATOM     18  C   UNL     1       0.706  11.629  19.339  0.00  0.00    +0.000 A 
ATOM     19  C   UNL     1       1.021  10.286  19.586  0.00  0.00    +0.000 A 
ENDROOT
BRANCH   1  24
ATOM     20  C   UNL     1       1.328   2.475  21.682  0.00  0.00    +0.000 C 
ATOM     21  C   UNL     1       2.015   3.268  20.573  0.00  0.00    +0.000 C 
ATOM     22  C   UNL     1       2.844   4.411  21.165  0.00  0.00    +0.000 C 
ATOM     23  C   UNL     1       3.519   5.243  20.074  0.00  0.00    +0.000 C 
ATOM     24  N   UNL     1       2.529   5.696  19.112  0.00  0.00    +0.000 N 
ATOM     25  C   UNL     1       1.657   4.687  18.505  0.00  0.00    +0.000 C 
ATOM     26  C   UNL     1       0.988   3.834  19.583  0.00  0.00    +0.000 C 
ENDBRANCH   1  24
BRANCH  17  27
ATOM     27  C   UNL     1      -0.416  13.664  19.945  0.00  0.00    +0.000 C 
ATOM     28  N   UNL     1      -0.732  14.735  19.623  0.00  0.00    +0.000 NA
ENDBRANCH  17  27
TORSDOF 2
ENDMDL
MODEL 8
REMARK VINA RESULT:      -7.1      2.863      8.403
REMARK  Name = 
REMARK  3 active torsions:
REMARK  status: ('A' for Active; 'I' for Inactive)
REMARK    1  A    between atoms: C_1  and  C_2
REMARK    2  A    between atoms: N_5  and  C_6
REMARK    3  A    between atoms: C_22  and  C_23
REMARK                            x       y       z     vdW  Elec       q    Type
REMARK                         _______ _______ _______ _____ _____    ______ ____
ROOT
ATOM      1  C   UNL     1       0.233  10.109  19.980  0.00  0.00    +0.000 A 
ATOM      2  N   UNL     1      -0.287   9.668  21.163  0.00  0.00    +0.000 NA
ATOM      3  N   UNL     1       0.041   8.519  21.723  0.00  0.00    +0.000 NA
ATOM      4  N   UNL     1       0.872   7.730  21.222  0.00  0.00    +0.000 NA
ATOM      5  C   UNL     1       1.493   8.078  20.074  0.00  0.00    +0.000 A 
ATOM      6  C   UNL     1       1.208   9.268  19.418  0.00  0.00    +0.000 A 
ATOM      7  S   UNL     1       2.226   9.419  18.028  0.00  0.00    +0.000 S 
ATOM      8  C   UNL     1       2.943   7.897  18.270  0.00  0.00    +0.000 A 
ATOM      9  N   UNL     1       3.855   7.405  17.407  0.00  0.00    +0.000 NA
ATOM     10  C   UNL     1       4.375   6.187  17.691  0.00  0.00    +0.000 A 
ATOM     11  N   UNL     1       5.251   5.660  16.764  0.00  0.00    +0.000 N 
ATOM     12  C   UNL     1       5.230   6.122  15.367  0.00  0.00    +0.000 C 
ATOM     13  C   UNL     1       5.405   4.885  14.458  0.00  0.00    +0.000 C 
ATOM     14  O   UNL     1       6.587   4.128  14.784  0.00  0.00    +0.000 OA
ATOM     15  C   UNL     1       6.570   3.714  16.164  0.00  0.00    +0.000 C 
ATOM     16  C   UNL     1       6.495   4.943  17.086  0.00  0.00    +0.000 C 
ATOM     17  C   UNL     1       3.964   5.472  18.832  0.00  0.00    +0.000 A 
ATOM     18  C   UNL     1       3.022   6.022  19.708  0.00  0.00    +0.000 A 
ATOM     19  C   UNL     1       2.478   7.280  19.413  0.00  0.00    +0.000 A 
ENDROOT
BRANCH   1  24
ATOM     20  C   UNL     1      -1.241  15.439  20.018  0.00  0.00    +0.000 C 
ATOM     21  C   UNL     1      -0.987  14.083  19.366  0.00  0.00    +0.000 C 
ATOM     22  C   UNL     1      -1.900  13.015  19.976  0.00  0.00    +0.000 C 
ATOM     23  C   UNL     1      -1.646  11.637  19.364  0.00  0.00    +0.000 C 
ATOM     24  N   UNL     1      -0.235  11.304  19.462  0.00  0.00    +0.000 N 
ATOM     25  C   UNL     1       0.732  12.271  18.936  0.00  0.00    +0.000 C 
ATOM     26  C   UNL     1       0.479  13.660  19.525  0.00  0.00    +0.000 C 
ENDBRANCH   1  24
BRANCH  17  27
ATOM     27  C   UNL     1       4.391   4.139  19.116  0.00  0.00    +0.000 C 
ATOM     28  N   UNL     1       4.751   3.065  19.376  0.00  0.00    +0.000 NA
ENDBRANCH  17  27
TORSDOF 2
ENDMDL
MODEL 9
REMARK VINA RESULT:      -6.9      3.093      8.381
REMARK  Name = 
REMARK  3 active torsions:
REMARK  status: ('A' for Active; 'I' for Inactive)
REMARK    1  A    between atoms: C_1  and  C_2
REMARK    2  A    between atoms: N_5  and  C_6
REMARK    3  A    between atoms: C_22  and  C_23
REMARK                            x       y       z     vdW  Elec       q    Type
REMARK                         _______ _______ _______ _____ _____    ______ ____
ROOT
ATOM      1  C   UNL     1      -0.188   9.626  19.887  0.00  0.00    +0.000 A 
ATOM      2  N   UNL     1      -0.509   9.227  21.153  0.00  0.00    +0.000 NA
ATOM      3  N   UNL     1       0.102   8.244  21.787  0.00  0.00    +0.000 NA
ATOM      4  N   UNL     1       1.044   7.593  21.286  0.00  0.00    +0.000 NA
ATOM      5  C   UNL     1       1.487   7.926  20.054  0.00  0.00    +0.000 A 
ATOM      6  C   UNL     1       0.901   8.946  19.316  0.00  0.00    +0.000 A 
ATOM      7  S   UNL     1       1.755   9.143  17.825  0.00  0.00    +0.000 S 
ATOM      8  C   UNL     1       2.801   7.842  18.142  0.00  0.00    +0.000 A 
ATOM      9  N   UNL     1       3.731   7.454  17.246  0.00  0.00    +0.000 NA
ATOM     10  C   UNL     1       4.523   6.412  17.595  0.00  0.00    +0.000 A 
ATOM     11  N   UNL     1       5.421   5.974  16.642  0.00  0.00    +0.000 N 
ATOM     12  C   UNL     1       5.194   6.256  15.215  0.00  0.00    +0.000 C 
ATOM     13  C   UNL     1       5.565   4.986  14.418  0.00  0.00    +0.000 C 
ATOM     14  O   UNL     1       6.905   4.534  14.699  0.00  0.00    +0.000 OA
ATOM     15  C   UNL     1       7.082   4.290  16.108  0.00  0.00    +0.000 C 
ATOM     16  C   UNL     1       6.811   5.574  16.909  0.00  0.00    +0.000 C 
ATOM     17  C   UNL     1       4.364   5.765  18.835  0.00  0.00    +0.000 A 
ATOM     18  C   UNL     1       3.394   6.205  19.741  0.00  0.00    +0.000 A 
ATOM     19  C   UNL     1       2.570   7.279  19.381  0.00  0.00    +0.000 A 
ENDROOT
BRANCH   1  24
ATOM     20  C   UNL     1      -4.730  12.574  18.760  0.00  0.00    +0.000 C 
ATOM     21  C   UNL     1      -3.239  12.253  18.686  0.00  0.00    +0.000 C 
ATOM     22  C   UNL     1      -3.017  10.883  18.039  0.00  0.00    +0.000 C 
ATOM     23  C   UNL     1      -1.532  10.522  17.980  0.00  0.00    +0.000 C 
ATOM     24  N   UNL     1      -0.943  10.629  19.303  0.00  0.00    +0.000 N 
ATOM     25  C   UNL     1      -1.122  11.889  20.029  0.00  0.00    +0.000 C 
ATOM     26  C   UNL     1      -2.600  12.275  20.081  0.00  0.00    +0.000 C 
ENDBRANCH   1  24
BRANCH  17  27
ATOM     27  C   UNL     1       5.091   4.592  19.204  0.00  0.00    +0.000 C 
ATOM     28  N   UNL     1       5.654   3.619  19.501  0.00  0.00    +0.000 NA
ENDBRANCH  17  27
TORSDOF 2
ENDMDL
