MODEL 1
REMARK VINA RESULT:      -9.3      0.000      0.000
REMARK  Name = 
REMARK  7 active torsions:
REMARK  status: ('A' for Active; 'I' for Inactive)
REMARK    1  A    between atoms: C_1  and  O_2
REMARK    2  A    between atoms: O_2  and  C_3
REMARK    3  A    between atoms: C_12  and  O_13
REMARK    4  A    between atoms: O_13  and  C_14
REMARK    5  A    between atoms: C_14  and  C_15
REMARK    6  A    between atoms: C_15  and  O_16
REMARK    7  A    between atoms: O_16  and  C_17
REMARK                            x       y       z     vdW  Elec       q    Type
REMARK                         _______ _______ _______ _____ _____    ______ ____
ROOT
ATOM      1  C   UNL     1       3.427   3.808  19.332  0.00  0.00    +0.000 A 
ATOM      2  C   UNL     1       2.765   3.790  20.560  0.00  0.00    +0.000 A 
ATOM      3  C   UNL     1       2.092   4.915  21.024  0.00  0.00    +0.000 A 
ATOM      4  C   UNL     1       2.057   6.081  20.266  0.00  0.00    +0.000 A 
ATOM      5  C   UNL     1       1.413   7.210  20.765  0.00  0.00    +0.000 A 
ATOM      6  C   UNL     1       1.333   8.386  20.011  0.00  0.00    +0.000 A 
ATOM      7  N   UNL     1       1.911   8.412  18.778  0.00  0.00    +0.000 N 
ATOM      8  C   UNL     1       2.555   7.322  18.285  0.00  0.00    +0.000 A 
ATOM      9  C   UNL     1       2.657   6.116  19.000  0.00  0.00    +0.000 A 
ATOM     10  C   UNL     1       3.316   4.950  18.508  0.00  0.00    +0.000 A 
ATOM     11  C   UNL     1       1.766   9.596  17.889  0.00  0.00    +0.000 C 
ATOM     12  C   UNL     1       1.844  10.894  18.673  0.00  0.00    +0.000 C 
ATOM     13  C   UNL     1       0.897  10.857  19.839  0.00  0.00    +0.000 A 
ATOM     14  C   UNL     1       0.323  12.054  20.311  0.00  0.00    +0.000 A 
ATOM     15  C   UNL     1      -0.460  11.993  21.441  0.00  0.00    +0.000 A 
ATOM     16  C   UNL     1      -0.692  10.810  22.084  0.00  0.00    +0.000 A 
ATOM     17  C   UNL     1      -0.161   9.618  21.635  0.00  0.00    +0.000 A 
ATOM     18  C   UNL     1       0.673   9.616  20.495  0.00  0.00    +0.000 A 
ATOM     19  O   UNL     1      -1.465  10.958  23.192  0.00  0.00    +0.000 OA
ATOM     20  C   UNL     1      -1.638  12.392  23.210  0.00  0.00    +0.000 C 
ATOM     21  O   UNL     1      -1.064  13.043  22.054  0.00  0.00    +0.000 OA
ENDROOT
BRANCH   1  23
ATOM     22  C   UNL     1       3.445   1.695  18.226  0.00  0.00    +0.000 C 
ATOM     23  O   UNL     1       4.155   2.735  18.895  0.00  0.00    +0.000 OA
ENDBRANCH   1  23
BRANCH  10  24
ATOM     24  O   UNL     1       3.844   5.097  17.246  0.00  0.00    +0.000 OA
BRANCH  24  25
ATOM     25  C   UNL     1       5.172   5.611  17.100  0.00  0.00    +0.000 C 
BRANCH  25  26
ATOM     26  C   UNL     1       6.119   4.475  16.713  0.00  0.00    +0.000 C 
BRANCH  26  27
ATOM     27  O   UNL     1       5.582   3.839  15.556  0.00  0.00    +0.000 OA
BRANCH  27  28
ATOM     28  C   UNL     1       6.216   4.087  14.372  0.00  0.00    +0.000 A 
ATOM     29  C   UNL     1       5.708   3.389  13.274  0.00  0.00    +0.000 A 
ATOM     30  C   UNL     1       6.263   3.561  12.006  0.00  0.00    +0.000 A 
ATOM     31  C   UNL     1       7.320   4.450  11.827  0.00  0.00    +0.000 A 
ATOM     32  C   UNL     1       7.814   5.169  12.914  0.00  0.00    +0.000 A 
ATOM     33  C   UNL     1       7.263   4.990  14.186  0.00  0.00    +0.000 A 
ENDBRANCH  27  28
ENDBRANCH  26  27
ENDBRANCH  25  26
ENDBRANCH  24  25
ENDBRANCH  10  24
TORSDOF 6
ENDMDL
MODEL 2
REMARK VINA RESULT:      -9.1      1.393      2.420
REMARK  Name = 
REMARK  7 active torsions:
REMARK  status: ('A' for Active; 'I' for Inactive)
REMARK    1  A    between atoms: C_1  and  O_2
REMARK    2  A    between atoms: O_2  and  C_3
REMARK    3  A    between atoms: C_12  and  O_13
REMARK    4  A    between atoms: O_13  and  C_14
REMARK    5  A    between atoms: C_14  and  C_15
REMARK    6  A    between atoms: C_15  and  O_16
REMARK    7  A    between atoms: O_16  and  C_17
REMARK                            x       y       z     vdW  Elec       q    Type
REMARK                         _______ _______ _______ _____ _____    ______ ____
ROOT
ATOM      1  C   UNL     1       3.528   3.937  19.225  0.00  0.00    +0.000 A 
ATOM      2  C   UNL     1       2.876   3.893  20.458  0.00  0.00    +0.000 A 
ATOM      3  C   UNL     1       2.183   4.999  20.940  0.00  0.00    +0.000 A 
ATOM      4  C   UNL     1       2.119   6.172  20.194  0.00  0.00    +0.000 A 
ATOM      5  C   UNL     1       1.455   7.282  20.710  0.00  0.00    +0.000 A 
ATOM      6  C   UNL     1       1.345   8.464  19.969  0.00  0.00    +0.000 A 
ATOM      7  N   UNL     1       1.914   8.515  18.732  0.00  0.00    +0.000 N 
ATOM      8  C   UNL     1       2.576   7.443  18.222  0.00  0.00    +0.000 A 
ATOM      9  C   UNL     1       2.708   6.233  18.924  0.00  0.00    +0.000 A 
ATOM     10  C   UNL     1       3.387   5.086  18.415  0.00  0.00    +0.000 A 
ATOM     11  C   UNL     1       1.738   9.705  17.857  0.00  0.00    +0.000 C 
ATOM     12  C   UNL     1       1.795  10.996  18.654  0.00  0.00    +0.000 C 
ATOM     13  C   UNL     1       0.859  10.927  19.827  0.00  0.00    +0.000 A 
ATOM     14  C   UNL     1       0.264  12.107  20.316  0.00  0.00    +0.000 A 
ATOM     15  C   UNL     1      -0.509  12.018  21.452  0.00  0.00    +0.000 A 
ATOM     16  C   UNL     1      -0.712  10.824  22.083  0.00  0.00    +0.000 A 
ATOM     17  C   UNL     1      -0.160   9.648  21.618  0.00  0.00    +0.000 A 
ATOM     18  C   UNL     1       0.665   9.676  20.471  0.00  0.00    +0.000 A 
ATOM     19  O   UNL     1      -1.480  10.944  23.198  0.00  0.00    +0.000 OA
ATOM     20  C   UNL     1      -1.682  12.374  23.234  0.00  0.00    +0.000 C 
ATOM     21  O   UNL     1      -1.130  13.049  22.081  0.00  0.00    +0.000 OA
ENDROOT
BRANCH   1  23
ATOM     22  C   UNL     1       4.151   1.649  19.473  0.00  0.00    +0.000 C 
ATOM     23  O   UNL     1       4.274   2.884  18.772  0.00  0.00    +0.000 OA
ENDBRANCH   1  23
BRANCH  10  24
ATOM     24  O   UNL     1       3.902   5.257  17.151  0.00  0.00    +0.000 OA
BRANCH  24  25
ATOM     25  C   UNL     1       4.265   4.106  16.382  0.00  0.00    +0.000 C 
BRANCH  25  26
ATOM     26  C   UNL     1       5.379   4.477  15.402  0.00  0.00    +0.000 C 
BRANCH  26  27
ATOM     27  O   UNL     1       6.622   4.144  16.015  0.00  0.00    +0.000 OA
BRANCH  27  28
ATOM     28  C   UNL     1       7.105   5.027  16.938  0.00  0.00    +0.000 A 
ATOM     29  C   UNL     1       7.135   6.359  16.521  0.00  0.00    +0.000 A 
ATOM     30  C   UNL     1       7.598   7.360  17.376  0.00  0.00    +0.000 A 
ATOM     31  C   UNL     1       8.017   7.032  18.663  0.00  0.00    +0.000 A 
ATOM     32  C   UNL     1       7.964   5.707  19.094  0.00  0.00    +0.000 A 
ATOM     33  C   UNL     1       7.508   4.704  18.234  0.00  0.00    +0.000 A 
ENDBRANCH  27  28
ENDBRANCH  26  27
ENDBRANCH  25  26
ENDBRANCH  24  25
ENDBRANCH  10  24
TORSDOF 6
ENDMDL
MODEL 3
REMARK VINA RESULT:      -8.4      2.898      9.972
REMARK  Name = 
REMARK  7 active torsions:
REMARK  status: ('A' for Active; 'I' for Inactive)
REMARK    1  A    between atoms: C_1  and  O_2
REMARK    2  A    between atoms: O_2  and  C_3
REMARK    3  A    between atoms: C_12  and  O_13
REMARK    4  A    between atoms: O_13  and  C_14
REMARK    5  A    between atoms: C_14  and  C_15
REMARK    6  A    between atoms: C_15  and  O_16
REMARK    7  A    between atoms: O_16  and  C_17
REMARK                            x       y       z     vdW  Elec       q    Type
REMARK                         _______ _______ _______ _____ _____    ______ ____
ROOT
ATOM      1  C   UNL     1      -1.015  11.493  22.377  0.00  0.00    +0.000 A 
ATOM      2  C   UNL     1      -0.966  10.397  23.240  0.00  0.00    +0.000 A 
ATOM      3  C   UNL     1      -0.305   9.229  22.873  0.00  0.00    +0.000 A 
ATOM      4  C   UNL     1       0.331   9.134  21.639  0.00  0.00    +0.000 A 
ATOM      5  C   UNL     1       0.952   7.944  21.272  0.00  0.00    +0.000 A 
ATOM      6  C   UNL     1       1.628   7.829  20.053  0.00  0.00    +0.000 A 
ATOM      7  N   UNL     1       1.656   8.906  19.218  0.00  0.00    +0.000 N 
ATOM      8  C   UNL     1       1.041  10.069  19.557  0.00  0.00    +0.000 A 
ATOM      9  C   UNL     1       0.356  10.236  20.773  0.00  0.00    +0.000 A 
ATOM     10  C   UNL     1      -0.291  11.446  21.165  0.00  0.00    +0.000 A 
ATOM     11  C   UNL     1       2.447   8.878  17.959  0.00  0.00    +0.000 C 
ATOM     12  C   UNL     1       2.359   7.526  17.275  0.00  0.00    +0.000 C 
ATOM     13  C   UNL     1       2.678   6.427  18.249  0.00  0.00    +0.000 A 
ATOM     14  C   UNL     1       3.266   5.233  17.787  0.00  0.00    +0.000 A 
ATOM     15  C   UNL     1       3.452   4.212  18.691  0.00  0.00    +0.000 A 
ATOM     16  C   UNL     1       3.095   4.348  20.002  0.00  0.00    +0.000 A 
ATOM     17  C   UNL     1       2.535   5.512  20.490  0.00  0.00    +0.000 A 
ATOM     18  C   UNL     1       2.294   6.588  19.607  0.00  0.00    +0.000 A 
ATOM     19  O   UNL     1       3.333   3.225  20.730  0.00  0.00    +0.000 OA
ATOM     20  C   UNL     1       3.822   2.337  19.702  0.00  0.00    +0.000 C 
ATOM     21  O   UNL     1       3.972   2.987  18.420  0.00  0.00    +0.000 OA
ENDROOT
BRANCH   1  23
ATOM     22  C   UNL     1      -3.066  12.443  23.136  0.00  0.00    +0.000 C 
ATOM     23  O   UNL     1      -1.723  12.620  22.692  0.00  0.00    +0.000 OA
ENDBRANCH   1  23
BRANCH  10  24
ATOM     24  O   UNL     1      -0.177  12.462  20.246  0.00  0.00    +0.000 OA
BRANCH  24  25
ATOM     25  C   UNL     1      -1.340  12.888  19.526  0.00  0.00    +0.000 C 
BRANCH  25  26
ATOM     26  C   UNL     1      -2.214  11.676  19.205  0.00  0.00    +0.000 C 
BRANCH  26  27
ATOM     27  O   UNL     1      -3.272  12.118  18.357  0.00  0.00    +0.000 OA
BRANCH  27  28
ATOM     28  C   UNL     1      -4.541  11.800  18.746  0.00  0.00    +0.000 A 
ATOM     29  C   UNL     1      -4.960  12.397  19.938  0.00  0.00    +0.000 A 
ATOM     30  C   UNL     1      -6.241  12.159  20.437  0.00  0.00    +0.000 A 
ATOM     31  C   UNL     1      -7.117  11.336  19.734  0.00  0.00    +0.000 A 
ATOM     32  C   UNL     1      -6.714  10.761  18.531  0.00  0.00    +0.000 A 
ATOM     33  C   UNL     1      -5.428  10.992  18.035  0.00  0.00    +0.000 A 
ENDBRANCH  27  28
ENDBRANCH  26  27
ENDBRANCH  25  26
ENDBRANCH  24  25
ENDBRANCH  10  24
TORSDOF 6
ENDMDL
MODEL 4
REMARK VINA RESULT:      -8.4      2.957      9.790
REMARK  Name = 
REMARK  7 active torsions:
REMARK  status: ('A' for Active; 'I' for Inactive)
REMARK    1  A    between atoms: C_1  and  O_2
REMARK    2  A    between atoms: O_2  and  C_3
REMARK    3  A    between atoms: C_12  and  O_13
REMARK    4  A    between atoms: O_13  and  C_14
REMARK    5  A    between atoms: C_14  and  C_15
REMARK    6  A    between atoms: C_15  and  O_16
REMARK    7  A    between atoms: O_16  and  C_17
REMARK                            x       y       z     vdW  Elec       q    Type
REMARK                         _______ _______ _______ _____ _____    ______ ____
ROOT
ATOM      1  C   UNL     1      -1.106  11.524  22.562  0.00  0.00    +0.000 A 
ATOM      2  C   UNL     1      -0.999  10.413  23.399  0.00  0.00    +0.000 A 
ATOM      3  C   UNL     1      -0.309   9.275  22.991  0.00  0.00    +0.000 A 
ATOM      4  C   UNL     1       0.297   9.227  21.740  0.00  0.00    +0.000 A 
ATOM      5  C   UNL     1       0.948   8.066  21.332  0.00  0.00    +0.000 A 
ATOM      6  C   UNL     1       1.595   7.999  20.094  0.00  0.00    +0.000 A 
ATOM      7  N   UNL     1       1.566   9.093  19.282  0.00  0.00    +0.000 N 
ATOM      8  C   UNL     1       0.923  10.228  19.662  0.00  0.00    +0.000 A 
ATOM      9  C   UNL     1       0.264  10.346  20.898  0.00  0.00    +0.000 A 
ATOM     10  C   UNL     1      -0.412  11.526  21.332  0.00  0.00    +0.000 A 
ATOM     11  C   UNL     1       2.326   9.118  18.004  0.00  0.00    +0.000 C 
ATOM     12  C   UNL     1       2.264   7.777  17.293  0.00  0.00    +0.000 C 
ATOM     13  C   UNL     1       2.644   6.669  18.235  0.00  0.00    +0.000 A 
ATOM     14  C   UNL     1       3.259   5.506  17.733  0.00  0.00    +0.000 A 
ATOM     15  C   UNL     1       3.501   4.473  18.610  0.00  0.00    +0.000 A 
ATOM     16  C   UNL     1       3.173   4.571  19.932  0.00  0.00    +0.000 A 
ATOM     17  C   UNL     1       2.588   5.704  20.459  0.00  0.00    +0.000 A 
ATOM     18  C   UNL     1       2.290   6.790  19.606  0.00  0.00    +0.000 A 
ATOM     19  O   UNL     1       3.466   3.441  20.630  0.00  0.00    +0.000 OA
ATOM     20  C   UNL     1       3.958   2.590  19.571  0.00  0.00    +0.000 C 
ATOM     21  O   UNL     1       4.053   3.272  18.300  0.00  0.00    +0.000 OA
ENDROOT
BRANCH   1  23
ATOM     22  C   UNL     1      -3.146  12.386  23.445  0.00  0.00    +0.000 C 
ATOM     23  O   UNL     1      -1.842  12.620  22.918  0.00  0.00    +0.000 OA
ENDBRANCH   1  23
BRANCH  10  24
ATOM     24  O   UNL     1      -0.355  12.565  20.432  0.00  0.00    +0.000 OA
BRANCH  24  25
ATOM     25  C   UNL     1       0.608  13.606  20.625  0.00  0.00    +0.000 C 
BRANCH  25  26
ATOM     26  C   UNL     1       0.926  14.264  19.283  0.00  0.00    +0.000 C 
BRANCH  26  27
ATOM     27  O   UNL     1       1.335  15.604  19.544  0.00  0.00    +0.000 OA
BRANCH  27  28
ATOM     28  C   UNL     1       1.060  16.528  18.577  0.00  0.00    +0.000 A 
ATOM     29  C   UNL     1      -0.280  16.914  18.495  0.00  0.00    +0.000 A 
ATOM     30  C   UNL     1      -0.689  17.859  17.553  0.00  0.00    +0.000 A 
ATOM     31  C   UNL     1       0.248  18.437  16.700  0.00  0.00    +0.000 A 
ATOM     32  C   UNL     1       1.590  18.075  16.796  0.00  0.00    +0.000 A 
ATOM     33  C   UNL     1       1.998  17.122  17.733  0.00  0.00    +0.000 A 
ENDBRANCH  27  28
ENDBRANCH  26  27
ENDBRANCH  25  26
ENDBRANCH  24  25
ENDBRANCH  10  24
TORSDOF 6
ENDMDL
MODEL 5
REMARK VINA RESULT:      -8.4      0.720      1.105
REMARK  Name = 
REMARK  7 active torsions:
REMARK  status: ('A' for Active; 'I' for Inactive)
REMARK    1  A    between atoms: C_1  and  O_2
REMARK    2  A    between atoms: O_2  and  C_3
REMARK    3  A    between atoms: C_12  and  O_13
REMARK    4  A    between atoms: O_13  and  C_14
REMARK    5  A    between atoms: C_14  and  C_15
REMARK    6  A    between atoms: C_15  and  O_16
REMARK    7  A    between atoms: O_16  and  C_17
REMARK                            x       y       z     vdW  Elec       q    Type
REMARK                         _______ _______ _______ _____ _____    ______ ____
ROOT
ATOM      1  C   UNL     1       2.883   4.088  19.487  0.00  0.00    +0.000 A 
ATOM      2  C   UNL     1       2.278   4.170  20.742  0.00  0.00    +0.000 A 
ATOM      3  C   UNL     1       1.730   5.367  21.193  0.00  0.00    +0.000 A 
ATOM      4  C   UNL     1       1.767   6.506  20.396  0.00  0.00    +0.000 A 
ATOM      5  C   UNL     1       1.250   7.704  20.881  0.00  0.00    +0.000 A 
ATOM      6  C   UNL     1       1.242   8.858  20.090  0.00  0.00    +0.000 A 
ATOM      7  N   UNL     1       1.764   8.792  18.833  0.00  0.00    +0.000 N 
ATOM      8  C   UNL     1       2.284   7.632  18.352  0.00  0.00    +0.000 A 
ATOM      9  C   UNL     1       2.309   6.446  19.105  0.00  0.00    +0.000 A 
ATOM     10  C   UNL     1       2.838   5.209  18.628  0.00  0.00    +0.000 A 
ATOM     11  C   UNL     1       1.686   9.956  17.909  0.00  0.00    +0.000 C 
ATOM     12  C   UNL     1       1.916  11.265  18.642  0.00  0.00    +0.000 C 
ATOM     13  C   UNL     1       1.024  11.352  19.848  0.00  0.00    +0.000 A 
ATOM     14  C   UNL     1       0.582  12.610  20.301  0.00  0.00    +0.000 A 
ATOM     15  C   UNL     1      -0.152  12.658  21.464  0.00  0.00    +0.000 A 
ATOM     16  C   UNL     1      -0.460  11.522  22.158  0.00  0.00    +0.000 A 
ATOM     17  C   UNL     1      -0.060  10.272  21.730  0.00  0.00    +0.000 A 
ATOM     18  C   UNL     1       0.718  10.159  20.557  0.00  0.00    +0.000 A 
ATOM     19  O   UNL     1      -1.167  11.775  23.291  0.00  0.00    +0.000 OA
ATOM     20  C   UNL     1      -1.209  13.219  23.266  0.00  0.00    +0.000 C 
ATOM     21  O   UNL     1      -0.631  13.778  22.064  0.00  0.00    +0.000 OA
ENDROOT
BRANCH   1  23
ATOM     22  C   UNL     1       4.481   2.370  19.912  0.00  0.00    +0.000 C 
ATOM     23  O   UNL     1       3.491   2.940  19.059  0.00  0.00    +0.000 OA
ENDBRANCH   1  23
BRANCH  10  24
ATOM     24  O   UNL     1       3.319   5.268  17.341  0.00  0.00    +0.000 OA
BRANCH  24  25
ATOM     25  C   UNL     1       4.705   4.999  17.100  0.00  0.00    +0.000 C 
BRANCH  25  26
ATOM     26  C   UNL     1       4.836   3.906  16.039  0.00  0.00    +0.000 C 
BRANCH  26  27
ATOM     27  O   UNL     1       6.216   3.800  15.697  0.00  0.00    +0.000 OA
BRANCH  27  28
ATOM     28  C   UNL     1       6.543   4.034  14.392  0.00  0.00    +0.000 A 
ATOM     29  C   UNL     1       7.457   5.070  14.190  0.00  0.00    +0.000 A 
ATOM     30  C   UNL     1       7.879   5.402  12.902  0.00  0.00    +0.000 A 
ATOM     31  C   UNL     1       7.401   4.684  11.809  0.00  0.00    +0.000 A 
ATOM     32  C   UNL     1       6.509   3.631  12.008  0.00  0.00    +0.000 A 
ATOM     33  C   UNL     1       6.079   3.304  13.297  0.00  0.00    +0.000 A 
ENDBRANCH  27  28
ENDBRANCH  26  27
ENDBRANCH  25  26
ENDBRANCH  24  25
ENDBRANCH  10  24
TORSDOF 6
ENDMDL
MODEL 6
REMARK VINA RESULT:      -8.4      2.893      9.769
REMARK  Name = 
REMARK  7 active torsions:
REMARK  status: ('A' for Active; 'I' for Inactive)
REMARK    1  A    between atoms: C_1  and  O_2
REMARK    2  A    between atoms: O_2  and  C_3
REMARK    3  A    between atoms: C_12  and  O_13
REMARK    4  A    between atoms: O_13  and  C_14
REMARK    5  A    between atoms: C_14  and  C_15
REMARK    6  A    between atoms: C_15  and  O_16
REMARK    7  A    between atoms: O_16  and  C_17
REMARK                            x       y       z     vdW  Elec       q    Type
REMARK                         _______ _______ _______ _____ _____    ______ ____
ROOT
ATOM      1  C   UNL     1      -0.963  11.511  22.390  0.00  0.00    +0.000 A 
ATOM      2  C   UNL     1      -0.959  10.400  23.234  0.00  0.00    +0.000 A 
ATOM      3  C   UNL     1      -0.316   9.223  22.862  0.00  0.00    +0.000 A 
ATOM      4  C   UNL     1       0.345   9.135  21.640  0.00  0.00    +0.000 A 
ATOM      5  C   UNL     1       0.947   7.936  21.267  0.00  0.00    +0.000 A 
ATOM      6  C   UNL     1       1.647   7.827  20.061  0.00  0.00    +0.000 A 
ATOM      7  N   UNL     1       1.719   8.916  19.246  0.00  0.00    +0.000 N 
ATOM      8  C   UNL     1       1.124  10.088  19.592  0.00  0.00    +0.000 A 
ATOM      9  C   UNL     1       0.415  10.250  20.795  0.00  0.00    +0.000 A 
ATOM     10  C   UNL     1      -0.212  11.468  21.194  0.00  0.00    +0.000 A 
ATOM     11  C   UNL     1       2.539   8.892  18.005  0.00  0.00    +0.000 C 
ATOM     12  C   UNL     1       2.435   7.553  17.296  0.00  0.00    +0.000 C 
ATOM     13  C   UNL     1       2.706   6.431  18.257  0.00  0.00    +0.000 A 
ATOM     14  C   UNL     1       3.277   5.232  17.788  0.00  0.00    +0.000 A 
ATOM     15  C   UNL     1       3.419   4.191  18.678  0.00  0.00    +0.000 A 
ATOM     16  C   UNL     1       3.035   4.314  19.983  0.00  0.00    +0.000 A 
ATOM     17  C   UNL     1       2.491   5.482  20.479  0.00  0.00    +0.000 A 
ATOM     18  C   UNL     1       2.295   6.578  19.610  0.00  0.00    +0.000 A 
ATOM     19  O   UNL     1       3.230   3.173  20.696  0.00  0.00    +0.000 OA
ATOM     20  C   UNL     1       3.722   2.291  19.664  0.00  0.00    +0.000 C 
ATOM     21  O   UNL     1       3.916   2.959  18.397  0.00  0.00    +0.000 OA
ENDROOT
BRANCH   1  23
ATOM     22  C   UNL     1      -2.954  12.489  23.266  0.00  0.00    +0.000 C 
ATOM     23  O   UNL     1      -1.651  12.650  22.708  0.00  0.00    +0.000 OA
ENDBRANCH   1  23
BRANCH  10  24
ATOM     24  O   UNL     1      -0.054  12.497  20.295  0.00  0.00    +0.000 OA
BRANCH  24  25
ATOM     25  C   UNL     1      -1.210  13.054  19.659  0.00  0.00    +0.000 C 
BRANCH  25  26
ATOM     26  C   UNL     1      -1.603  12.187  18.463  0.00  0.00    +0.000 C 
BRANCH  26  27
ATOM     27  O   UNL     1      -2.676  11.343  18.875  0.00  0.00    +0.000 OA
BRANCH  27  28
ATOM     28  C   UNL     1      -3.940  11.817  18.673  0.00  0.00    +0.000 A 
ATOM     29  C   UNL     1      -4.410  11.705  17.363  0.00  0.00    +0.000 A 
ATOM     30  C   UNL     1      -5.691  12.146  17.029  0.00  0.00    +0.000 A 
ATOM     31  C   UNL     1      -6.517  12.684  18.013  0.00  0.00    +0.000 A 
ATOM     32  C   UNL     1      -6.063  12.773  19.328  0.00  0.00    +0.000 A 
ATOM     33  C   UNL     1      -4.777  12.340  19.660  0.00  0.00    +0.000 A 
ENDBRANCH  27  28
ENDBRANCH  26  27
ENDBRANCH  25  26
ENDBRANCH  24  25
ENDBRANCH  10  24
TORSDOF 6
ENDMDL
MODEL 7
REMARK VINA RESULT:      -8.3      2.929      8.929
REMARK  Name = 
REMARK  7 active torsions:
REMARK  status: ('A' for Active; 'I' for Inactive)
REMARK    1  A    between atoms: C_1  and  O_2
REMARK    2  A    between atoms: O_2  and  C_3
REMARK    3  A    between atoms: C_12  and  O_13
REMARK    4  A    between atoms: O_13  and  C_14
REMARK    5  A    between atoms: C_14  and  C_15
REMARK    6  A    between atoms: C_15  and  O_16
REMARK    7  A    between atoms: O_16  and  C_17
REMARK                            x       y       z     vdW  Elec       q    Type
REMARK                         _______ _______ _______ _____ _____    ______ ____
ROOT
ATOM      1  C   UNL     1      -1.092  11.680  22.468  0.00  0.00    +0.000 A 
ATOM      2  C   UNL     1      -1.133  10.542  23.274  0.00  0.00    +0.000 A 
ATOM      3  C   UNL     1      -0.490   9.370  22.888  0.00  0.00    +0.000 A 
ATOM      4  C   UNL     1       0.217   9.313  21.691  0.00  0.00    +0.000 A 
ATOM      5  C   UNL     1       0.820   8.120  21.301  0.00  0.00    +0.000 A 
ATOM      6  C   UNL     1       1.565   8.042  20.120  0.00  0.00    +0.000 A 
ATOM      7  N   UNL     1       1.679   9.156  19.344  0.00  0.00    +0.000 N 
ATOM      8  C   UNL     1       1.084  10.323  19.706  0.00  0.00    +0.000 A 
ATOM      9  C   UNL     1       0.332  10.454  20.885  0.00  0.00    +0.000 A 
ATOM     10  C   UNL     1      -0.297  11.666  21.300  0.00  0.00    +0.000 A 
ATOM     11  C   UNL     1       2.546   9.162  18.135  0.00  0.00    +0.000 C 
ATOM     12  C   UNL     1       2.454   7.848  17.379  0.00  0.00    +0.000 C 
ATOM     13  C   UNL     1       2.676   6.692  18.312  0.00  0.00    +0.000 A 
ATOM     14  C   UNL     1       3.252   5.502  17.825  0.00  0.00    +0.000 A 
ATOM     15  C   UNL     1       3.347   4.432  18.686  0.00  0.00    +0.000 A 
ATOM     16  C   UNL     1       2.915   4.516  19.978  0.00  0.00    +0.000 A 
ATOM     17  C   UNL     1       2.366   5.674  20.491  0.00  0.00    +0.000 A 
ATOM     18  C   UNL     1       2.215   6.800  19.652  0.00  0.00    +0.000 A 
ATOM     19  O   UNL     1       3.070   3.351  20.661  0.00  0.00    +0.000 OA
ATOM     20  C   UNL     1       3.592   2.496  19.620  0.00  0.00    +0.000 C 
ATOM     21  O   UNL     1       3.841   3.203  18.384  0.00  0.00    +0.000 OA
ENDROOT
BRANCH   1  23
ATOM     22  C   UNL     1      -1.070  13.822  23.516  0.00  0.00    +0.000 C 
ATOM     23  O   UNL     1      -1.780  12.816  22.797  0.00  0.00    +0.000 OA
ENDBRANCH   1  23
BRANCH  10  24
ATOM     24  O   UNL     1      -0.093  12.722  20.442  0.00  0.00    +0.000 OA
BRANCH  24  25
ATOM     25  C   UNL     1      -1.217  13.313  19.782  0.00  0.00    +0.000 C 
BRANCH  25  26
ATOM     26  C   UNL     1      -1.373  12.701  18.390  0.00  0.00    +0.000 C 
BRANCH  26  27
ATOM     27  O   UNL     1      -2.356  11.673  18.477  0.00  0.00    +0.000 OA
BRANCH  27  28
ATOM     28  C   UNL     1      -2.799  11.147  17.297  0.00  0.00    +0.000 A 
ATOM     29  C   UNL     1      -2.029  10.095  16.795  0.00  0.00    +0.000 A 
ATOM     30  C   UNL     1      -2.381   9.466  15.601  0.00  0.00    +0.000 A 
ATOM     31  C   UNL     1      -3.520   9.876  14.911  0.00  0.00    +0.000 A 
ATOM     32  C   UNL     1      -4.306  10.907  15.421  0.00  0.00    +0.000 A 
ATOM     33  C   UNL     1      -3.948  11.543  16.614  0.00  0.00    +0.000 A 
ENDBRANCH  27  28
ENDBRANCH  26  27
ENDBRANCH  25  26
ENDBRANCH  24  25
ENDBRANCH  10  24
TORSDOF 6
ENDMDL
MODEL 8
REMARK VINA RESULT:      -8.3      1.856     10.600
REMARK  Name = 
REMARK  7 active torsions:
REMARK  status: ('A' for Active; 'I' for Inactive)
REMARK    1  A    between atoms: C_1  and  O_2
REMARK    2  A    between atoms: O_2  and  C_3
REMARK    3  A    between atoms: C_12  and  O_13
REMARK    4  A    between atoms: O_13  and  C_14
REMARK    5  A    between atoms: C_14  and  C_15
REMARK    6  A    between atoms: C_15  and  O_16
REMARK    7  A    between atoms: O_16  and  C_17
REMARK                            x       y       z     vdW  Elec       q    Type
REMARK                         _______ _______ _______ _____ _____    ______ ____
ROOT
ATOM      1  C   UNL     1      -0.006  10.872  19.644  0.00  0.00    +0.000 A 
ATOM      2  C   UNL     1       0.572  11.241  18.429  0.00  0.00    +0.000 A 
ATOM      3  C   UNL     1       1.495  10.413  17.797  0.00  0.00    +0.000 A 
ATOM      4  C   UNL     1       1.853   9.193  18.362  0.00  0.00    +0.000 A 
ATOM      5  C   UNL     1       2.808   8.397  17.735  0.00  0.00    +0.000 A 
ATOM      6  C   UNL     1       3.164   7.151  18.262  0.00  0.00    +0.000 A 
ATOM      7  N   UNL     1       2.566   6.732  19.412  0.00  0.00    +0.000 N 
ATOM      8  C   UNL     1       1.642   7.506  20.041  0.00  0.00    +0.000 A 
ATOM      9  C   UNL     1       1.247   8.761  19.549  0.00  0.00    +0.000 A 
ATOM     10  C   UNL     1       0.273   9.594  20.177  0.00  0.00    +0.000 A 
ATOM     11  C   UNL     1       2.824   5.373  19.959  0.00  0.00    +0.000 C 
ATOM     12  C   UNL     1       4.282   4.977  19.801  0.00  0.00    +0.000 C 
ATOM     13  C   UNL     1       4.728   5.185  18.381  0.00  0.00    +0.000 A 
ATOM     14  C   UNL     1       5.734   4.363  17.839  0.00  0.00    +0.000 A 
ATOM     15  C   UNL     1       6.186   4.646  16.569  0.00  0.00    +0.000 A 
ATOM     16  C   UNL     1       5.669   5.682  15.845  0.00  0.00    +0.000 A 
ATOM     17  C   UNL     1       4.667   6.493  16.340  0.00  0.00    +0.000 A 
ATOM     18  C   UNL     1       4.179   6.270  17.647  0.00  0.00    +0.000 A 
ATOM     19  O   UNL     1       6.260   5.818  14.628  0.00  0.00    +0.000 OA
ATOM     20  C   UNL     1       7.264   4.782  14.699  0.00  0.00    +0.000 C 
ATOM     21  O   UNL     1       7.167   3.986  15.902  0.00  0.00    +0.000 OA
ENDROOT
BRANCH   1  23
ATOM     22  C   UNL     1      -1.771  12.472  19.530  0.00  0.00    +0.000 C 
ATOM     23  O   UNL     1      -0.858  11.707  20.314  0.00  0.00    +0.000 OA
ENDBRANCH   1  23
BRANCH  10  24
ATOM     24  O   UNL     1      -0.269   9.054  21.320  0.00  0.00    +0.000 OA
BRANCH  24  25
ATOM     25  C   UNL     1       0.164   9.538  22.596  0.00  0.00    +0.000 C 
BRANCH  25  26
ATOM     26  C   UNL     1      -0.968  10.327  23.254  0.00  0.00    +0.000 C 
BRANCH  26  27
ATOM     27  O   UNL     1      -0.578  11.698  23.286  0.00  0.00    +0.000 OA
BRANCH  27  28
ATOM     28  C   UNL     1      -1.582  12.618  23.391  0.00  0.00    +0.000 A 
ATOM     29  C   UNL     1      -2.873  12.085  23.385  0.00  0.00    +0.000 A 
ATOM     30  C   UNL     1      -3.985  12.920  23.495  0.00  0.00    +0.000 A 
ATOM     31  C   UNL     1      -3.808  14.295  23.631  0.00  0.00    +0.000 A 
ATOM     32  C   UNL     1      -2.522  14.829  23.665  0.00  0.00    +0.000 A 
ATOM     33  C   UNL     1      -1.408  13.993  23.545  0.00  0.00    +0.000 A 
ENDBRANCH  27  28
ENDBRANCH  26  27
ENDBRANCH  25  26
ENDBRANCH  24  25
ENDBRANCH  10  24
TORSDOF 6
ENDMDL
MODEL 9
REMARK VINA RESULT:      -8.1      2.889      9.123
REMARK  Name = 
REMARK  7 active torsions:
REMARK  status: ('A' for Active; 'I' for Inactive)
REMARK    1  A    between atoms: C_1  and  O_2
REMARK    2  A    between atoms: O_2  and  C_3
REMARK    3  A    between atoms: C_12  and  O_13
REMARK    4  A    between atoms: O_13  and  C_14
REMARK    5  A    between atoms: C_14  and  C_15
REMARK    6  A    between atoms: C_15  and  O_16
REMARK    7  A    between atoms: O_16  and  C_17
REMARK                            x       y       z     vdW  Elec       q    Type
REMARK                         _______ _______ _______ _____ _____    ______ ____
ROOT
ATOM      1  C   UNL     1      -1.122  11.540  22.547  0.00  0.00    +0.000 A 
ATOM      2  C   UNL     1      -1.099  10.397  23.346  0.00  0.00    +0.000 A 
ATOM      3  C   UNL     1      -0.428   9.250  22.933  0.00  0.00    +0.000 A 
ATOM      4  C   UNL     1       0.243   9.224  21.715  0.00  0.00    +0.000 A 
ATOM      5  C   UNL     1       0.875   8.055  21.300  0.00  0.00    +0.000 A 
ATOM      6  C   UNL     1       1.586   8.009  20.096  0.00  0.00    +0.000 A 
ATOM      7  N   UNL     1       1.640   9.131  19.326  0.00  0.00    +0.000 N 
ATOM      8  C   UNL     1       1.016  10.275  19.713  0.00  0.00    +0.000 A 
ATOM      9  C   UNL     1       0.295  10.373  20.915  0.00  0.00    +0.000 A 
ATOM     10  C   UNL     1      -0.362  11.561  21.356  0.00  0.00    +0.000 A 
ATOM     11  C   UNL     1       2.469   9.174  18.091  0.00  0.00    +0.000 C 
ATOM     12  C   UNL     1       2.400   7.863  17.329  0.00  0.00    +0.000 C 
ATOM     13  C   UNL     1       2.689   6.709  18.247  0.00  0.00    +0.000 A 
ATOM     14  C   UNL     1       3.290   5.542  17.735  0.00  0.00    +0.000 A 
ATOM     15  C   UNL     1       3.447   4.471  18.585  0.00  0.00    +0.000 A 
ATOM     16  C   UNL     1       3.051   4.533  19.890  0.00  0.00    +0.000 A 
ATOM     17  C   UNL     1       2.478   5.668  20.427  0.00  0.00    +0.000 A 
ATOM     18  C   UNL     1       2.264   6.793  19.601  0.00  0.00    +0.000 A 
ATOM     19  O   UNL     1       3.266   3.369  20.560  0.00  0.00    +0.000 OA
ATOM     20  C   UNL     1       3.786   2.540  19.498  0.00  0.00    +0.000 C 
ATOM     21  O   UNL     1       3.974   3.262  18.260  0.00  0.00    +0.000 OA
ENDROOT
BRANCH   1  23
ATOM     22  C   UNL     1      -3.209  12.693  22.515  0.00  0.00    +0.000 C 
ATOM     23  O   UNL     1      -1.837  12.650  22.904  0.00  0.00    +0.000 OA
ENDBRANCH   1  23
BRANCH  10  24
ATOM     24  O   UNL     1      -0.220  12.628  20.500  0.00  0.00    +0.000 OA
BRANCH  24  25
ATOM     25  C   UNL     1      -1.142  12.782  19.416  0.00  0.00    +0.000 C 
BRANCH  25  26
ATOM     26  C   UNL     1      -0.457  13.516  18.263  0.00  0.00    +0.000 C 
BRANCH  26  27
ATOM     27  O   UNL     1       0.106  14.716  18.788  0.00  0.00    +0.000 OA
BRANCH  27  28
ATOM     28  C   UNL     1       1.444  14.903  18.588  0.00  0.00    +0.000 A 
ATOM     29  C   UNL     1       1.868  16.233  18.643  0.00  0.00    +0.000 A 
ATOM     30  C   UNL     1       3.213  16.555  18.464  0.00  0.00    +0.000 A 
ATOM     31  C   UNL     1       4.146  15.544  18.247  0.00  0.00    +0.000 A 
ATOM     32  C   UNL     1       3.732  14.213  18.218  0.00  0.00    +0.000 A 
ATOM     33  C   UNL     1       2.383  13.891  18.389  0.00  0.00    +0.000 A 
ENDBRANCH  27  28
ENDBRANCH  26  27
ENDBRANCH  25  26
ENDBRANCH  24  25
ENDBRANCH  10  24
TORSDOF 6
ENDMDL
