MODEL 1
REMARK VINA RESULT:      -9.0      0.000      0.000
REMARK  Name = 
REMARK  11 active torsions:
REMARK  status: ('A' for Active; 'I' for Inactive)
REMARK    1  A    between atoms: C_1  and  C_2
REMARK    2  A    between atoms: N_4  and  C_5
REMARK    3  A    between atoms: C_5  and  C_6
REMARK    4  A    between atoms: C_5  and  C_7
REMARK    5  A    between atoms: C_5  and  C_8
REMARK    6  A    between atoms: C_8  and  C_9
REMARK    7  A    between atoms: N_11  and  C_12
REMARK    8  A    between atoms: C_16  and  N_17
REMARK    9  A    between atoms: N_17  and  C_18
REMARK   10  A    between atoms: C_22  and  C_23
REMARK   11  A    between atoms: C_24  and  C_25
REMARK                            x       y       z     vdW  Elec       q    Type
REMARK                         _______ _______ _______ _____ _____    ______ ____
ROOT
ATOM      1  N   UNL     1       1.740   6.066  21.258  0.00  0.00    +0.000 N 
ATOM      2  H   UNL     1       2.051   6.236  22.211  0.00  0.00    +0.000 HD
ENDROOT
BRANCH   1   3
ATOM      3  C   UNL     1       1.498   7.300  20.616  0.00  0.00    +0.000 A 
ATOM      4  C   UNL     1       0.736   8.257  21.300  0.00  0.00    +0.000 A 
ATOM      5  C   UNL     1       0.525   9.541  20.781  0.00  0.00    +0.000 A 
ATOM      6  C   UNL     1       1.115   9.878  19.549  0.00  0.00    +0.000 A 
ATOM      7  C   UNL     1       1.213  11.046  18.736  0.00  0.00    +0.000 A 
ATOM      8  N   UNL     1       1.920  10.803  17.619  0.00  0.00    +0.000 NA
ATOM      9  N   UNL     1       2.309   9.527  17.747  0.00  0.00    +0.000 N 
ATOM     10  C   UNL     1       1.865   8.914  18.885  0.00  0.00    +0.000 A 
ATOM     11  C   UNL     1       2.084   7.626  19.386  0.00  0.00    +0.000 A 
ATOM     12  H   UNL     1       2.901   9.136  17.026  0.00  0.00    +0.000 HD
BRANCH   7  13
ATOM     13  C   UNL     1       0.734  12.353  19.101  0.00  0.00    +0.000 C 
ATOM     14  C   UNL     1       1.116  13.479  18.473  0.00  0.00    +0.000 C 
BRANCH  14  15
ATOM     15  C   UNL     1       0.892  14.859  18.929  0.00  0.00    +0.000 A 
ATOM     16  C   UNL     1      -0.440  15.245  19.150  0.00  0.00    +0.000 A 
ATOM     17  C   UNL     1      -0.763  16.553  19.506  0.00  0.00    +0.000 A 
ATOM     18  C   UNL     1       0.248  17.495  19.661  0.00  0.00    +0.000 A 
ATOM     19  C   UNL     1       1.579  17.122  19.475  0.00  0.00    +0.000 A 
ATOM     20  C   UNL     1       1.903  15.807  19.116  0.00  0.00    +0.000 A 
ENDBRANCH  14  15
ENDBRANCH   7  13
ENDBRANCH   1   3
BRANCH   1  25
ATOM     21  C   UNL     1       3.771   3.703  19.177  0.00  0.00    +0.000 A 
ATOM     22  C   UNL     1       3.127   2.503  19.497  0.00  0.00    +0.000 A 
ATOM     23  C   UNL     1       2.067   2.483  20.401  0.00  0.00    +0.000 A 
ATOM     24  C   UNL     1       1.637   3.664  20.993  0.00  0.00    +0.000 A 
ATOM     25  C   UNL     1       2.282   4.877  20.722  0.00  0.00    +0.000 A 
ATOM     26  C   UNL     1       3.363   4.880  19.821  0.00  0.00    +0.000 A 
BRANCH  21  29
ATOM     27  C   UNL     1       6.037   4.388  18.414  0.00  0.00    +0.000 C 
ATOM     28  O   UNL     1       6.432   4.894  19.465  0.00  0.00    +0.000 OA
ATOM     29  N   UNL     1       4.812   3.774  18.219  0.00  0.00    +0.000 N 
ATOM     30  H   UNL     1       4.712   3.206  17.385  0.00  0.00    +0.000 HD
BRANCH  27  31
ATOM     31  C   UNL     1       6.930   4.425  17.190  0.00  0.00    +0.000 C 
BRANCH  31  32
ATOM     32  C   UNL     1       6.795   5.742  16.388  0.00  0.00    +0.000 C 
ATOM     33  C   UNL     1       7.516   6.868  17.158  0.00  0.00    +0.000 C 
ATOM     34  C   UNL     1       5.312   6.155  16.269  0.00  0.00    +0.000 C 
BRANCH  32  38
ATOM     35  C   UNL     1       7.708   4.804  12.793  0.00  0.00    +0.000 C 
ATOM     36  C   UNL     1       6.936   4.732  14.079  0.00  0.00    +0.000 C 
ATOM     37  O   UNL     1       5.994   3.962  14.228  0.00  0.00    +0.000 OA
ATOM     38  N   UNL     1       7.358   5.636  15.028  0.00  0.00    +0.000 N 
ATOM     39  H   UNL     1       8.152   6.223  14.803  0.00  0.00    +0.000 HD
ENDBRANCH  32  38
ENDBRANCH  31  32
ENDBRANCH  27  31
ENDBRANCH  21  29
ENDBRANCH   1  25
TORSDOF 8
ENDMDL
MODEL 2
REMARK VINA RESULT:      -8.8      4.231     10.290
REMARK  Name = 
REMARK  11 active torsions:
REMARK  status: ('A' for Active; 'I' for Inactive)
REMARK    1  A    between atoms: C_1  and  C_2
REMARK    2  A    between atoms: N_4  and  C_5
REMARK    3  A    between atoms: C_5  and  C_6
REMARK    4  A    between atoms: C_5  and  C_7
REMARK    5  A    between atoms: C_5  and  C_8
REMARK    6  A    between atoms: C_8  and  C_9
REMARK    7  A    between atoms: N_11  and  C_12
REMARK    8  A    between atoms: C_16  and  N_17
REMARK    9  A    between atoms: N_17  and  C_18
REMARK   10  A    between atoms: C_22  and  C_23
REMARK   11  A    between atoms: C_24  and  C_25
REMARK                            x       y       z     vdW  Elec       q    Type
REMARK                         _______ _______ _______ _____ _____    ______ ____
ROOT
ATOM      1  N   UNL     1       1.531   7.010  21.229  0.00  0.00    +0.000 N 
ATOM      2  H   UNL     1       1.023   6.448  21.906  0.00  0.00    +0.000 HD
ENDROOT
BRANCH   1   3
ATOM      3  C   UNL     1       2.007   6.177  20.191  0.00  0.00    +0.000 A 
ATOM      4  C   UNL     1       2.957   6.706  19.308  0.00  0.00    +0.000 A 
ATOM      5  C   UNL     1       3.553   5.925  18.309  0.00  0.00    +0.000 A 
ATOM      6  C   UNL     1       3.198   4.567  18.212  0.00  0.00    +0.000 A 
ATOM      7  C   UNL     1       3.604   3.447  17.426  0.00  0.00    +0.000 A 
ATOM      8  N   UNL     1       2.912   2.344  17.759  0.00  0.00    +0.000 NA
ATOM      9  N   UNL     1       2.127   2.740  18.770  0.00  0.00    +0.000 N 
ATOM     10  C   UNL     1       2.253   4.061  19.097  0.00  0.00    +0.000 A 
ATOM     11  C   UNL     1       1.644   4.827  20.098  0.00  0.00    +0.000 A 
ATOM     12  H   UNL     1       1.538   2.047  19.215  0.00  0.00    +0.000 HD
BRANCH   7  13
ATOM     13  C   UNL     1       4.690   3.446  16.484  0.00  0.00    +0.000 C 
ATOM     14  C   UNL     1       4.835   4.380  15.527  0.00  0.00    +0.000 C 
BRANCH  14  15
ATOM     15  C   UNL     1       5.745   4.323  14.373  0.00  0.00    +0.000 A 
ATOM     16  C   UNL     1       6.882   5.146  14.421  0.00  0.00    +0.000 A 
ATOM     17  C   UNL     1       7.764   5.223  13.344  0.00  0.00    +0.000 A 
ATOM     18  C   UNL     1       7.526   4.464  12.204  0.00  0.00    +0.000 A 
ATOM     19  C   UNL     1       6.419   3.618  12.150  0.00  0.00    +0.000 A 
ATOM     20  C   UNL     1       5.533   3.542  13.232  0.00  0.00    +0.000 A 
ENDBRANCH  14  15
ENDBRANCH   7  13
ENDBRANCH   1   3
BRANCH   1  25
ATOM     21  C   UNL     1       0.085  10.196  19.889  0.00  0.00    +0.000 A 
ATOM     22  C   UNL     1       0.334  11.037  20.978  0.00  0.00    +0.000 A 
ATOM     23  C   UNL     1       0.940  10.547  22.133  0.00  0.00    +0.000 A 
ATOM     24  C   UNL     1       1.308   9.209  22.210  0.00  0.00    +0.000 A 
ATOM     25  C   UNL     1       1.040   8.332  21.152  0.00  0.00    +0.000 A 
ATOM     26  C   UNL     1       0.411   8.837  19.998  0.00  0.00    +0.000 A 
BRANCH  21  29
ATOM     27  C   UNL     1      -1.678  11.341  18.559  0.00  0.00    +0.000 C 
ATOM     28  O   UNL     1      -2.401  11.694  19.491  0.00  0.00    +0.000 OA
ATOM     29  N   UNL     1      -0.474  10.668  18.677  0.00  0.00    +0.000 N 
ATOM     30  H   UNL     1       0.121  10.646  17.854  0.00  0.00    +0.000 HD
BRANCH  27  31
ATOM     31  C   UNL     1      -2.104  11.636  17.135  0.00  0.00    +0.000 C 
BRANCH  31  32
ATOM     32  C   UNL     1      -3.104  10.593  16.580  0.00  0.00    +0.000 C 
ATOM     33  C   UNL     1      -2.380   9.240  16.431  0.00  0.00    +0.000 C 
ATOM     34  C   UNL     1      -3.591  11.003  15.173  0.00  0.00    +0.000 C 
BRANCH  32  38
ATOM     35  C   UNL     1      -6.369  10.947  18.545  0.00  0.00    +0.000 C 
ATOM     36  C   UNL     1      -5.311  11.339  17.553  0.00  0.00    +0.000 C 
ATOM     37  O   UNL     1      -5.400  12.359  16.879  0.00  0.00    +0.000 OA
ATOM     38  N   UNL     1      -4.286  10.427  17.449  0.00  0.00    +0.000 N 
ATOM     39  H   UNL     1      -4.308   9.618  18.060  0.00  0.00    +0.000 HD
ENDBRANCH  32  38
ENDBRANCH  31  32
ENDBRANCH  27  31
ENDBRANCH  21  29
ENDBRANCH   1  25
TORSDOF 8
ENDMDL
MODEL 3
REMARK VINA RESULT:      -8.7      5.737     11.525
REMARK  Name = 
REMARK  11 active torsions:
REMARK  status: ('A' for Active; 'I' for Inactive)
REMARK    1  A    between atoms: C_1  and  C_2
REMARK    2  A    between atoms: N_4  and  C_5
REMARK    3  A    between atoms: C_5  and  C_6
REMARK    4  A    between atoms: C_5  and  C_7
REMARK    5  A    between atoms: C_5  and  C_8
REMARK    6  A    between atoms: C_8  and  C_9
REMARK    7  A    between atoms: N_11  and  C_12
REMARK    8  A    between atoms: C_16  and  N_17
REMARK    9  A    between atoms: N_17  and  C_18
REMARK   10  A    between atoms: C_22  and  C_23
REMARK   11  A    between atoms: C_24  and  C_25
REMARK                            x       y       z     vdW  Elec       q    Type
REMARK                         _______ _______ _______ _____ _____    ______ ____
ROOT
ATOM      1  N   UNL     1      -4.119  11.879  17.607  0.00  0.00    +0.000 N 
ATOM      2  H   UNL     1      -4.061  12.595  16.887  0.00  0.00    +0.000 HD
ENDROOT
BRANCH   1   3
ATOM      3  C   UNL     1      -2.830  11.356  17.853  0.00  0.00    +0.000 A 
ATOM      4  C   UNL     1      -2.506  10.116  17.287  0.00  0.00    +0.000 A 
ATOM      5  C   UNL     1      -1.223   9.566  17.400  0.00  0.00    +0.000 A 
ATOM      6  C   UNL     1      -0.232  10.295  18.082  0.00  0.00    +0.000 A 
ATOM      7  C   UNL     1       1.161  10.144  18.350  0.00  0.00    +0.000 A 
ATOM      8  N   UNL     1       1.631  11.175  19.073  0.00  0.00    +0.000 NA
ATOM      9  N   UNL     1       0.575  11.987  19.214  0.00  0.00    +0.000 N 
ATOM     10  C   UNL     1      -0.574  11.523  18.638  0.00  0.00    +0.000 A 
ATOM     11  C   UNL     1      -1.851  12.086  18.539  0.00  0.00    +0.000 A 
ATOM     12  H   UNL     1       0.711  12.865  19.699  0.00  0.00    +0.000 HD
BRANCH   7  13
ATOM     13  C   UNL     1       1.998   9.100  17.821  0.00  0.00    +0.000 C 
ATOM     14  C   UNL     1       1.924   7.821  18.229  0.00  0.00    +0.000 C 
BRANCH  14  15
ATOM     15  C   UNL     1       2.893   6.751  17.947  0.00  0.00    +0.000 A 
ATOM     16  C   UNL     1       4.095   7.131  17.329  0.00  0.00    +0.000 A 
ATOM     17  C   UNL     1       5.043   6.182  16.949  0.00  0.00    +0.000 A 
ATOM     18  C   UNL     1       4.806   4.834  17.196  0.00  0.00    +0.000 A 
ATOM     19  C   UNL     1       3.632   4.441  17.837  0.00  0.00    +0.000 A 
ATOM     20  C   UNL     1       2.680   5.395  18.218  0.00  0.00    +0.000 A 
ENDBRANCH  14  15
ENDBRANCH   7  13
ENDBRANCH   1   3
BRANCH   1  25
ATOM     21  C   UNL     1      -5.980  12.729  20.746  0.00  0.00    +0.000 A 
ATOM     22  C   UNL     1      -7.264  12.322  20.369  0.00  0.00    +0.000 A 
ATOM     23  C   UNL     1      -7.504  11.807  19.097  0.00  0.00    +0.000 A 
ATOM     24  C   UNL     1      -6.460  11.690  18.187  0.00  0.00    +0.000 A 
ATOM     25  C   UNL     1      -5.169  12.121  18.520  0.00  0.00    +0.000 A 
ATOM     26  C   UNL     1      -4.945  12.656  19.802  0.00  0.00    +0.000 A 
BRANCH  21  29
ATOM     27  C   UNL     1      -5.213  14.467  22.351  0.00  0.00    +0.000 C 
ATOM     28  O   UNL     1      -5.053  15.389  21.551  0.00  0.00    +0.000 OA
ATOM     29  N   UNL     1      -5.684  13.201  22.048  0.00  0.00    +0.000 N 
ATOM     30  H   UNL     1      -5.981  12.624  22.827  0.00  0.00    +0.000 HD
BRANCH  27  31
ATOM     31  C   UNL     1      -4.866  14.682  23.811  0.00  0.00    +0.000 C 
BRANCH  31  32
ATOM     32  C   UNL     1      -3.346  14.858  24.047  0.00  0.00    +0.000 C 
ATOM     33  C   UNL     1      -3.038  14.575  25.532  0.00  0.00    +0.000 C 
ATOM     34  C   UNL     1      -2.919  16.315  23.766  0.00  0.00    +0.000 C 
BRANCH  32  38
ATOM     35  C   UNL     1      -1.644  11.920  22.282  0.00  0.00    +0.000 C 
ATOM     36  C   UNL     1      -2.613  12.590  23.215  0.00  0.00    +0.000 C 
ATOM     37  O   UNL     1      -3.417  11.952  23.884  0.00  0.00    +0.000 OA
ATOM     38  N   UNL     1      -2.536  13.964  23.196  0.00  0.00    +0.000 N 
ATOM     39  H   UNL     1      -1.828  14.391  22.609  0.00  0.00    +0.000 HD
ENDBRANCH  32  38
ENDBRANCH  31  32
ENDBRANCH  27  31
ENDBRANCH  21  29
ENDBRANCH   1  25
TORSDOF 8
ENDMDL
MODEL 4
REMARK VINA RESULT:      -8.7      4.306     10.482
REMARK  Name = 
REMARK  11 active torsions:
REMARK  status: ('A' for Active; 'I' for Inactive)
REMARK    1  A    between atoms: C_1  and  C_2
REMARK    2  A    between atoms: N_4  and  C_5
REMARK    3  A    between atoms: C_5  and  C_6
REMARK    4  A    between atoms: C_5  and  C_7
REMARK    5  A    between atoms: C_5  and  C_8
REMARK    6  A    between atoms: C_8  and  C_9
REMARK    7  A    between atoms: N_11  and  C_12
REMARK    8  A    between atoms: C_16  and  N_17
REMARK    9  A    between atoms: N_17  and  C_18
REMARK   10  A    between atoms: C_22  and  C_23
REMARK   11  A    between atoms: C_24  and  C_25
REMARK                            x       y       z     vdW  Elec       q    Type
REMARK                         _______ _______ _______ _____ _____    ______ ____
ROOT
ATOM      1  N   UNL     1       2.066   7.490  21.133  0.00  0.00    +0.000 N 
ATOM      2  H   UNL     1       2.112   7.033  22.040  0.00  0.00    +0.000 HD
ENDROOT
BRANCH   1   3
ATOM      3  C   UNL     1       2.392   6.558  20.122  0.00  0.00    +0.000 A 
ATOM      4  C   UNL     1       3.248   6.976  19.096  0.00  0.00    +0.000 A 
ATOM      5  C   UNL     1       3.699   6.094  18.105  0.00  0.00    +0.000 A 
ATOM      6  C   UNL     1       3.295   4.748  18.163  0.00  0.00    +0.000 A 
ATOM      7  C   UNL     1       3.571   3.554  17.433  0.00  0.00    +0.000 A 
ATOM      8  N   UNL     1       2.889   2.510  17.934  0.00  0.00    +0.000 NA
ATOM      9  N   UNL     1       2.240   3.016  18.990  0.00  0.00    +0.000 N 
ATOM     10  C   UNL     1       2.443   4.353  19.189  0.00  0.00    +0.000 A 
ATOM     11  C   UNL     1       1.979   5.220  20.184  0.00  0.00    +0.000 A 
ATOM     12  H   UNL     1       1.686   2.386  19.555  0.00  0.00    +0.000 HD
BRANCH   7  13
ATOM     13  C   UNL     1       4.540   3.435  16.376  0.00  0.00    +0.000 C 
ATOM     14  C   UNL     1       5.016   4.490  15.691  0.00  0.00    +0.000 C 
BRANCH  14  15
ATOM     15  C   UNL     1       5.795   4.450  14.445  0.00  0.00    +0.000 A 
ATOM     16  C   UNL     1       5.279   3.664  13.400  0.00  0.00    +0.000 A 
ATOM     17  C   UNL     1       5.982   3.498  12.208  0.00  0.00    +0.000 A 
ATOM     18  C   UNL     1       7.210   4.129  12.037  0.00  0.00    +0.000 A 
ATOM     19  C   UNL     1       7.722   4.937  13.052  0.00  0.00    +0.000 A 
ATOM     20  C   UNL     1       7.016   5.103  14.250  0.00  0.00    +0.000 A 
ENDBRANCH  14  15
ENDBRANCH   7  13
ENDBRANCH   1   3
BRANCH   1  25
ATOM     21  C   UNL     1      -0.275  10.139  19.892  0.00  0.00    +0.000 A 
ATOM     22  C   UNL     1      -0.555  10.783  21.101  0.00  0.00    +0.000 A 
ATOM     23  C   UNL     1      -0.001  10.328  22.296  0.00  0.00    +0.000 A 
ATOM     24  C   UNL     1       0.843   9.224  22.294  0.00  0.00    +0.000 A 
ATOM     25  C   UNL     1       1.116   8.534  21.106  0.00  0.00    +0.000 A 
ATOM     26  C   UNL     1       0.535   8.994  19.909  0.00  0.00    +0.000 A 
BRANCH  21  29
ATOM     27  C   UNL     1      -1.805  11.510  18.490  0.00  0.00    +0.000 C 
ATOM     28  O   UNL     1      -2.397  12.098  19.396  0.00  0.00    +0.000 OA
ATOM     29  N   UNL     1      -0.770  10.605  18.650  0.00  0.00    +0.000 N 
ATOM     30  H   UNL     1      -0.230  10.377  17.822  0.00  0.00    +0.000 HD
BRANCH  27  31
ATOM     31  C   UNL     1      -2.218  11.755  17.052  0.00  0.00    +0.000 C 
BRANCH  31  32
ATOM     32  C   UNL     1      -3.622  11.192  16.726  0.00  0.00    +0.000 C 
ATOM     33  C   UNL     1      -3.904   9.994  17.656  0.00  0.00    +0.000 C 
ATOM     34  C   UNL     1      -3.671  10.661  15.277  0.00  0.00    +0.000 C 
BRANCH  32  38
ATOM     35  C   UNL     1      -6.817  13.155  17.489  0.00  0.00    +0.000 C 
ATOM     36  C   UNL     1      -5.895  11.969  17.502  0.00  0.00    +0.000 C 
ATOM     37  O   UNL     1      -6.198  10.918  18.055  0.00  0.00    +0.000 OA
ATOM     38  N   UNL     1      -4.686  12.202  16.887  0.00  0.00    +0.000 N 
ATOM     39  H   UNL     1      -4.542  13.107  16.454  0.00  0.00    +0.000 HD
ENDBRANCH  32  38
ENDBRANCH  31  32
ENDBRANCH  27  31
ENDBRANCH  21  29
ENDBRANCH   1  25
TORSDOF 8
ENDMDL
MODEL 5
REMARK VINA RESULT:      -8.7      4.553     10.971
REMARK  Name = 
REMARK  11 active torsions:
REMARK  status: ('A' for Active; 'I' for Inactive)
REMARK    1  A    between atoms: C_1  and  C_2
REMARK    2  A    between atoms: N_4  and  C_5
REMARK    3  A    between atoms: C_5  and  C_6
REMARK    4  A    between atoms: C_5  and  C_7
REMARK    5  A    between atoms: C_5  and  C_8
REMARK    6  A    between atoms: C_8  and  C_9
REMARK    7  A    between atoms: N_11  and  C_12
REMARK    8  A    between atoms: C_16  and  N_17
REMARK    9  A    between atoms: N_17  and  C_18
REMARK   10  A    between atoms: C_22  and  C_23
REMARK   11  A    between atoms: C_24  and  C_25
REMARK                            x       y       z     vdW  Elec       q    Type
REMARK                         _______ _______ _______ _____ _____    ______ ____
ROOT
ATOM      1  N   UNL     1       0.984  10.044  20.442  0.00  0.00    +0.000 N 
ATOM      2  H   UNL     1       0.505   9.884  21.324  0.00  0.00    +0.000 HD
ENDROOT
BRANCH   1   3
ATOM      3  C   UNL     1       1.424   8.808  19.917  0.00  0.00    +0.000 A 
ATOM      4  C   UNL     1       1.784   8.760  18.564  0.00  0.00    +0.000 A 
ATOM      5  C   UNL     1       2.319   7.604  17.982  0.00  0.00    +0.000 A 
ATOM      6  C   UNL     1       2.518   6.470  18.791  0.00  0.00    +0.000 A 
ATOM      7  C   UNL     1       3.082   5.170  18.627  0.00  0.00    +0.000 A 
ATOM      8  N   UNL     1       3.013   4.463  19.768  0.00  0.00    +0.000 NA
ATOM      9  N   UNL     1       2.469   5.312  20.649  0.00  0.00    +0.000 N 
ATOM     10  C   UNL     1       2.153   6.537  20.131  0.00  0.00    +0.000 A 
ATOM     11  C   UNL     1       1.614   7.681  20.728  0.00  0.00    +0.000 A 
ATOM     12  H   UNL     1       2.360   5.000  21.606  0.00  0.00    +0.000 HD
BRANCH   7  13
ATOM     13  C   UNL     1       3.753   4.702  17.444  0.00  0.00    +0.000 C 
ATOM     14  C   UNL     1       4.998   5.081  17.105  0.00  0.00    +0.000 C 
BRANCH  14  15
ATOM     15  C   UNL     1       5.659   4.869  15.808  0.00  0.00    +0.000 A 
ATOM     16  C   UNL     1       4.940   4.149  14.840  0.00  0.00    +0.000 A 
ATOM     17  C   UNL     1       5.510   3.827  13.609  0.00  0.00    +0.000 A 
ATOM     18  C   UNL     1       6.808   4.235  13.323  0.00  0.00    +0.000 A 
ATOM     19  C   UNL     1       7.526   4.978  14.260  0.00  0.00    +0.000 A 
ATOM     20  C   UNL     1       6.953   5.300  15.497  0.00  0.00    +0.000 A 
ENDBRANCH  14  15
ENDBRANCH   7  13
ENDBRANCH   1   3
BRANCH   1  25
ATOM     21  C   UNL     1      -1.283  12.322  18.518  0.00  0.00    +0.000 A 
ATOM     22  C   UNL     1      -0.367  13.320  18.171  0.00  0.00    +0.000 A 
ATOM     23  C   UNL     1       0.960  13.246  18.592  0.00  0.00    +0.000 A 
ATOM     24  C   UNL     1       1.385  12.170  19.362  0.00  0.00    +0.000 A 
ATOM     25  C   UNL     1       0.485  11.173  19.756  0.00  0.00    +0.000 A 
ATOM     26  C   UNL     1      -0.856  11.269  19.339  0.00  0.00    +0.000 A 
BRANCH  21  29
ATOM     27  C   UNL     1      -3.221  11.326  17.318  0.00  0.00    +0.000 C 
ATOM     28  O   UNL     1      -2.705  10.251  17.010  0.00  0.00    +0.000 OA
ATOM     29  N   UNL     1      -2.623  12.330  18.060  0.00  0.00    +0.000 N 
ATOM     30  H   UNL     1      -3.234  13.051  18.430  0.00  0.00    +0.000 HD
BRANCH  27  31
ATOM     31  C   UNL     1      -4.632  11.632  16.858  0.00  0.00    +0.000 C 
BRANCH  31  32
ATOM     32  C   UNL     1      -5.586  11.971  18.029  0.00  0.00    +0.000 C 
ATOM     33  C   UNL     1      -6.446  10.730  18.343  0.00  0.00    +0.000 C 
ATOM     34  C   UNL     1      -6.555  13.104  17.629  0.00  0.00    +0.000 C 
BRANCH  32  38
ATOM     35  C   UNL     1      -4.476  12.975  21.551  0.00  0.00    +0.000 C 
ATOM     36  C   UNL     1      -5.425  12.480  20.496  0.00  0.00    +0.000 C 
ATOM     37  O   UNL     1      -6.576  12.153  20.761  0.00  0.00    +0.000 OA
ATOM     38  N   UNL     1      -4.860  12.388  19.245  0.00  0.00    +0.000 N 
ATOM     39  H   UNL     1      -3.899  12.692  19.135  0.00  0.00    +0.000 HD
ENDBRANCH  32  38
ENDBRANCH  31  32
ENDBRANCH  27  31
ENDBRANCH  21  29
ENDBRANCH   1  25
TORSDOF 8
ENDMDL
MODEL 6
REMARK VINA RESULT:      -8.7      3.307      4.226
REMARK  Name = 
REMARK  11 active torsions:
REMARK  status: ('A' for Active; 'I' for Inactive)
REMARK    1  A    between atoms: C_1  and  C_2
REMARK    2  A    between atoms: N_4  and  C_5
REMARK    3  A    between atoms: C_5  and  C_6
REMARK    4  A    between atoms: C_5  and  C_7
REMARK    5  A    between atoms: C_5  and  C_8
REMARK    6  A    between atoms: C_8  and  C_9
REMARK    7  A    between atoms: N_11  and  C_12
REMARK    8  A    between atoms: C_16  and  N_17
REMARK    9  A    between atoms: N_17  and  C_18
REMARK   10  A    between atoms: C_22  and  C_23
REMARK   11  A    between atoms: C_24  and  C_25
REMARK                            x       y       z     vdW  Elec       q    Type
REMARK                         _______ _______ _______ _____ _____    ______ ____
ROOT
ATOM      1  N   UNL     1       2.135   7.737  21.098  0.00  0.00    +0.000 N 
ATOM      2  H   UNL     1       3.076   8.118  21.050  0.00  0.00    +0.000 HD
ENDROOT
BRANCH   1   3
ATOM      3  C   UNL     1       1.202   8.797  21.151  0.00  0.00    +0.000 A 
ATOM      4  C   UNL     1       0.736   9.322  19.939  0.00  0.00    +0.000 A 
ATOM      5  C   UNL     1      -0.258  10.308  19.895  0.00  0.00    +0.000 A 
ATOM      6  C   UNL     1      -0.814  10.762  21.105  0.00  0.00    +0.000 A 
ATOM      7  C   UNL     1      -1.855  11.657  21.492  0.00  0.00    +0.000 A 
ATOM      8  N   UNL     1      -1.969  11.720  22.830  0.00  0.00    +0.000 NA
ATOM      9  N   UNL     1      -1.061  10.845  23.280  0.00  0.00    +0.000 N 
ATOM     10  C   UNL     1      -0.336  10.229  22.297  0.00  0.00    +0.000 A 
ATOM     11  C   UNL     1       0.658   9.247  22.361  0.00  0.00    +0.000 A 
ATOM     12  H   UNL     1      -0.999  10.693  24.279  0.00  0.00    +0.000 HD
BRANCH   7  13
ATOM     13  C   UNL     1      -2.756  12.320  20.588  0.00  0.00    +0.000 C 
ATOM     14  C   UNL     1      -3.729  13.154  20.998  0.00  0.00    +0.000 C 
BRANCH  14  15
ATOM     15  C   UNL     1      -4.846  13.665  20.191  0.00  0.00    +0.000 A 
ATOM     16  C   UNL     1      -5.389  12.793  19.234  0.00  0.00    +0.000 A 
ATOM     17  C   UNL     1      -6.397  13.210  18.365  0.00  0.00    +0.000 A 
ATOM     18  C   UNL     1      -6.888  14.507  18.452  0.00  0.00    +0.000 A 
ATOM     19  C   UNL     1      -6.382  15.379  19.417  0.00  0.00    +0.000 A 
ATOM     20  C   UNL     1      -5.369  14.959  20.288  0.00  0.00    +0.000 A 
ENDBRANCH  14  15
ENDBRANCH   7  13
ENDBRANCH   1   3
BRANCH   1  25
ATOM     21  C   UNL     1       2.565   4.986  18.591  0.00  0.00    +0.000 A 
ATOM     22  C   UNL     1       1.570   4.110  19.037  0.00  0.00    +0.000 A 
ATOM     23  C   UNL     1       0.800   4.418  20.158  0.00  0.00    +0.000 A 
ATOM     24  C   UNL     1       1.016   5.608  20.842  0.00  0.00    +0.000 A 
ATOM     25  C   UNL     1       2.027   6.490  20.443  0.00  0.00    +0.000 A 
ATOM     26  C   UNL     1       2.809   6.159  19.320  0.00  0.00    +0.000 A 
BRANCH  21  29
ATOM     27  C   UNL     1       4.497   3.999  17.373  0.00  0.00    +0.000 C 
ATOM     28  O   UNL     1       5.006   3.389  18.314  0.00  0.00    +0.000 OA
ATOM     29  N   UNL     1       3.327   4.738  17.423  0.00  0.00    +0.000 N 
ATOM     30  H   UNL     1       2.907   4.992  16.535  0.00  0.00    +0.000 HD
BRANCH  27  31
ATOM     31  C   UNL     1       5.179   3.982  16.020  0.00  0.00    +0.000 C 
BRANCH  31  32
ATOM     32  C   UNL     1       6.058   5.233  15.775  0.00  0.00    +0.000 C 
ATOM     33  C   UNL     1       5.208   6.304  15.062  0.00  0.00    +0.000 C 
ATOM     34  C   UNL     1       7.236   4.892  14.838  0.00  0.00    +0.000 C 
BRANCH  32  38
ATOM     35  C   UNL     1       7.933   5.949  19.033  0.00  0.00    +0.000 C 
ATOM     36  C   UNL     1       7.590   5.193  17.781  0.00  0.00    +0.000 C 
ATOM     37  O   UNL     1       8.178   4.166  17.461  0.00  0.00    +0.000 OA
ATOM     38  N   UNL     1       6.606   5.791  17.027  0.00  0.00    +0.000 N 
ATOM     39  H   UNL     1       6.181   6.637  17.388  0.00  0.00    +0.000 HD
ENDBRANCH  32  38
ENDBRANCH  31  32
ENDBRANCH  27  31
ENDBRANCH  21  29
ENDBRANCH   1  25
TORSDOF 8
ENDMDL
MODEL 7
REMARK VINA RESULT:      -8.7      3.174      3.821
REMARK  Name = 
REMARK  11 active torsions:
REMARK  status: ('A' for Active; 'I' for Inactive)
REMARK    1  A    between atoms: C_1  and  C_2
REMARK    2  A    between atoms: N_4  and  C_5
REMARK    3  A    between atoms: C_5  and  C_6
REMARK    4  A    between atoms: C_5  and  C_7
REMARK    5  A    between atoms: C_5  and  C_8
REMARK    6  A    between atoms: C_8  and  C_9
REMARK    7  A    between atoms: N_11  and  C_12
REMARK    8  A    between atoms: C_16  and  N_17
REMARK    9  A    between atoms: N_17  and  C_18
REMARK   10  A    between atoms: C_22  and  C_23
REMARK   11  A    between atoms: C_24  and  C_25
REMARK                            x       y       z     vdW  Elec       q    Type
REMARK                         _______ _______ _______ _____ _____    ______ ____
ROOT
ATOM      1  N   UNL     1       1.971   7.988  21.230  0.00  0.00    +0.000 N 
ATOM      2  H   UNL     1       2.868   8.462  21.166  0.00  0.00    +0.000 HD
ENDROOT
BRANCH   1   3
ATOM      3  C   UNL     1       0.939   8.948  21.325  0.00  0.00    +0.000 A 
ATOM      4  C   UNL     1       0.549   9.369  22.604  0.00  0.00    +0.000 A 
ATOM      5  C   UNL     1      -0.398  10.384  22.791  0.00  0.00    +0.000 A 
ATOM      6  C   UNL     1      -0.952  11.009  21.659  0.00  0.00    +0.000 A 
ATOM      7  C   UNL     1      -1.849  12.089  21.411  0.00  0.00    +0.000 A 
ATOM      8  N   UNL     1      -2.041  12.269  20.093  0.00  0.00    +0.000 NA
ATOM      9  N   UNL     1      -1.241  11.362  19.517  0.00  0.00    +0.000 N 
ATOM     10  C   UNL     1      -0.553  10.576  20.399  0.00  0.00    +0.000 A 
ATOM     11  C   UNL     1       0.388   9.562  20.193  0.00  0.00    +0.000 A 
ATOM     12  H   UNL     1      -1.190  11.345  18.506  0.00  0.00    +0.000 HD
BRANCH   7  13
ATOM     13  C   UNL     1      -2.393  12.962  22.417  0.00  0.00    +0.000 C 
ATOM     14  C   UNL     1      -3.486  13.721  22.220  0.00  0.00    +0.000 C 
BRANCH  14  15
ATOM     15  C   UNL     1      -3.958  14.820  23.075  0.00  0.00    +0.000 A 
ATOM     16  C   UNL     1      -3.124  15.199  24.140  0.00  0.00    +0.000 A 
ATOM     17  C   UNL     1      -3.518  16.175  25.054  0.00  0.00    +0.000 A 
ATOM     18  C   UNL     1      -4.752  16.799  24.907  0.00  0.00    +0.000 A 
ATOM     19  C   UNL     1      -5.580  16.458  23.837  0.00  0.00    +0.000 A 
ATOM     20  C   UNL     1      -5.184  15.476  22.920  0.00  0.00    +0.000 A 
ENDBRANCH  14  15
ENDBRANCH   7  13
ENDBRANCH   1   3
BRANCH   1  25
ATOM     21  C   UNL     1       2.673   5.310  18.706  0.00  0.00    +0.000 A 
ATOM     22  C   UNL     1       1.724   4.363  19.105  0.00  0.00    +0.000 A 
ATOM     23  C   UNL     1       0.896   4.602  20.201  0.00  0.00    +0.000 A 
ATOM     24  C   UNL     1       1.007   5.794  20.907  0.00  0.00    +0.000 A 
ATOM     25  C   UNL     1       1.970   6.747  20.556  0.00  0.00    +0.000 A 
ATOM     26  C   UNL     1       2.811   6.485  19.459  0.00  0.00    +0.000 A 
BRANCH  21  29
ATOM     27  C   UNL     1       4.665   4.400  17.527  0.00  0.00    +0.000 C 
ATOM     28  O   UNL     1       5.133   3.739  18.455  0.00  0.00    +0.000 OA
ATOM     29  N   UNL     1       3.490   5.131  17.564  0.00  0.00    +0.000 N 
ATOM     30  H   UNL     1       3.112   5.434  16.672  0.00  0.00    +0.000 HD
BRANCH  27  31
ATOM     31  C   UNL     1       5.411   4.462  16.209  0.00  0.00    +0.000 C 
BRANCH  31  32
ATOM     32  C   UNL     1       6.720   5.282  16.298  0.00  0.00    +0.000 C 
ATOM     33  C   UNL     1       7.743   4.494  17.143  0.00  0.00    +0.000 C 
ATOM     34  C   UNL     1       6.472   6.622  17.024  0.00  0.00    +0.000 C 
BRANCH  32  38
ATOM     35  C   UNL     1       7.863   5.278  12.647  0.00  0.00    +0.000 C 
ATOM     36  C   UNL     1       7.133   4.776  13.860  0.00  0.00    +0.000 C 
ATOM     37  O   UNL     1       6.429   3.774  13.825  0.00  0.00    +0.000 OA
ATOM     38  N   UNL     1       7.296   5.573  14.971  0.00  0.00    +0.000 N 
ATOM     39  H   UNL     1       7.907   6.377  14.891  0.00  0.00    +0.000 HD
ENDBRANCH  32  38
ENDBRANCH  31  32
ENDBRANCH  27  31
ENDBRANCH  21  29
ENDBRANCH   1  25
TORSDOF 8
ENDMDL
MODEL 8
REMARK VINA RESULT:      -8.6      2.178      3.033
REMARK  Name = 
REMARK  11 active torsions:
REMARK  status: ('A' for Active; 'I' for Inactive)
REMARK    1  A    between atoms: C_1  and  C_2
REMARK    2  A    between atoms: N_4  and  C_5
REMARK    3  A    between atoms: C_5  and  C_6
REMARK    4  A    between atoms: C_5  and  C_7
REMARK    5  A    between atoms: C_5  and  C_8
REMARK    6  A    between atoms: C_8  and  C_9
REMARK    7  A    between atoms: N_11  and  C_12
REMARK    8  A    between atoms: C_16  and  N_17
REMARK    9  A    between atoms: N_17  and  C_18
REMARK   10  A    between atoms: C_22  and  C_23
REMARK   11  A    between atoms: C_24  and  C_25
REMARK                            x       y       z     vdW  Elec       q    Type
REMARK                         _______ _______ _______ _____ _____    ______ ____
ROOT
ATOM      1  N   UNL     1       1.804   6.981  21.203  0.00  0.00    +0.000 N 
ATOM      2  H   UNL     1       2.693   7.170  21.658  0.00  0.00    +0.000 HD
ENDROOT
BRANCH   1   3
ATOM      3  C   UNL     1       1.150   8.202  20.925  0.00  0.00    +0.000 A 
ATOM      4  C   UNL     1       0.432   8.813  21.962  0.00  0.00    +0.000 A 
ATOM      5  C   UNL     1      -0.167  10.069  21.805  0.00  0.00    +0.000 A 
ATOM      6  C   UNL     1      -0.022  10.739  20.576  0.00  0.00    +0.000 A 
ATOM      7  C   UNL     1      -0.389  12.010  20.043  0.00  0.00    +0.000 A 
ATOM      8  N   UNL     1       0.015  12.136  18.767  0.00  0.00    +0.000 NA
ATOM      9  N   UNL     1       0.671  10.996  18.515  0.00  0.00    +0.000 N 
ATOM     10  C   UNL     1       0.692  10.115  19.560  0.00  0.00    +0.000 A 
ATOM     11  C   UNL     1       1.295   8.860  19.697  0.00  0.00    +0.000 A 
ATOM     12  H   UNL     1       1.107  10.888  17.607  0.00  0.00    +0.000 HD
BRANCH   7  13
ATOM     13  C   UNL     1      -1.001  13.076  20.789  0.00  0.00    +0.000 C 
ATOM     14  C   UNL     1      -2.244  13.527  20.545  0.00  0.00    +0.000 C 
BRANCH  14  15
ATOM     15  C   UNL     1      -2.850  14.761  21.066  0.00  0.00    +0.000 A 
ATOM     16  C   UNL     1      -2.333  15.974  20.584  0.00  0.00    +0.000 A 
ATOM     17  C   UNL     1      -2.785  17.198  21.075  0.00  0.00    +0.000 A 
ATOM     18  C   UNL     1      -3.776  17.226  22.050  0.00  0.00    +0.000 A 
ATOM     19  C   UNL     1      -4.323  16.031  22.519  0.00  0.00    +0.000 A 
ATOM     20  C   UNL     1      -3.868  14.802  22.026  0.00  0.00    +0.000 A 
ENDBRANCH  14  15
ENDBRANCH   7  13
ENDBRANCH   1   3
BRANCH   1  25
ATOM     21  C   UNL     1       2.533   4.536  18.459  0.00  0.00    +0.000 A 
ATOM     22  C   UNL     1       1.645   3.517  18.817  0.00  0.00    +0.000 A 
ATOM     23  C   UNL     1       0.849   3.633  19.955  0.00  0.00    +0.000 A 
ATOM     24  C   UNL     1       0.930   4.772  20.747  0.00  0.00    +0.000 A 
ATOM     25  C   UNL     1       1.835   5.795  20.437  0.00  0.00    +0.000 A 
ATOM     26  C   UNL     1       2.646   5.657  19.295  0.00  0.00    +0.000 A 
BRANCH  21  29
ATOM     27  C   UNL     1       4.507   3.794  17.141  0.00  0.00    +0.000 C 
ATOM     28  O   UNL     1       5.025   3.069  17.990  0.00  0.00    +0.000 OA
ATOM     29  N   UNL     1       3.315   4.483  17.280  0.00  0.00    +0.000 N 
ATOM     30  H   UNL     1       2.897   4.851  16.432  0.00  0.00    +0.000 HD
BRANCH  27  31
ATOM     31  C   UNL     1       5.204   3.994  15.809  0.00  0.00    +0.000 C 
BRANCH  31  32
ATOM     32  C   UNL     1       6.062   5.282  15.769  0.00  0.00    +0.000 C 
ATOM     33  C   UNL     1       5.228   6.414  15.136  0.00  0.00    +0.000 C 
ATOM     34  C   UNL     1       7.302   5.079  14.872  0.00  0.00    +0.000 C 
BRANCH  32  38
ATOM     35  C   UNL     1       7.772   5.676  19.169  0.00  0.00    +0.000 C 
ATOM     36  C   UNL     1       7.537   5.085  17.808  0.00  0.00    +0.000 C 
ATOM     37  O   UNL     1       8.228   4.174  17.368  0.00  0.00    +0.000 OA
ATOM     38  N   UNL     1       6.521   5.697  17.109  0.00  0.00    +0.000 N 
ATOM     39  H   UNL     1       6.007   6.438  17.571  0.00  0.00    +0.000 HD
ENDBRANCH  32  38
ENDBRANCH  31  32
ENDBRANCH  27  31
ENDBRANCH  21  29
ENDBRANCH   1  25
TORSDOF 8
ENDMDL
MODEL 9
REMARK VINA RESULT:      -8.6      4.287     11.231
REMARK  Name = 
REMARK  11 active torsions:
REMARK  status: ('A' for Active; 'I' for Inactive)
REMARK    1  A    between atoms: C_1  and  C_2
REMARK    2  A    between atoms: N_4  and  C_5
REMARK    3  A    between atoms: C_5  and  C_6
REMARK    4  A    between atoms: C_5  and  C_7
REMARK    5  A    between atoms: C_5  and  C_8
REMARK    6  A    between atoms: C_8  and  C_9
REMARK    7  A    between atoms: N_11  and  C_12
REMARK    8  A    between atoms: C_16  and  N_17
REMARK    9  A    between atoms: N_17  and  C_18
REMARK   10  A    between atoms: C_22  and  C_23
REMARK   11  A    between atoms: C_24  and  C_25
REMARK                            x       y       z     vdW  Elec       q    Type
REMARK                         _______ _______ _______ _____ _____    ______ ____
ROOT
ATOM      1  N   UNL     1       1.354   7.826  20.801  0.00  0.00    +0.000 N 
ATOM      2  H   UNL     1       0.710   7.336  21.416  0.00  0.00    +0.000 HD
ENDROOT
BRANCH   1   3
ATOM      3  C   UNL     1       2.055   6.887  20.011  0.00  0.00    +0.000 A 
ATOM      4  C   UNL     1       2.634   7.337  18.817  0.00  0.00    +0.000 A 
ATOM      5  C   UNL     1       3.425   6.500  18.019  0.00  0.00    +0.000 A 
ATOM      6  C   UNL     1       3.658   5.180  18.447  0.00  0.00    +0.000 A 
ATOM      7  C   UNL     1       4.431   4.069  17.996  0.00  0.00    +0.000 A 
ATOM      8  N   UNL     1       4.283   3.012  18.812  0.00  0.00    +0.000 NA
ATOM      9  N   UNL     1       3.481   3.457  19.787  0.00  0.00    +0.000 N 
ATOM     10  C   UNL     1       3.073   4.753  19.634  0.00  0.00    +0.000 A 
ATOM     11  C   UNL     1       2.277   5.573  20.442  0.00  0.00    +0.000 A 
ATOM     12  H   UNL     1       3.265   2.829  20.551  0.00  0.00    +0.000 HD
BRANCH   7  13
ATOM     13  C   UNL     1       5.349   4.094  16.889  0.00  0.00    +0.000 C 
ATOM     14  C   UNL     1       5.010   4.527  15.661  0.00  0.00    +0.000 C 
BRANCH  14  15
ATOM     15  C   UNL     1       5.782   4.350  14.423  0.00  0.00    +0.000 A 
ATOM     16  C   UNL     1       7.000   5.043  14.331  0.00  0.00    +0.000 A 
ATOM     17  C   UNL     1       7.767   5.004  13.167  0.00  0.00    +0.000 A 
ATOM     18  C   UNL     1       7.330   4.257  12.079  0.00  0.00    +0.000 A 
ATOM     19  C   UNL     1       6.138   3.538  12.163  0.00  0.00    +0.000 A 
ATOM     20  C   UNL     1       5.368   3.578  13.332  0.00  0.00    +0.000 A 
ENDBRANCH  14  15
ENDBRANCH   7  13
ENDBRANCH   1   3
BRANCH   1  25
ATOM     21  C   UNL     1      -0.546  11.055  20.837  0.00  0.00    +0.000 A 
ATOM     22  C   UNL     1      -0.211  11.533  19.567  0.00  0.00    +0.000 A 
ATOM     23  C   UNL     1       0.645  10.811  18.737  0.00  0.00    +0.000 A 
ATOM     24  C   UNL     1       1.174   9.601  19.169  0.00  0.00    +0.000 A 
ATOM     25  C   UNL     1       0.887   9.111  20.449  0.00  0.00    +0.000 A 
ATOM     26  C   UNL     1       0.035   9.858  21.283  0.00  0.00    +0.000 A 
BRANCH  21  29
ATOM     27  C   UNL     1      -1.120  12.685  22.626  0.00  0.00    +0.000 C 
ATOM     28  O   UNL     1       0.006  13.147  22.812  0.00  0.00    +0.000 OA
ATOM     29  N   UNL     1      -1.459  11.727  21.686  0.00  0.00    +0.000 N 
ATOM     30  H   UNL     1      -2.447  11.609  21.488  0.00  0.00    +0.000 HD
BRANCH  27  31
ATOM     31  C   UNL     1      -2.272  13.166  23.485  0.00  0.00    +0.000 C 
BRANCH  31  32
ATOM     32  C   UNL     1      -3.105  14.279  22.804  0.00  0.00    +0.000 C 
ATOM     33  C   UNL     1      -2.142  15.284  22.140  0.00  0.00    +0.000 C 
ATOM     34  C   UNL     1      -3.924  15.062  23.852  0.00  0.00    +0.000 C 
BRANCH  32  38
ATOM     35  C   UNL     1      -5.802  12.414  20.831  0.00  0.00    +0.000 C 
ATOM     36  C   UNL     1      -5.024  12.822  22.049  0.00  0.00    +0.000 C 
ATOM     37  O   UNL     1      -5.293  12.392  23.165  0.00  0.00    +0.000 OA
ATOM     38  N   UNL     1      -4.037  13.746  21.791  0.00  0.00    +0.000 N 
ATOM     39  H   UNL     1      -3.895  14.030  20.828  0.00  0.00    +0.000 HD
ENDBRANCH  32  38
ENDBRANCH  31  32
ENDBRANCH  27  31
ENDBRANCH  21  29
ENDBRANCH   1  25
TORSDOF 8
ENDMDL
