MODEL 1
REMARK VINA RESULT:      -6.5      0.000      0.000
REMARK  Name = 
REMARK  2 active torsions:
REMARK  status: ('A' for Active; 'I' for Inactive)
REMARK    1  A    between atoms: C_1  and  N_2
REMARK    2  A    between atoms: N_25  and  C_26
REMARK                            x       y       z     vdW  Elec       q    Type
REMARK                         _______ _______ _______ _____ _____    ______ ____
ROOT
ATOM      1  C   UNL     1       4.222  16.248  21.993  0.00  0.00    +0.000 C 
ATOM      2  N   UNL     1       3.096  16.403  20.982  0.00  0.00    +0.000 N 
ATOM      3  C   UNL     1       4.106  17.421  19.865  0.00  0.00    +0.000 C 
ATOM      4  C   UNL     1       5.977  17.401  19.723  0.00  0.00    +0.000 C 
ATOM      5  C   UNL     1       7.130  16.570  18.826  0.00  0.00    +0.000 C 
ATOM      6  C   UNL     1       6.797  15.178  18.396  0.00  0.00    +0.000 C 
ATOM      7  C   UNL     1       5.453  15.316  17.780  0.00  0.00    +0.000 C 
ATOM      8  C   UNL     1       4.670  14.198  18.323  0.00  0.00    +0.000 C 
ATOM      9  C   UNL     1       3.253  14.611  18.240  0.00  0.00    +0.000 C 
ATOM     10  C   UNL     1       2.539  13.363  18.568  0.00  0.00    +0.000 C 
ATOM     11  C   UNL     1       1.125  13.682  18.389  0.00  0.00    +0.000 C 
ATOM     12  C   UNL     1       0.414  12.400  18.570  0.00  0.00    +0.000 C 
ATOM     13  C   UNL     1      -1.019  12.658  18.244  0.00  0.00    +0.000 C 
ATOM     14  C   UNL     1      -1.670  11.444  18.432  0.00  0.00    +0.000 C 
ATOM     15  O   UNL     1      -1.459  10.379  19.074  0.00  0.00    +0.000 OA
ATOM     16  O   UNL     1      -2.916  11.683  17.825  0.00  0.00    +0.000 OA
ATOM     17  C   UNL     1      -3.930  11.364  18.701  0.00  0.00    +0.000 C 
ATOM     18  C   UNL     1      -4.420  12.597  19.517  0.00  0.00    +0.000 C 
ATOM     19  C   UNL     1      -3.519  13.146  20.958  0.00  0.00    +0.000 C 
ATOM     20  C   UNL     1      -5.092  12.537  21.830  0.00  0.00    +0.000 C 
ATOM     21  C   UNL     1      -6.736  12.790  21.174  0.00  0.00    +0.000 C 
ATOM     22  C   UNL     1      -7.688  12.205  19.920  0.00  0.00    +0.000 C 
ATOM     23  C   UNL     1      -6.886  12.397  18.658  0.00  0.00    +0.000 C 
ATOM     24  C   UNL     1      -5.848  13.434  19.181  0.00  0.00    +0.000 C 
ATOM     25  N   UNL     1      -6.464  14.048  20.485  0.00  0.00    +0.000 NA
ATOM     26  C   UNL     1      -7.771  14.798  20.586  0.00  0.00    +0.000 C 
ATOM     27  C   UNL     1      -1.873  14.154  21.184  0.00  0.00    +0.000 A 
ATOM     28  C   UNL     1      -1.338  15.397  20.564  0.00  0.00    +0.000 A 
ATOM     29  C   UNL     1       0.255  16.177  20.531  0.00  0.00    +0.000 A 
ATOM     30  C   UNL     1       1.573  15.825  21.138  0.00  0.00    +0.000 A 
ATOM     31  C   UNL     1       1.015  14.663  21.909  0.00  0.00    +0.000 A 
ATOM     32  C   UNL     1      -0.569  13.858  21.904  0.00  0.00    +0.000 A 
ENDROOT
TORSDOF 0
ENDMDL
MODEL 2
REMARK VINA RESULT:      -6.2      5.225      7.597
REMARK  Name = 
REMARK  2 active torsions:
REMARK  status: ('A' for Active; 'I' for Inactive)
REMARK    1  A    between atoms: C_1  and  N_2
REMARK    2  A    between atoms: N_25  and  C_26
REMARK                            x       y       z     vdW  Elec       q    Type
REMARK                         _______ _______ _______ _____ _____    ______ ____
ROOT
ATOM      1  C   UNL     1       1.087   4.571  20.445  0.00  0.00    +0.000 C 
ATOM      2  N   UNL     1       1.785   5.888  20.754  0.00  0.00    +0.000 N 
ATOM      3  C   UNL     1       3.441   5.179  20.511  0.00  0.00    +0.000 C 
ATOM      4  C   UNL     1       3.878   3.706  19.434  0.00  0.00    +0.000 C 
ATOM      5  C   UNL     1       4.331   3.446  17.837  0.00  0.00    +0.000 C 
ATOM      6  C   UNL     1       3.824   4.408  16.812  0.00  0.00    +0.000 C 
ATOM      7  C   UNL     1       4.156   5.737  17.385  0.00  0.00    +0.000 C 
ATOM      8  C   UNL     1       2.944   6.545  17.200  0.00  0.00    +0.000 C 
ATOM      9  C   UNL     1       2.993   7.601  18.233  0.00  0.00    +0.000 C 
ATOM     10  C   UNL     1       1.891   8.494  17.826  0.00  0.00    +0.000 C 
ATOM     11  C   UNL     1       1.965   9.624  18.750  0.00  0.00    +0.000 C 
ATOM     12  C   UNL     1       0.962  10.590  18.256  0.00  0.00    +0.000 C 
ATOM     13  C   UNL     1       1.115  11.822  19.085  0.00  0.00    +0.000 C 
ATOM     14  C   UNL     1       0.156  12.712  18.614  0.00  0.00    +0.000 C 
ATOM     15  O   UNL     1      -0.928  12.638  17.973  0.00  0.00    +0.000 OA
ATOM     16  O   UNL     1       0.557  13.918  19.213  0.00  0.00    +0.000 OA
ATOM     17  C   UNL     1      -0.508  14.486  19.877  0.00  0.00    +0.000 C 
ATOM     18  C   UNL     1      -0.548  14.089  21.383  0.00  0.00    +0.000 C 
ATOM     19  C   UNL     1      -1.232  12.519  21.890  0.00  0.00    +0.000 C 
ATOM     20  C   UNL     1      -2.558  13.652  22.638  0.00  0.00    +0.000 C 
ATOM     21  C   UNL     1      -2.182  15.204  23.443  0.00  0.00    +0.000 C 
ATOM     22  C   UNL     1      -1.678  16.748  23.013  0.00  0.00    +0.000 C 
ATOM     23  C   UNL     1      -0.413  16.571  22.212  0.00  0.00    +0.000 C 
ATOM     24  C   UNL     1      -0.057  15.114  22.633  0.00  0.00    +0.000 C 
ATOM     25  N   UNL     1      -0.863  14.830  23.947  0.00  0.00    +0.000 NA
ATOM     26  C   UNL     1      -0.751  15.594  25.245  0.00  0.00    +0.000 C 
ATOM     27  C   UNL     1      -0.545  10.701  21.842  0.00  0.00    +0.000 A 
ATOM     28  C   UNL     1       0.757  10.087  22.223  0.00  0.00    +0.000 A 
ATOM     29  C   UNL     1       1.511   8.507  21.930  0.00  0.00    +0.000 A 
ATOM     30  C   UNL     1       1.059   7.282  21.208  0.00  0.00    +0.000 A 
ATOM     31  C   UNL     1      -0.321   7.821  20.961  0.00  0.00    +0.000 A 
ATOM     32  C   UNL     1      -1.058   9.417  21.214  0.00  0.00    +0.000 A 
ENDROOT
TORSDOF 0
ENDMDL
MODEL 3
REMARK VINA RESULT:      -5.9      2.662      4.181
REMARK  Name = 
REMARK  2 active torsions:
REMARK  status: ('A' for Active; 'I' for Inactive)
REMARK    1  A    between atoms: C_1  and  N_2
REMARK    2  A    between atoms: N_25  and  C_26
REMARK                            x       y       z     vdW  Elec       q    Type
REMARK                         _______ _______ _______ _____ _____    ______ ____
ROOT
ATOM      1  C   UNL     1       3.181  16.587  17.484  0.00  0.00    +0.000 C 
ATOM      2  N   UNL     1       2.577  15.448  18.293  0.00  0.00    +0.000 N 
ATOM      3  C   UNL     1       4.117  14.482  18.266  0.00  0.00    +0.000 C 
ATOM      4  C   UNL     1       5.858  15.161  18.088  0.00  0.00    +0.000 C 
ATOM      5  C   UNL     1       7.073  15.702  19.113  0.00  0.00    +0.000 C 
ATOM      6  C   UNL     1       6.657  16.320  20.409  0.00  0.00    +0.000 C 
ATOM      7  C   UNL     1       5.704  15.334  20.977  0.00  0.00    +0.000 C 
ATOM      8  C   UNL     1       4.568  16.133  21.452  0.00  0.00    +0.000 C 
ATOM      9  C   UNL     1       3.401  15.225  21.459  0.00  0.00    +0.000 C 
ATOM     10  C   UNL     1       2.383  16.022  22.167  0.00  0.00    +0.000 C 
ATOM     11  C   UNL     1       1.236  15.127  22.307  0.00  0.00    +0.000 C 
ATOM     12  C   UNL     1       0.269  15.867  23.144  0.00  0.00    +0.000 C 
ATOM     13  C   UNL     1      -0.850  14.924  23.434  0.00  0.00    +0.000 C 
ATOM     14  C   UNL     1      -1.752  15.641  24.211  0.00  0.00    +0.000 C 
ATOM     15  O   UNL     1      -2.018  16.856  24.423  0.00  0.00    +0.000 OA
ATOM     16  O   UNL     1      -2.600  14.626  24.688  0.00  0.00    +0.000 OA
ATOM     17  C   UNL     1      -3.912  14.952  24.425  0.00  0.00    +0.000 C 
ATOM     18  C   UNL     1      -4.417  14.340  23.084  0.00  0.00    +0.000 C 
ATOM     19  C   UNL     1      -4.041  15.131  21.528  0.00  0.00    +0.000 C 
ATOM     20  C   UNL     1      -5.914  15.439  21.549  0.00  0.00    +0.000 C 
ATOM     21  C   UNL     1      -7.101  14.227  22.115  0.00  0.00    +0.000 C 
ATOM     22  C   UNL     1      -7.602  13.549  23.568  0.00  0.00    +0.000 C 
ATOM     23  C   UNL     1      -6.360  13.008  24.230  0.00  0.00    +0.000 C 
ATOM     24  C   UNL     1      -5.413  12.979  22.994  0.00  0.00    +0.000 C 
ATOM     25  N   UNL     1      -6.341  13.040  21.733  0.00  0.00    +0.000 NA
ATOM     26  C   UNL     1      -7.411  12.040  21.363  0.00  0.00    +0.000 C 
ATOM     27  C   UNL     1      -2.437  15.195  20.431  0.00  0.00    +0.000 A 
ATOM     28  C   UNL     1      -1.471  14.162  19.967  0.00  0.00    +0.000 A 
ATOM     29  C   UNL     1       0.137  14.220  19.219  0.00  0.00    +0.000 A 
ATOM     30  C   UNL     1       1.027  15.344  18.805  0.00  0.00    +0.000 A 
ATOM     31  C   UNL     1      -0.002  16.396  19.110  0.00  0.00    +0.000 A 
ATOM     32  C   UNL     1      -1.591  16.338  19.901  0.00  0.00    +0.000 A 
ENDROOT
TORSDOF 0
ENDMDL
MODEL 4
REMARK VINA RESULT:      -5.8      4.374      6.761
REMARK  Name = 
REMARK  2 active torsions:
REMARK  status: ('A' for Active; 'I' for Inactive)
REMARK    1  A    between atoms: C_1  and  N_2
REMARK    2  A    between atoms: N_25  and  C_26
REMARK                            x       y       z     vdW  Elec       q    Type
REMARK                         _______ _______ _______ _____ _____    ______ ____
ROOT
ATOM      1  C   UNL     1       2.935   8.593  17.484  0.00  0.00    +0.000 C 
ATOM      2  N   UNL     1       1.477   8.757  17.889  0.00  0.00    +0.000 N 
ATOM      3  C   UNL     1       1.125   6.983  17.710  0.00  0.00    +0.000 C 
ATOM      4  C   UNL     1       2.361   5.579  17.868  0.00  0.00    +0.000 C 
ATOM      5  C   UNL     1       2.947   4.595  19.097  0.00  0.00    +0.000 C 
ATOM      6  C   UNL     1       2.986   5.165  20.478  0.00  0.00    +0.000 C 
ATOM      7  C   UNL     1       1.621   5.716  20.667  0.00  0.00    +0.000 C 
ATOM      8  C   UNL     1       1.825   7.044  21.258  0.00  0.00    +0.000 C 
ATOM      9  C   UNL     1       0.623   7.834  20.917  0.00  0.00    +0.000 C 
ATOM     10  C   UNL     1       0.796   9.046  21.739  0.00  0.00    +0.000 C 
ATOM     11  C   UNL     1      -0.427   9.819  21.530  0.00  0.00    +0.000 C 
ATOM     12  C   UNL     1      -0.326  10.960  22.464  0.00  0.00    +0.000 C 
ATOM     13  C   UNL     1      -1.626  11.688  22.387  0.00  0.00    +0.000 C 
ATOM     14  C   UNL     1      -1.507  12.761  23.262  0.00  0.00    +0.000 C 
ATOM     15  O   UNL     1      -0.566  13.417  23.787  0.00  0.00    +0.000 OA
ATOM     16  O   UNL     1      -2.836  13.205  23.365  0.00  0.00    +0.000 OA
ATOM     17  C   UNL     1      -2.900  14.555  23.102  0.00  0.00    +0.000 C 
ATOM     18  C   UNL     1      -3.224  14.854  21.608  0.00  0.00    +0.000 C 
ATOM     19  C   UNL     1      -1.935  14.803  20.373  0.00  0.00    +0.000 C 
ATOM     20  C   UNL     1      -2.282  16.669  20.333  0.00  0.00    +0.000 C 
ATOM     21  C   UNL     1      -3.926  17.363  20.439  0.00  0.00    +0.000 C 
ATOM     22  C   UNL     1      -5.125  17.572  21.597  0.00  0.00    +0.000 C 
ATOM     23  C   UNL     1      -5.395  16.206  22.175  0.00  0.00    +0.000 C 
ATOM     24  C   UNL     1      -4.748  15.334  21.059  0.00  0.00    +0.000 C 
ATOM     25  N   UNL     1      -4.630  16.256  19.798  0.00  0.00    +0.000 NA
ATOM     26  C   UNL     1      -5.773  16.933  19.078  0.00  0.00    +0.000 C 
ATOM     27  C   UNL     1      -1.028  13.341  19.468  0.00  0.00    +0.000 A 
ATOM     28  C   UNL     1      -1.502  12.093  18.808  0.00  0.00    +0.000 A 
ATOM     29  C   UNL     1      -0.701  10.617  18.235  0.00  0.00    +0.000 A 
ATOM     30  C   UNL     1       0.723  10.169  18.227  0.00  0.00    +0.000 A 
ATOM     31  C   UNL     1       1.239  11.486  18.735  0.00  0.00    +0.000 A 
ATOM     32  C   UNL     1       0.432  12.944  19.350  0.00  0.00    +0.000 A 
ENDROOT
TORSDOF 0
ENDMDL
MODEL 5
REMARK VINA RESULT:      -5.7      4.215     10.349
REMARK  Name = 
REMARK  2 active torsions:
REMARK  status: ('A' for Active; 'I' for Inactive)
REMARK    1  A    between atoms: C_1  and  N_2
REMARK    2  A    between atoms: N_25  and  C_26
REMARK                            x       y       z     vdW  Elec       q    Type
REMARK                         _______ _______ _______ _____ _____    ______ ____
ROOT
ATOM      1  C   UNL     1      -1.217  16.127  22.876  0.00  0.00    +0.000 C 
ATOM      2  N   UNL     1      -0.391  15.453  21.790  0.00  0.00    +0.000 N 
ATOM      3  C   UNL     1      -1.835  15.188  20.719  0.00  0.00    +0.000 C 
ATOM      4  C   UNL     1      -3.412  16.206  20.699  0.00  0.00    +0.000 C 
ATOM      5  C   UNL     1      -3.981  17.568  19.897  0.00  0.00    +0.000 C 
ATOM      6  C   UNL     1      -2.976  18.591  19.477  0.00  0.00    +0.000 C 
ATOM      7  C   UNL     1      -1.941  17.795  18.773  0.00  0.00    +0.000 C 
ATOM      8  C   UNL     1      -0.660  18.295  19.288  0.00  0.00    +0.000 C 
ATOM      9  C   UNL     1       0.313  17.198  19.105  0.00  0.00    +0.000 C 
ATOM     10  C   UNL     1       1.597  17.856  19.414  0.00  0.00    +0.000 C 
ATOM     11  C   UNL     1       2.614  16.845  19.136  0.00  0.00    +0.000 C 
ATOM     12  C   UNL     1       3.906  17.543  19.299  0.00  0.00    +0.000 C 
ATOM     13  C   UNL     1       4.965  16.581  18.875  0.00  0.00    +0.000 C 
ATOM     14  C   UNL     1       6.170  17.251  19.048  0.00  0.00    +0.000 C 
ATOM     15  O   UNL     1       6.587  18.230  19.726  0.00  0.00    +0.000 OA
ATOM     16  O   UNL     1       7.069  16.421  18.357  0.00  0.00    +0.000 OA
ATOM     17  C   UNL     1       8.134  16.105  19.171  0.00  0.00    +0.000 C 
ATOM     18  C   UNL     1       7.925  14.758  19.926  0.00  0.00    +0.000 C 
ATOM     19  C   UNL     1       6.934  14.696  21.411  0.00  0.00    +0.000 C 
ATOM     20  C   UNL     1       8.625  14.329  22.191  0.00  0.00    +0.000 C 
ATOM     21  C   UNL     1       9.851  13.277  21.425  0.00  0.00    +0.000 C 
ATOM     22  C   UNL     1      10.913  13.333  20.125  0.00  0.00    +0.000 C 
ATOM     23  C   UNL     1      10.079  13.664  18.914  0.00  0.00    +0.000 C 
ATOM     24  C   UNL     1       8.671  13.310  19.480  0.00  0.00    +0.000 C 
ATOM     25  N   UNL     1       8.920  12.395  20.727  0.00  0.00    +0.000 NA
ATOM     26  C   UNL     1       9.629  11.061  20.727  0.00  0.00    +0.000 C 
ATOM     27  C   UNL     1       5.015  14.706  21.720  0.00  0.00    +0.000 A 
ATOM     28  C   UNL     1       3.874  13.971  21.108  0.00  0.00    +0.000 A 
ATOM     29  C   UNL     1       2.110  14.160  21.162  0.00  0.00    +0.000 A 
ATOM     30  C   UNL     1       1.210  15.124  21.860  0.00  0.00    +0.000 A 
ATOM     31  C   UNL     1       2.335  15.770  22.619  0.00  0.00    +0.000 A 
ATOM     32  C   UNL     1       4.102  15.610  22.529  0.00  0.00    +0.000 A 
ENDROOT
TORSDOF 0
ENDMDL
MODEL 6
REMARK VINA RESULT:      -5.7      4.741     11.047
REMARK  Name = 
REMARK  2 active torsions:
REMARK  status: ('A' for Active; 'I' for Inactive)
REMARK    1  A    between atoms: C_1  and  N_2
REMARK    2  A    between atoms: N_25  and  C_26
REMARK                            x       y       z     vdW  Elec       q    Type
REMARK                         _______ _______ _______ _____ _____    ______ ____
ROOT
ATOM      1  C   UNL     1      -0.414  15.852  18.588  0.00  0.00    +0.000 C 
ATOM      2  N   UNL     1       0.863  16.605  18.934  0.00  0.00    +0.000 N 
ATOM      3  C   UNL     1      -0.043  18.050  19.561  0.00  0.00    +0.000 C 
ATOM      4  C   UNL     1      -1.781  18.057  20.270  0.00  0.00    +0.000 C 
ATOM      5  C   UNL     1      -2.488  17.872  21.782  0.00  0.00    +0.000 C 
ATOM      6  C   UNL     1      -1.780  17.006  22.773  0.00  0.00    +0.000 C 
ATOM      7  C   UNL     1      -0.388  17.520  22.754  0.00  0.00    +0.000 C 
ATOM      8  C   UNL     1       0.460  16.322  22.698  0.00  0.00    +0.000 C 
ATOM      9  C   UNL     1       1.737  16.751  22.091  0.00  0.00    +0.000 C 
ATOM     10  C   UNL     1       2.597  15.570  22.295  0.00  0.00    +0.000 C 
ATOM     11  C   UNL     1       3.915  15.979  21.815  0.00  0.00    +0.000 C 
ATOM     12  C   UNL     1       4.814  14.856  22.153  0.00  0.00    +0.000 C 
ATOM     13  C   UNL     1       6.197  15.302  21.815  0.00  0.00    +0.000 C 
ATOM     14  C   UNL     1       7.024  14.229  22.128  0.00  0.00    +0.000 C 
ATOM     15  O   UNL     1       6.893  12.984  22.280  0.00  0.00    +0.000 OA
ATOM     16  O   UNL     1       8.299  14.817  22.077  0.00  0.00    +0.000 OA
ATOM     17  C   UNL     1       9.121  14.079  21.254  0.00  0.00    +0.000 C 
ATOM     18  C   UNL     1       9.135  14.618  19.792  0.00  0.00    +0.000 C 
ATOM     19  C   UNL     1       7.824  14.190  18.656  0.00  0.00    +0.000 C 
ATOM     20  C   UNL     1       9.237  13.238  17.819  0.00  0.00    +0.000 C 
ATOM     21  C   UNL     1      10.899  13.879  17.673  0.00  0.00    +0.000 C 
ATOM     22  C   UNL     1      12.222  14.169  18.667  0.00  0.00    +0.000 C 
ATOM     23  C   UNL     1      11.720  15.037  19.793  0.00  0.00    +0.000 C 
ATOM     24  C   UNL     1      10.395  15.538  19.146  0.00  0.00    +0.000 C 
ATOM     25  N   UNL     1      10.542  15.293  17.605  0.00  0.00    +0.000 NA
ATOM     26  C   UNL     1      11.602  15.883  16.705  0.00  0.00    +0.000 C 
ATOM     27  C   UNL     1       5.998  14.822  18.447  0.00  0.00    +0.000 A 
ATOM     28  C   UNL     1       5.379  16.176  18.416  0.00  0.00    +0.000 A 
ATOM     29  C   UNL     1       3.712  16.776  18.515  0.00  0.00    +0.000 A 
ATOM     30  C   UNL     1       2.391  16.094  18.651  0.00  0.00    +0.000 A 
ATOM     31  C   UNL     1       2.980  14.719  18.514  0.00  0.00    +0.000 A 
ATOM     32  C   UNL     1       4.652  14.120  18.461  0.00  0.00    +0.000 A 
ENDROOT
TORSDOF 0
ENDMDL
MODEL 7
REMARK VINA RESULT:      -5.6      8.133      9.631
REMARK  Name = 
REMARK  2 active torsions:
REMARK  status: ('A' for Active; 'I' for Inactive)
REMARK    1  A    between atoms: C_1  and  N_2
REMARK    2  A    between atoms: N_25  and  C_26
REMARK                            x       y       z     vdW  Elec       q    Type
REMARK                         _______ _______ _______ _____ _____    ______ ____
ROOT
ATOM      1  C   UNL     1      10.182  15.893  19.271  0.00  0.00    +0.000 C 
ATOM      2  N   UNL     1       8.830  15.375  19.743  0.00  0.00    +0.000 N 
ATOM      3  C   UNL     1       8.743  14.120  18.430  0.00  0.00    +0.000 C 
ATOM      4  C   UNL     1      10.197  13.325  17.548  0.00  0.00    +0.000 C 
ATOM      5  C   UNL     1      11.174  11.977  17.766  0.00  0.00    +0.000 C 
ATOM      6  C   UNL     1      11.401  11.509  19.167  0.00  0.00    +0.000 C 
ATOM      7  C   UNL     1      10.032  11.432  19.735  0.00  0.00    +0.000 C 
ATOM      8  C   UNL     1      10.133  12.061  21.058  0.00  0.00    +0.000 C 
ATOM      9  C   UNL     1       8.775  12.540  21.390  0.00  0.00    +0.000 C 
ATOM     10  C   UNL     1       8.913  12.929  22.806  0.00  0.00    +0.000 C 
ATOM     11  C   UNL     1       7.564  13.305  23.224  0.00  0.00    +0.000 C 
ATOM     12  C   UNL     1       7.666  13.552  24.677  0.00  0.00    +0.000 C 
ATOM     13  C   UNL     1       6.277  13.791  25.167  0.00  0.00    +0.000 C 
ATOM     14  C   UNL     1       6.396  14.032  26.530  0.00  0.00    +0.000 C 
ATOM     15  O   UNL     1       7.305  14.409  27.319  0.00  0.00    +0.000 OA
ATOM     16  O   UNL     1       5.061  13.942  26.962  0.00  0.00    +0.000 OA
ATOM     17  C   UNL     1       4.726  15.068  27.681  0.00  0.00    +0.000 C 
ATOM     18  C   UNL     1       4.060  16.162  26.794  0.00  0.00    +0.000 C 
ATOM     19  C   UNL     1       5.060  17.252  25.795  0.00  0.00    +0.000 C 
ATOM     20  C   UNL     1       4.413  18.533  27.037  0.00  0.00    +0.000 C 
ATOM     21  C   UNL     1       2.735  18.541  27.653  0.00  0.00    +0.000 C 
ATOM     22  C   UNL     1       1.780  17.637  28.699  0.00  0.00    +0.000 C 
ATOM     23  C   UNL     1       1.860  16.211  28.216  0.00  0.00    +0.000 C 
ATOM     24  C   UNL     1       2.399  16.468  26.777  0.00  0.00    +0.000 C 
ATOM     25  N   UNL     1       2.104  17.974  26.464  0.00  0.00    +0.000 NA
ATOM     26  C   UNL     1       0.744  18.631  26.437  0.00  0.00    +0.000 C 
ATOM     27  C   UNL     1       5.988  17.015  24.103  0.00  0.00    +0.000 A 
ATOM     28  C   UNL     1       5.600  16.419  22.795  0.00  0.00    +0.000 A 
ATOM     29  C   UNL     1       6.496  15.930  21.344  0.00  0.00    +0.000 A 
ATOM     30  C   UNL     1       7.942  15.980  20.976  0.00  0.00    +0.000 A 
ATOM     31  C   UNL     1       8.329  16.734  22.216  0.00  0.00    +0.000 A 
ATOM     32  C   UNL     1       7.439  17.181  23.686  0.00  0.00    +0.000 A 
ENDROOT
TORSDOF 0
ENDMDL
MODEL 8
REMARK VINA RESULT:      -5.6      4.080      6.248
REMARK  Name = 
REMARK  2 active torsions:
REMARK  status: ('A' for Active; 'I' for Inactive)
REMARK    1  A    between atoms: C_1  and  N_2
REMARK    2  A    between atoms: N_25  and  C_26
REMARK                            x       y       z     vdW  Elec       q    Type
REMARK                         _______ _______ _______ _____ _____    ______ ____
ROOT
ATOM      1  C   UNL     1       2.488  10.993  18.204  0.00  0.00    +0.000 C 
ATOM      2  N   UNL     1       0.989  11.001  18.467  0.00  0.00    +0.000 N 
ATOM      3  C   UNL     1       0.782   9.286  17.901  0.00  0.00    +0.000 C 
ATOM      4  C   UNL     1       2.090   7.940  17.914  0.00  0.00    +0.000 C 
ATOM      5  C   UNL     1       2.618   6.754  18.980  0.00  0.00    +0.000 C 
ATOM      6  C   UNL     1       2.479   7.030  20.443  0.00  0.00    +0.000 C 
ATOM      7  C   UNL     1       1.066   7.464  20.583  0.00  0.00    +0.000 C 
ATOM      8  C   UNL     1       1.117   8.652  21.446  0.00  0.00    +0.000 C 
ATOM      9  C   UNL     1      -0.097   9.436  21.136  0.00  0.00    +0.000 C 
ATOM     10  C   UNL     1      -0.092  10.461  22.197  0.00  0.00    +0.000 C 
ATOM     11  C   UNL     1      -1.338  11.200  22.010  0.00  0.00    +0.000 C 
ATOM     12  C   UNL     1      -1.411  12.129  23.157  0.00  0.00    +0.000 C 
ATOM     13  C   UNL     1      -2.745  12.794  23.082  0.00  0.00    +0.000 C 
ATOM     14  C   UNL     1      -2.788  13.669  24.160  0.00  0.00    +0.000 C 
ATOM     15  O   UNL     1      -1.952  14.248  24.907  0.00  0.00    +0.000 OA
ATOM     16  O   UNL     1      -4.149  14.018  24.200  0.00  0.00    +0.000 OA
ATOM     17  C   UNL     1      -4.280  15.389  24.206  0.00  0.00    +0.000 C 
ATOM     18  C   UNL     1      -4.473  15.972  22.774  0.00  0.00    +0.000 C 
ATOM     19  C   UNL     1      -3.066  16.238  21.706  0.00  0.00    +0.000 C 
ATOM     20  C   UNL     1      -3.537  18.053  21.999  0.00  0.00    +0.000 C 
ATOM     21  C   UNL     1      -5.228  18.631  22.056  0.00  0.00    +0.000 C 
ATOM     22  C   UNL     1      -6.548  18.540  23.091  0.00  0.00    +0.000 C 
ATOM     23  C   UNL     1      -6.779  17.074  23.352  0.00  0.00    +0.000 C 
ATOM     24  C   UNL     1      -5.964  16.480  22.164  0.00  0.00    +0.000 C 
ATOM     25  N   UNL     1      -5.786  17.646  21.133  0.00  0.00    +0.000 NA
ATOM     26  C   UNL     1      -6.895  18.401  20.438  0.00  0.00    +0.000 C 
ATOM     27  C   UNL     1      -1.974  15.038  20.636  0.00  0.00    +0.000 A 
ATOM     28  C   UNL     1      -2.291  13.930  19.692  0.00  0.00    +0.000 A 
ATOM     29  C   UNL     1      -1.336  12.643  18.930  0.00  0.00    +0.000 A 
ATOM     30  C   UNL     1       0.109  12.275  18.993  0.00  0.00    +0.000 A 
ATOM     31  C   UNL     1       0.478  13.483  19.807  0.00  0.00    +0.000 A 
ATOM     32  C   UNL     1      -0.485  14.743  20.606  0.00  0.00    +0.000 A 
ENDROOT
TORSDOF 0
ENDMDL
MODEL 9
REMARK VINA RESULT:      -5.5      3.476      5.504
REMARK  Name = 
REMARK  2 active torsions:
REMARK  status: ('A' for Active; 'I' for Inactive)
REMARK    1  A    between atoms: C_1  and  N_2
REMARK    2  A    between atoms: N_25  and  C_26
REMARK                            x       y       z     vdW  Elec       q    Type
REMARK                         _______ _______ _______ _____ _____    ______ ____
ROOT
ATOM      1  C   UNL     1       9.787  14.759  22.001  0.00  0.00    +0.000 C 
ATOM      2  N   UNL     1       8.717  15.750  21.565  0.00  0.00    +0.000 N 
ATOM      3  C   UNL     1       9.935  16.914  20.883  0.00  0.00    +0.000 C 
ATOM      4  C   UNL     1      11.645  16.489  20.236  0.00  0.00    +0.000 C 
ATOM      5  C   UNL     1      12.323  16.051  18.763  0.00  0.00    +0.000 C 
ATOM      6  C   UNL     1      11.460  15.299  17.803  0.00  0.00    +0.000 C 
ATOM      7  C   UNL     1      10.217  16.108  17.742  0.00  0.00    +0.000 C 
ATOM      8  C   UNL     1       9.123  15.133  17.842  0.00  0.00    +0.000 C 
ATOM      9  C   UNL     1       7.961  15.873  18.377  0.00  0.00    +0.000 C 
ATOM     10  C   UNL     1       6.864  14.901  18.216  0.00  0.00    +0.000 C 
ATOM     11  C   UNL     1       5.661  15.622  18.624  0.00  0.00    +0.000 C 
ATOM     12  C   UNL     1       4.542  14.705  18.324  0.00  0.00    +0.000 C 
ATOM     13  C   UNL     1       3.286  15.468  18.587  0.00  0.00    +0.000 C 
ATOM     14  C   UNL     1       2.248  14.585  18.311  0.00  0.00    +0.000 C 
ATOM     15  O   UNL     1       2.101  13.335  18.241  0.00  0.00    +0.000 OA
ATOM     16  O   UNL     1       1.134  15.443  18.282  0.00  0.00    +0.000 OA
ATOM     17  C   UNL     1       0.153  14.962  19.120  0.00  0.00    +0.000 C 
ATOM     18  C   UNL     1       0.230  15.587  20.545  0.00  0.00    +0.000 C 
ATOM     19  C   UNL     1       1.389  14.958  21.749  0.00  0.00    +0.000 C 
ATOM     20  C   UNL     1      -0.217  14.400  22.594  0.00  0.00    +0.000 C 
ATOM     21  C   UNL     1      -1.698  15.400  22.643  0.00  0.00    +0.000 C 
ATOM     22  C   UNL     1      -2.902  15.907  21.588  0.00  0.00    +0.000 C 
ATOM     23  C   UNL     1      -2.197  16.566  20.430  0.00  0.00    +0.000 C 
ATOM     24  C   UNL     1      -0.807  16.804  21.090  0.00  0.00    +0.000 C 
ATOM     25  N   UNL     1      -1.035  16.702  22.637  0.00  0.00    +0.000 NA
ATOM     26  C   UNL     1      -1.955  17.570  23.462  0.00  0.00    +0.000 C 
ATOM     27  C   UNL     1       3.306  15.183  21.983  0.00  0.00    +0.000 A 
ATOM     28  C   UNL     1       4.210  16.366  21.953  0.00  0.00    +0.000 A 
ATOM     29  C   UNL     1       5.970  16.574  21.875  0.00  0.00    +0.000 A 
ATOM     30  C   UNL     1       7.109  15.610  21.826  0.00  0.00    +0.000 A 
ATOM     31  C   UNL     1       6.225  14.411  22.027  0.00  0.00    +0.000 A 
ATOM     32  C   UNL     1       4.461  14.202  22.058  0.00  0.00    +0.000 A 
ENDROOT
TORSDOF 0
ENDMDL
