MODEL 1
REMARK VINA RESULT:      -5.5      0.000      0.000
REMARK  Name = 
REMARK  11 active torsions:
REMARK  status: ('A' for Active; 'I' for Inactive)
REMARK    1  A    between atoms: C_1  and  C_2
REMARK    2  A    between atoms: C_2  and  C_3
REMARK    3  A    between atoms: C_2  and  C_4
REMARK    4  A    between atoms: C_4  and  C_5
REMARK    5  A    between atoms: C_5  and  C_6
REMARK    6  A    between atoms: C_5  and  C_8
REMARK    7  A    between atoms: C_6  and  S_7
REMARK    8  A    between atoms: N_10  and  C_11
REMARK    9  A    between atoms: C_11  and  C_12
REMARK   10  A    between atoms: C_12  and  S_13
REMARK   11  A    between atoms: S_13  and  O_16
REMARK                            x       y       z     vdW  Elec       q    Type
REMARK                         _______ _______ _______ _____ _____    ______ ____
ROOT
ATOM      1  C   UNL     1       4.549   4.074  18.916  0.00  0.00    +0.000 C 
ATOM      2  O   UNL     1       5.075   3.348  19.753  0.00  0.00    +0.000 OA
ATOM      3  N   UNL     1       5.271   4.788  17.983  0.00  0.00    +0.000 N 
ATOM      4  H   UNL     1       4.783   5.386  17.328  0.00  0.00    +0.000 HD
ENDROOT
BRANCH   1   5
ATOM      5  C   UNL     1       3.038   4.269  18.824  0.00  0.00    +0.000 C 
BRANCH   5   6
ATOM      6  C   UNL     1       2.492   4.284  20.270  0.00  0.00    +0.000 C 
BRANCH   6   8
ATOM      7  C   UNL     1       0.773   2.635  19.340  0.00  0.00    +0.000 C 
ATOM      8  C   UNL     1       1.205   3.480  20.537  0.00  0.00    +0.000 C 
ATOM      9  C   UNL     1       1.408   2.564  21.751  0.00  0.00    +0.000 C 
ENDBRANCH   6   8
ENDBRANCH   5   6
BRANCH   5  10
ATOM     10  C   UNL     1       2.745   5.563  18.053  0.00  0.00    +0.000 C 
BRANCH  10  11
ATOM     11  S   UNL     1       2.603   7.026  19.145  0.00  0.00    +0.000 S 
ATOM     12  H   UNL     1       3.862   7.022  19.602  0.00  0.00    +0.000 HD
ENDBRANCH  10  11
ENDBRANCH   5  10
ENDBRANCH   1   5
BRANCH   3  13
ATOM     13  C   UNL     1       6.725   4.765  18.001  0.00  0.00    +0.000 C 
BRANCH  13  14
ATOM     14  C   UNL     1       7.300   4.325  16.672  0.00  0.00    +0.000 C 
BRANCH  14  15
ATOM     15  S   UNL     1       6.706   5.384  15.369  0.00  0.00    +0.000 S 
ATOM     16  O   UNL     1       6.074   6.552  15.932  0.00  0.00    +0.000 OA
ATOM     17  O   UNL     1       7.691   5.453  14.315  0.00  0.00    +0.000 OA
BRANCH  15  18
ATOM     18  O   UNL     1       5.494   4.442  14.869  0.00  0.00    +0.000 OA
ATOM     19  H   UNL     1       5.842   3.872  14.148  0.00  0.00    +0.000 HD
ENDBRANCH  15  18
ENDBRANCH  14  15
ENDBRANCH  13  14
ENDBRANCH   3  13
TORSDOF 9
ENDMDL
MODEL 2
REMARK VINA RESULT:      -5.5      1.797      2.949
REMARK  Name = 
REMARK  11 active torsions:
REMARK  status: ('A' for Active; 'I' for Inactive)
REMARK    1  A    between atoms: C_1  and  C_2
REMARK    2  A    between atoms: C_2  and  C_3
REMARK    3  A    between atoms: C_2  and  C_4
REMARK    4  A    between atoms: C_4  and  C_5
REMARK    5  A    between atoms: C_5  and  C_6
REMARK    6  A    between atoms: C_5  and  C_8
REMARK    7  A    between atoms: C_6  and  S_7
REMARK    8  A    between atoms: N_10  and  C_11
REMARK    9  A    between atoms: C_11  and  C_12
REMARK   10  A    between atoms: C_12  and  S_13
REMARK   11  A    between atoms: S_13  and  O_16
REMARK                            x       y       z     vdW  Elec       q    Type
REMARK                         _______ _______ _______ _____ _____    ______ ____
ROOT
ATOM      1  C   UNL     1       4.708   4.074  19.007  0.00  0.00    +0.000 C 
ATOM      2  O   UNL     1       5.269   3.174  19.625  0.00  0.00    +0.000 OA
ATOM      3  N   UNL     1       5.393   5.092  18.378  0.00  0.00    +0.000 N 
ATOM      4  H   UNL     1       4.876   5.817  17.897  0.00  0.00    +0.000 HD
ENDROOT
BRANCH   1   5
ATOM      5  C   UNL     1       3.189   4.163  18.874  0.00  0.00    +0.000 C 
BRANCH   5   6
ATOM      6  C   UNL     1       2.888   5.279  17.848  0.00  0.00    +0.000 C 
BRANCH   6   8
ATOM      7  C   UNL     1       2.242   6.636  19.917  0.00  0.00    +0.000 C 
ATOM      8  C   UNL     1       2.245   6.570  18.391  0.00  0.00    +0.000 C 
ATOM      9  C   UNL     1       2.988   7.793  17.837  0.00  0.00    +0.000 C 
ENDBRANCH   6   8
ENDBRANCH   5   6
BRANCH   5  10
ATOM     10  C   UNL     1       2.641   2.792  18.457  0.00  0.00    +0.000 C 
BRANCH  10  11
ATOM     11  S   UNL     1       0.888   2.553  18.929  0.00  0.00    +0.000 S 
ATOM     12  H   UNL     1       0.340   3.142  17.858  0.00  0.00    +0.000 HD
ENDBRANCH  10  11
ENDBRANCH   5  10
ENDBRANCH   1   5
BRANCH   3  13
ATOM     13  C   UNL     1       6.840   5.183  18.486  0.00  0.00    +0.000 C 
BRANCH  13  14
ATOM     14  C   UNL     1       7.537   4.592  17.279  0.00  0.00    +0.000 C 
BRANCH  14  15
ATOM     15  S   UNL     1       6.754   5.161  15.784  0.00  0.00    +0.000 S 
ATOM     16  O   UNL     1       7.739   5.328  14.744  0.00  0.00    +0.000 OA
ATOM     17  O   UNL     1       5.514   4.449  15.586  0.00  0.00    +0.000 OA
BRANCH  15  18
ATOM     18  O   UNL     1       6.406   6.656  16.285  0.00  0.00    +0.000 OA
ATOM     19  H   UNL     1       6.009   6.582  17.182  0.00  0.00    +0.000 HD
ENDBRANCH  15  18
ENDBRANCH  14  15
ENDBRANCH  13  14
ENDBRANCH   3  13
TORSDOF 9
ENDMDL
MODEL 3
REMARK VINA RESULT:      -5.5      2.684      5.727
REMARK  Name = 
REMARK  11 active torsions:
REMARK  status: ('A' for Active; 'I' for Inactive)
REMARK    1  A    between atoms: C_1  and  C_2
REMARK    2  A    between atoms: C_2  and  C_3
REMARK    3  A    between atoms: C_2  and  C_4
REMARK    4  A    between atoms: C_4  and  C_5
REMARK    5  A    between atoms: C_5  and  C_6
REMARK    6  A    between atoms: C_5  and  C_8
REMARK    7  A    between atoms: C_6  and  S_7
REMARK    8  A    between atoms: N_10  and  C_11
REMARK    9  A    between atoms: C_11  and  C_12
REMARK   10  A    between atoms: C_12  and  S_13
REMARK   11  A    between atoms: S_13  and  O_16
REMARK                            x       y       z     vdW  Elec       q    Type
REMARK                         _______ _______ _______ _____ _____    ______ ____
ROOT
ATOM      1  C   UNL     1       4.492   5.885  17.251  0.00  0.00    +0.000 C 
ATOM      2  O   UNL     1       3.919   6.950  17.454  0.00  0.00    +0.000 OA
ATOM      3  N   UNL     1       4.304   4.770  18.040  0.00  0.00    +0.000 N 
ATOM      4  H   UNL     1       4.817   3.922  17.835  0.00  0.00    +0.000 HD
ENDROOT
BRANCH   1   5
ATOM      5  C   UNL     1       5.480   5.683  16.105  0.00  0.00    +0.000 C 
BRANCH   5   6
ATOM      6  C   UNL     1       6.900   5.741  16.713  0.00  0.00    +0.000 C 
BRANCH   6   8
ATOM      7  C   UNL     1       7.922   5.986  19.044  0.00  0.00    +0.000 C 
ATOM      8  C   UNL     1       7.092   6.647  17.945  0.00  0.00    +0.000 C 
ATOM      9  C   UNL     1       7.770   7.958  17.524  0.00  0.00    +0.000 C 
ENDBRANCH   6   8
ENDBRANCH   5   6
BRANCH   5  10
ATOM     10  C   UNL     1       5.174   4.350  15.408  0.00  0.00    +0.000 C 
BRANCH  10  11
ATOM     11  S   UNL     1       6.253   4.039  13.961  0.00  0.00    +0.000 S 
ATOM     12  H   UNL     1       7.360   4.617  14.445  0.00  0.00    +0.000 HD
ENDBRANCH  10  11
ENDBRANCH   5  10
ENDBRANCH   1   5
BRANCH   3  13
ATOM     13  C   UNL     1       3.452   4.836  19.218  0.00  0.00    +0.000 C 
BRANCH  13  14
ATOM     14  C   UNL     1       2.867   3.485  19.569  0.00  0.00    +0.000 C 
BRANCH  14  15
ATOM     15  S   UNL     1       2.551   2.551  18.086  0.00  0.00    +0.000 S 
ATOM     16  O   UNL     1       1.955   3.402  17.085  0.00  0.00    +0.000 OA
ATOM     17  O   UNL     1       3.671   1.682  17.814  0.00  0.00    +0.000 OA
BRANCH  15  18
ATOM     18  O   UNL     1       1.339   1.652  18.658  0.00  0.00    +0.000 OA
ATOM     19  H   UNL     1       1.590   0.708  18.540  0.00  0.00    +0.000 HD
ENDBRANCH  15  18
ENDBRANCH  14  15
ENDBRANCH  13  14
ENDBRANCH   3  13
TORSDOF 9
ENDMDL
MODEL 4
REMARK VINA RESULT:      -5.5      1.901      1.987
REMARK  Name = 
REMARK  11 active torsions:
REMARK  status: ('A' for Active; 'I' for Inactive)
REMARK    1  A    between atoms: C_1  and  C_2
REMARK    2  A    between atoms: C_2  and  C_3
REMARK    3  A    between atoms: C_2  and  C_4
REMARK    4  A    between atoms: C_4  and  C_5
REMARK    5  A    between atoms: C_5  and  C_6
REMARK    6  A    between atoms: C_5  and  C_8
REMARK    7  A    between atoms: C_6  and  S_7
REMARK    8  A    between atoms: N_10  and  C_11
REMARK    9  A    between atoms: C_11  and  C_12
REMARK   10  A    between atoms: C_12  and  S_13
REMARK   11  A    between atoms: S_13  and  O_16
REMARK                            x       y       z     vdW  Elec       q    Type
REMARK                         _______ _______ _______ _____ _____    ______ ____
ROOT
ATOM      1  C   UNL     1       5.228   5.027  19.130  0.00  0.00    +0.000 C 
ATOM      2  O   UNL     1       6.232   5.081  19.833  0.00  0.00    +0.000 OA
ATOM      3  N   UNL     1       5.063   5.798  17.999  0.00  0.00    +0.000 N 
ATOM      4  H   UNL     1       4.205   5.723  17.467  0.00  0.00    +0.000 HD
ENDROOT
BRANCH   1   5
ATOM      5  C   UNL     1       4.053   4.102  19.437  0.00  0.00    +0.000 C 
BRANCH   5   6
ATOM      6  C   UNL     1       2.951   4.968  20.086  0.00  0.00    +0.000 C 
BRANCH   6   8
ATOM      7  C   UNL     1       0.705   3.746  20.069  0.00  0.00    +0.000 C 
ATOM      8  C   UNL     1       1.881   4.229  20.914  0.00  0.00    +0.000 C 
ATOM      9  C   UNL     1       2.515   3.027  21.626  0.00  0.00    +0.000 C 
ENDBRANCH   6   8
ENDBRANCH   5   6
BRANCH   5  10
ATOM     10  C   UNL     1       3.601   3.419  18.139  0.00  0.00    +0.000 C 
BRANCH  10  11
ATOM     11  S   UNL     1       3.481   1.598  18.297  0.00  0.00    +0.000 S 
ATOM     12  H   UNL     1       2.760   1.377  17.190  0.00  0.00    +0.000 HD
ENDBRANCH  10  11
ENDBRANCH   5  10
ENDBRANCH   1   5
BRANCH   3  13
ATOM     13  C   UNL     1       6.064   6.784  17.626  0.00  0.00    +0.000 C 
BRANCH  13  14
ATOM     14  C   UNL     1       7.236   6.156  16.903  0.00  0.00    +0.000 C 
BRANCH  14  15
ATOM     15  S   UNL     1       6.661   5.252  15.480  0.00  0.00    +0.000 S 
ATOM     16  O   UNL     1       5.296   5.611  15.185  0.00  0.00    +0.000 OA
ATOM     17  O   UNL     1       7.700   5.217  14.478  0.00  0.00    +0.000 OA
BRANCH  15  18
ATOM     18  O   UNL     1       6.579   3.797  16.175  0.00  0.00    +0.000 OA
ATOM     19  H   UNL     1       7.441   3.348  16.023  0.00  0.00    +0.000 HD
ENDBRANCH  15  18
ENDBRANCH  14  15
ENDBRANCH  13  14
ENDBRANCH   3  13
TORSDOF 9
ENDMDL
MODEL 5
REMARK VINA RESULT:      -5.5      2.656      3.203
REMARK  Name = 
REMARK  11 active torsions:
REMARK  status: ('A' for Active; 'I' for Inactive)
REMARK    1  A    between atoms: C_1  and  C_2
REMARK    2  A    between atoms: C_2  and  C_3
REMARK    3  A    between atoms: C_2  and  C_4
REMARK    4  A    between atoms: C_4  and  C_5
REMARK    5  A    between atoms: C_5  and  C_6
REMARK    6  A    between atoms: C_5  and  C_8
REMARK    7  A    between atoms: C_6  and  S_7
REMARK    8  A    between atoms: N_10  and  C_11
REMARK    9  A    between atoms: C_11  and  C_12
REMARK   10  A    between atoms: C_12  and  S_13
REMARK   11  A    between atoms: S_13  and  O_16
REMARK                            x       y       z     vdW  Elec       q    Type
REMARK                         _______ _______ _______ _____ _____    ______ ____
ROOT
ATOM      1  C   UNL     1       3.501   5.069  17.813  0.00  0.00    +0.000 C 
ATOM      2  O   UNL     1       2.871   6.114  17.686  0.00  0.00    +0.000 OA
ATOM      3  N   UNL     1       4.787   4.907  17.344  0.00  0.00    +0.000 N 
ATOM      4  H   UNL     1       5.251   4.016  17.463  0.00  0.00    +0.000 HD
ENDROOT
BRANCH   1   5
ATOM      5  C   UNL     1       2.923   3.834  18.501  0.00  0.00    +0.000 C 
BRANCH   5   6
ATOM      6  C   UNL     1       1.425   4.117  18.758  0.00  0.00    +0.000 C 
BRANCH   6   8
ATOM      7  C   UNL     1       1.297   2.925  21.017  0.00  0.00    +0.000 C 
ATOM      8  C   UNL     1       0.974   4.193  20.230  0.00  0.00    +0.000 C 
ATOM      9  C   UNL     1       1.641   5.393  20.915  0.00  0.00    +0.000 C 
ENDBRANCH   6   8
ENDBRANCH   5   6
BRANCH   5  10
ATOM     10  C   UNL     1       3.164   2.607  17.612  0.00  0.00    +0.000 C 
BRANCH  10  11
ATOM     11  S   UNL     1       3.872   1.190  18.531  0.00  0.00    +0.000 S 
ATOM     12  H   UNL     1       2.736   0.772  19.104  0.00  0.00    +0.000 HD
ENDBRANCH  10  11
ENDBRANCH   5  10
ENDBRANCH   1   5
BRANCH   3  13
ATOM     13  C   UNL     1       5.438   5.971  16.596  0.00  0.00    +0.000 C 
BRANCH  13  14
ATOM     14  C   UNL     1       6.418   6.746  17.451  0.00  0.00    +0.000 C 
BRANCH  14  15
ATOM     15  S   UNL     1       7.305   5.635  18.523  0.00  0.00    +0.000 S 
ATOM     16  O   UNL     1       6.505   5.323  19.682  0.00  0.00    +0.000 OA
ATOM     17  O   UNL     1       7.970   4.627  17.731  0.00  0.00    +0.000 OA
BRANCH  15  18
ATOM     18  O   UNL     1       8.416   6.686  19.042  0.00  0.00    +0.000 OA
ATOM     19  H   UNL     1       8.438   6.632  20.023  0.00  0.00    +0.000 HD
ENDBRANCH  15  18
ENDBRANCH  14  15
ENDBRANCH  13  14
ENDBRANCH   3  13
TORSDOF 9
ENDMDL
MODEL 6
REMARK VINA RESULT:      -5.5      1.885      2.211
REMARK  Name = 
REMARK  11 active torsions:
REMARK  status: ('A' for Active; 'I' for Inactive)
REMARK    1  A    between atoms: C_1  and  C_2
REMARK    2  A    between atoms: C_2  and  C_3
REMARK    3  A    between atoms: C_2  and  C_4
REMARK    4  A    between atoms: C_4  and  C_5
REMARK    5  A    between atoms: C_5  and  C_6
REMARK    6  A    between atoms: C_5  and  C_8
REMARK    7  A    between atoms: C_6  and  S_7
REMARK    8  A    between atoms: N_10  and  C_11
REMARK    9  A    between atoms: C_11  and  C_12
REMARK   10  A    between atoms: C_12  and  S_13
REMARK   11  A    between atoms: S_13  and  O_16
REMARK                            x       y       z     vdW  Elec       q    Type
REMARK                         _______ _______ _______ _____ _____    ______ ____
ROOT
ATOM      1  C   UNL     1       3.273   4.782  17.502  0.00  0.00    +0.000 C 
ATOM      2  O   UNL     1       3.005   3.724  16.941  0.00  0.00    +0.000 OA
ATOM      3  N   UNL     1       4.326   5.587  17.123  0.00  0.00    +0.000 N 
ATOM      4  H   UNL     1       4.510   6.441  17.635  0.00  0.00    +0.000 HD
ENDROOT
BRANCH   1   5
ATOM      5  C   UNL     1       2.470   5.315  18.687  0.00  0.00    +0.000 C 
BRANCH   5   6
ATOM      6  C   UNL     1       2.570   4.263  19.814  0.00  0.00    +0.000 C 
BRANCH   6   8
ATOM      7  C   UNL     1       0.666   2.668  19.205  0.00  0.00    +0.000 C 
ATOM      8  C   UNL     1       1.255   3.598  20.265  0.00  0.00    +0.000 C 
ATOM      9  C   UNL     1       1.491   2.802  21.555  0.00  0.00    +0.000 C 
ENDBRANCH   6   8
ENDBRANCH   5   6
BRANCH   5  10
ATOM     10  C   UNL     1       3.023   6.689  19.089  0.00  0.00    +0.000 C 
BRANCH  10  11
ATOM     11  S   UNL     1       2.190   8.072  18.227  0.00  0.00    +0.000 S 
ATOM     12  H   UNL     1       1.747   8.713  19.317  0.00  0.00    +0.000 HD
ENDBRANCH  10  11
ENDBRANCH   5  10
ENDBRANCH   1   5
BRANCH   3  13
ATOM     13  C   UNL     1       5.228   5.168  16.062  0.00  0.00    +0.000 C 
BRANCH  13  14
ATOM     14  C   UNL     1       6.202   4.109  16.532  0.00  0.00    +0.000 C 
BRANCH  14  15
ATOM     15  S   UNL     1       7.261   4.772  17.801  0.00  0.00    +0.000 S 
ATOM     16  O   UNL     1       6.501   5.009  19.004  0.00  0.00    +0.000 OA
ATOM     17  O   UNL     1       8.522   4.070  17.793  0.00  0.00    +0.000 OA
BRANCH  15  18
ATOM     18  O   UNL     1       7.488   6.229  17.145  0.00  0.00    +0.000 OA
ATOM     19  H   UNL     1       6.616   6.685  17.129  0.00  0.00    +0.000 HD
ENDBRANCH  15  18
ENDBRANCH  14  15
ENDBRANCH  13  14
ENDBRANCH   3  13
TORSDOF 9
ENDMDL
MODEL 7
REMARK VINA RESULT:      -5.4      1.874      2.829
REMARK  Name = 
REMARK  11 active torsions:
REMARK  status: ('A' for Active; 'I' for Inactive)
REMARK    1  A    between atoms: C_1  and  C_2
REMARK    2  A    between atoms: C_2  and  C_3
REMARK    3  A    between atoms: C_2  and  C_4
REMARK    4  A    between atoms: C_4  and  C_5
REMARK    5  A    between atoms: C_5  and  C_6
REMARK    6  A    between atoms: C_5  and  C_8
REMARK    7  A    between atoms: C_6  and  S_7
REMARK    8  A    between atoms: N_10  and  C_11
REMARK    9  A    between atoms: C_11  and  C_12
REMARK   10  A    between atoms: C_12  and  S_13
REMARK   11  A    between atoms: S_13  and  O_16
REMARK                            x       y       z     vdW  Elec       q    Type
REMARK                         _______ _______ _______ _____ _____    ______ ____
ROOT
ATOM      1  C   UNL     1       4.672   4.545  19.296  0.00  0.00    +0.000 C 
ATOM      2  O   UNL     1       5.127   3.409  19.386  0.00  0.00    +0.000 OA
ATOM      3  N   UNL     1       5.445   5.639  18.970  0.00  0.00    +0.000 N 
ATOM      4  H   UNL     1       5.018   6.555  18.928  0.00  0.00    +0.000 HD
ENDROOT
BRANCH   1   5
ATOM      5  C   UNL     1       3.200   4.867  19.542  0.00  0.00    +0.000 C 
BRANCH   5   6
ATOM      6  C   UNL     1       2.782   5.916  18.487  0.00  0.00    +0.000 C 
BRANCH   6   8
ATOM      7  C   UNL     1       2.010   8.287  17.919  0.00  0.00    +0.000 C 
ATOM      8  C   UNL     1       2.630   7.371  18.973  0.00  0.00    +0.000 C 
ATOM      9  C   UNL     1       1.766   7.407  20.240  0.00  0.00    +0.000 C 
ENDBRANCH   6   8
ENDBRANCH   5   6
BRANCH   5  10
ATOM     10  C   UNL     1       2.383   3.571  19.464  0.00  0.00    +0.000 C 
BRANCH  10  11
ATOM     11  S   UNL     1       1.453   3.222  21.002  0.00  0.00    +0.000 S 
ATOM     12  H   UNL     1       1.151   1.945  20.735  0.00  0.00    +0.000 HD
ENDBRANCH  10  11
ENDBRANCH   5  10
ENDBRANCH   1   5
BRANCH   3  13
ATOM     13  C   UNL     1       6.881   5.498  18.787  0.00  0.00    +0.000 C 
BRANCH  13  14
ATOM     14  C   UNL     1       7.360   6.181  17.523  0.00  0.00    +0.000 C 
BRANCH  14  15
ATOM     15  S   UNL     1       6.673   5.371  16.094  0.00  0.00    +0.000 S 
ATOM     16  O   UNL     1       5.288   5.741  15.935  0.00  0.00    +0.000 OA
ATOM     17  O   UNL     1       7.627   5.411  15.011  0.00  0.00    +0.000 OA
BRANCH  15  18
ATOM     18  O   UNL     1       6.648   3.872  16.693  0.00  0.00    +0.000 OA
ATOM     19  H   UNL     1       7.161   3.301  16.079  0.00  0.00    +0.000 HD
ENDBRANCH  15  18
ENDBRANCH  14  15
ENDBRANCH  13  14
ENDBRANCH   3  13
TORSDOF 9
ENDMDL
MODEL 8
REMARK VINA RESULT:      -5.4      1.697      2.010
REMARK  Name = 
REMARK  11 active torsions:
REMARK  status: ('A' for Active; 'I' for Inactive)
REMARK    1  A    between atoms: C_1  and  C_2
REMARK    2  A    between atoms: C_2  and  C_3
REMARK    3  A    between atoms: C_2  and  C_4
REMARK    4  A    between atoms: C_4  and  C_5
REMARK    5  A    between atoms: C_5  and  C_6
REMARK    6  A    between atoms: C_5  and  C_8
REMARK    7  A    between atoms: C_6  and  S_7
REMARK    8  A    between atoms: N_10  and  C_11
REMARK    9  A    between atoms: C_11  and  C_12
REMARK   10  A    between atoms: C_12  and  S_13
REMARK   11  A    between atoms: S_13  and  O_16
REMARK                            x       y       z     vdW  Elec       q    Type
REMARK                         _______ _______ _______ _____ _____    ______ ____
ROOT
ATOM      1  C   UNL     1       3.371   5.237  18.867  0.00  0.00    +0.000 C 
ATOM      2  O   UNL     1       3.342   4.672  17.778  0.00  0.00    +0.000 OA
ATOM      3  N   UNL     1       4.541   5.482  19.553  0.00  0.00    +0.000 N 
ATOM      4  H   UNL     1       4.502   5.936  20.457  0.00  0.00    +0.000 HD
ENDROOT
BRANCH   1   5
ATOM      5  C   UNL     1       2.111   5.723  19.580  0.00  0.00    +0.000 C 
BRANCH   5   6
ATOM      6  C   UNL     1       2.057   5.004  20.947  0.00  0.00    +0.000 C 
BRANCH   6   8
ATOM      7  C   UNL     1       0.777   3.223  19.632  0.00  0.00    +0.000 C 
ATOM      8  C   UNL     1       1.309   3.657  20.996  0.00  0.00    +0.000 C 
ATOM      9  C   UNL     1       2.241   2.566  21.542  0.00  0.00    +0.000 C 
ENDBRANCH   6   8
ENDBRANCH   5   6
BRANCH   5  10
ATOM     10  C   UNL     1       2.162   7.252  19.701  0.00  0.00    +0.000 C 
BRANCH  10  11
ATOM     11  S   UNL     1       2.338   8.089  18.081  0.00  0.00    +0.000 S 
ATOM     12  H   UNL     1       1.444   9.064  18.294  0.00  0.00    +0.000 HD
ENDBRANCH  10  11
ENDBRANCH   5  10
ENDBRANCH   1   5
BRANCH   3  13
ATOM     13  C   UNL     1       5.813   5.004  19.035  0.00  0.00    +0.000 C 
BRANCH  13  14
ATOM     14  C   UNL     1       6.274   5.806  17.837  0.00  0.00    +0.000 C 
BRANCH  14  15
ATOM     15  S   UNL     1       7.040   4.732  16.641  0.00  0.00    +0.000 S 
ATOM     16  O   UNL     1       8.240   4.154  17.194  0.00  0.00    +0.000 OA
ATOM     17  O   UNL     1       6.026   3.951  15.972  0.00  0.00    +0.000 OA
BRANCH  15  18
ATOM     18  O   UNL     1       7.549   5.879  15.625  0.00  0.00    +0.000 OA
ATOM     19  H   UNL     1       6.817   6.528  15.522  0.00  0.00    +0.000 HD
ENDBRANCH  15  18
ENDBRANCH  14  15
ENDBRANCH  13  14
ENDBRANCH   3  13
TORSDOF 9
ENDMDL
MODEL 9
REMARK VINA RESULT:      -5.4      1.291      1.887
REMARK  Name = 
REMARK  11 active torsions:
REMARK  status: ('A' for Active; 'I' for Inactive)
REMARK    1  A    between atoms: C_1  and  C_2
REMARK    2  A    between atoms: C_2  and  C_3
REMARK    3  A    between atoms: C_2  and  C_4
REMARK    4  A    between atoms: C_4  and  C_5
REMARK    5  A    between atoms: C_5  and  C_6
REMARK    6  A    between atoms: C_5  and  C_8
REMARK    7  A    between atoms: C_6  and  S_7
REMARK    8  A    between atoms: N_10  and  C_11
REMARK    9  A    between atoms: C_11  and  C_12
REMARK   10  A    between atoms: C_12  and  S_13
REMARK   11  A    between atoms: S_13  and  O_16
REMARK                            x       y       z     vdW  Elec       q    Type
REMARK                         _______ _______ _______ _____ _____    ______ ____
ROOT
ATOM      1  C   UNL     1       4.872   3.890  18.779  0.00  0.00    +0.000 C 
ATOM      2  O   UNL     1       5.312   3.227  19.713  0.00  0.00    +0.000 OA
ATOM      3  N   UNL     1       5.682   4.573  17.897  0.00  0.00    +0.000 N 
ATOM      4  H   UNL     1       5.261   5.119  17.156  0.00  0.00    +0.000 HD
ENDROOT
BRANCH   1   5
ATOM      5  C   UNL     1       3.378   4.032  18.498  0.00  0.00    +0.000 C 
BRANCH   5   6
ATOM      6  C   UNL     1       2.651   3.961  19.860  0.00  0.00    +0.000 C 
BRANCH   6   8
ATOM      7  C   UNL     1       1.347   2.615  21.601  0.00  0.00    +0.000 C 
ATOM      8  C   UNL     1       1.872   2.666  20.168  0.00  0.00    +0.000 C 
ATOM      9  C   UNL     1       0.694   2.526  19.195  0.00  0.00    +0.000 C 
ENDBRANCH   6   8
ENDBRANCH   5   6
BRANCH   5  10
ATOM     10  C   UNL     1       3.132   5.348  17.749  0.00  0.00    +0.000 C 
BRANCH  10  11
ATOM     11  S   UNL     1       2.629   6.716  18.858  0.00  0.00    +0.000 S 
ATOM     12  H   UNL     1       3.821   6.915  19.436  0.00  0.00    +0.000 HD
ENDBRANCH  10  11
ENDBRANCH   5  10
ENDBRANCH   1   5
BRANCH   3  13
ATOM     13  C   UNL     1       7.124   4.596  18.087  0.00  0.00    +0.000 C 
BRANCH  13  14
ATOM     14  C   UNL     1       7.618   5.966  18.499  0.00  0.00    +0.000 C 
BRANCH  14  15
ATOM     15  S   UNL     1       7.186   7.170  17.259  0.00  0.00    +0.000 S 
ATOM     16  O   UNL     1       5.754   7.332  17.207  0.00  0.00    +0.000 OA
ATOM     17  O   UNL     1       8.103   8.283  17.327  0.00  0.00    +0.000 OA
BRANCH  15  18
ATOM     18  O   UNL     1       7.564   6.282  15.965  0.00  0.00    +0.000 OA
ATOM     19  H   UNL     1       8.494   5.981  16.074  0.00  0.00    +0.000 HD
ENDBRANCH  15  18
ENDBRANCH  14  15
ENDBRANCH  13  14
ENDBRANCH   3  13
TORSDOF 9
ENDMDL
