MODEL 1
REMARK VINA RESULT:      -7.4      0.000      0.000
REMARK  Name = 
REMARK  10 active torsions:
REMARK  status: ('A' for Active; 'I' for Inactive)
REMARK    1  A    between atoms: C_1  and  C_2
REMARK    2  A    between atoms: C_2  and  O_3
REMARK    3  A    between atoms: O_3  and  C_4
REMARK    4  A    between atoms: C_12  and  O_13
REMARK    5  A    between atoms: O_13  and  C_14
REMARK    6  A    between atoms: C_15  and  O_16
REMARK    7  A    between atoms: O_16  and  C_17
REMARK    8  A    between atoms: N_21  and  C_22
REMARK    9  A    between atoms: C_26  and  O_27
REMARK   10  A    between atoms: O_27  and  C_28
REMARK                            x       y       z     vdW  Elec       q    Type
REMARK                         _______ _______ _______ _____ _____    ______ ____
ROOT
ATOM      1  C   UNL     1      -2.052  12.394  22.512  0.00  0.00    +0.000 A 
ATOM      2  C   UNL     1      -1.258  11.383  23.067  0.00  0.00    +0.000 A 
ATOM      3  C   UNL     1      -0.513  10.495  22.272  0.00  0.00    +0.000 A 
ATOM      4  C   UNL     1       0.092   9.345  22.795  0.00  0.00    +0.000 A 
ATOM      5  C   UNL     1       0.806   8.463  21.969  0.00  0.00    +0.000 A 
ATOM      6  C   UNL     1       1.096   8.781  20.626  0.00  0.00    +0.000 A 
ATOM      7  C   UNL     1       1.893   7.963  19.756  0.00  0.00    +0.000 A 
ATOM      8  C   UNL     1       2.361   6.657  20.054  0.00  0.00    +0.000 A 
ATOM      9  C   UNL     1       3.104   5.866  19.146  0.00  0.00    +0.000 A 
ATOM     10  C   UNL     1       3.467   6.421  17.915  0.00  0.00    +0.000 A 
ATOM     11  C   UNL     1       3.034   7.718  17.614  0.00  0.00    +0.000 A 
ATOM     12  C   UNL     1       2.243   8.467  18.500  0.00  0.00    +0.000 A 
ATOM     13  C   UNL     1       1.839   9.744  18.152  0.00  0.00    +0.000 A 
ATOM     14  N   UNL     1       1.080  10.504  18.964  0.00  0.00    +0.000 N 
ATOM     15  C   UNL     1       1.055  11.956  18.673  0.00  0.00    +0.000 C 
ATOM     16  C   UNL     1       0.566  10.009  20.139  0.00  0.00    +0.000 A 
ATOM     17  C   UNL     1      -0.405  10.733  20.898  0.00  0.00    +0.000 A 
ATOM     18  C   UNL     1      -1.343  11.637  20.347  0.00  0.00    +0.000 A 
ATOM     19  C   UNL     1      -2.175  12.440  21.128  0.00  0.00    +0.000 A 
ENDROOT
BRANCH   9  20
ATOM     20  O   UNL     1       3.481   4.584  19.450  0.00  0.00    +0.000 OA
ATOM     21  C   UNL     1       2.558   3.555  19.081  0.00  0.00    +0.000 C 
ENDBRANCH   9  20
BRANCH  10  22
ATOM     22  O   UNL     1       4.166   5.891  16.870  0.00  0.00    +0.000 OA
ATOM     23  C   UNL     1       5.458   6.364  16.530  0.00  0.00    +0.000 C 
ENDBRANCH  10  22
BRANCH  19  24
ATOM     24  O   UNL     1      -3.014  13.237  20.391  0.00  0.00    +0.000 OA
ATOM     25  C   UNL     1      -4.231  12.625  19.959  0.00  0.00    +0.000 C 
ENDBRANCH  19  24
BRANCH   1  26
ATOM     26  O   UNL     1      -2.822  13.251  23.233  0.00  0.00    +0.000 OA
BRANCH  26  28
ATOM     27  C   UNL     1      -5.027  13.983  23.754  0.00  0.00    +0.000 C 
ATOM     28  C   UNL     1      -4.054  12.812  23.787  0.00  0.00    +0.000 C 
ENDBRANCH  26  28
ENDBRANCH   1  26
TORSDOF 5
ENDMDL
MODEL 2
REMARK VINA RESULT:      -7.3      1.164      1.378
REMARK  Name = 
REMARK  10 active torsions:
REMARK  status: ('A' for Active; 'I' for Inactive)
REMARK    1  A    between atoms: C_1  and  C_2
REMARK    2  A    between atoms: C_2  and  O_3
REMARK    3  A    between atoms: O_3  and  C_4
REMARK    4  A    between atoms: C_12  and  O_13
REMARK    5  A    between atoms: O_13  and  C_14
REMARK    6  A    between atoms: C_15  and  O_16
REMARK    7  A    between atoms: O_16  and  C_17
REMARK    8  A    between atoms: N_21  and  C_22
REMARK    9  A    between atoms: C_26  and  O_27
REMARK   10  A    between atoms: O_27  and  C_28
REMARK                            x       y       z     vdW  Elec       q    Type
REMARK                         _______ _______ _______ _____ _____    ______ ____
ROOT
ATOM      1  C   UNL     1      -1.367  11.922  21.436  0.00  0.00    +0.000 A 
ATOM      2  C   UNL     1      -0.658  10.965  22.172  0.00  0.00    +0.000 A 
ATOM      3  C   UNL     1       0.071   9.934  21.554  0.00  0.00    +0.000 A 
ATOM      4  C   UNL     1       0.586   8.845  22.268  0.00  0.00    +0.000 A 
ATOM      5  C   UNL     1       1.285   7.817  21.618  0.00  0.00    +0.000 A 
ATOM      6  C   UNL     1       1.653   7.919  20.260  0.00  0.00    +0.000 A 
ATOM      7  C   UNL     1       2.440   6.943  19.560  0.00  0.00    +0.000 A 
ATOM      8  C   UNL     1       2.819   5.674  20.069  0.00  0.00    +0.000 A 
ATOM      9  C   UNL     1       3.557   4.722  19.324  0.00  0.00    +0.000 A 
ATOM     10  C   UNL     1       4.005   5.071  18.048  0.00  0.00    +0.000 A 
ATOM     11  C   UNL     1       3.661   6.330  17.540  0.00  0.00    +0.000 A 
ATOM     12  C   UNL     1       2.875   7.240  18.266  0.00  0.00    +0.000 A 
ATOM     13  C   UNL     1       2.560   8.470  17.716  0.00  0.00    +0.000 A 
ATOM     14  N   UNL     1       1.810   9.378  18.369  0.00  0.00    +0.000 N 
ATOM     15  C   UNL     1       1.880  10.771  17.870  0.00  0.00    +0.000 C 
ATOM     16  C   UNL     1       1.216   9.087  19.574  0.00  0.00    +0.000 A 
ATOM     17  C   UNL     1       0.254   9.962  20.168  0.00  0.00    +0.000 A 
ATOM     18  C   UNL     1      -0.605  10.820  19.443  0.00  0.00    +0.000 A 
ATOM     19  C   UNL     1      -1.424  11.770  20.055  0.00  0.00    +0.000 A 
ENDROOT
BRANCH   9  20
ATOM     20  O   UNL     1       3.845   3.481  19.830  0.00  0.00    +0.000 OA
ATOM     21  C   UNL     1       2.723   2.636  20.096  0.00  0.00    +0.000 C 
ENDBRANCH   9  20
BRANCH  10  22
ATOM     22  O   UNL     1       4.720   4.360  17.128  0.00  0.00    +0.000 OA
ATOM     23  C   UNL     1       5.556   5.004  16.183  0.00  0.00    +0.000 C 
ENDBRANCH  10  22
BRANCH  19  24
ATOM     24  O   UNL     1      -2.182  12.491  19.167  0.00  0.00    +0.000 OA
ATOM     25  C   UNL     1      -3.424  11.896  18.786  0.00  0.00    +0.000 C 
ENDBRANCH  19  24
BRANCH   1  26
ATOM     26  O   UNL     1      -2.118  12.913  21.984  0.00  0.00    +0.000 OA
BRANCH  26  28
ATOM     27  C   UNL     1      -4.485  12.887  22.240  0.00  0.00    +0.000 C 
ATOM     28  C   UNL     1      -3.148  12.599  22.911  0.00  0.00    +0.000 C 
ENDBRANCH  26  28
ENDBRANCH   1  26
TORSDOF 5
ENDMDL
MODEL 3
REMARK VINA RESULT:      -7.2      1.628      1.942
REMARK  Name = 
REMARK  10 active torsions:
REMARK  status: ('A' for Active; 'I' for Inactive)
REMARK    1  A    between atoms: C_1  and  C_2
REMARK    2  A    between atoms: C_2  and  O_3
REMARK    3  A    between atoms: O_3  and  C_4
REMARK    4  A    between atoms: C_12  and  O_13
REMARK    5  A    between atoms: O_13  and  C_14
REMARK    6  A    between atoms: C_15  and  O_16
REMARK    7  A    between atoms: O_16  and  C_17
REMARK    8  A    between atoms: N_21  and  C_22
REMARK    9  A    between atoms: C_26  and  O_27
REMARK   10  A    between atoms: O_27  and  C_28
REMARK                            x       y       z     vdW  Elec       q    Type
REMARK                         _______ _______ _______ _____ _____    ______ ____
ROOT
ATOM      1  C   UNL     1      -1.025  12.180  21.280  0.00  0.00    +0.000 A 
ATOM      2  C   UNL     1      -0.412  11.216  22.089  0.00  0.00    +0.000 A 
ATOM      3  C   UNL     1       0.202  10.070  21.553  0.00  0.00    +0.000 A 
ATOM      4  C   UNL     1       0.607   8.993  22.351  0.00  0.00    +0.000 A 
ATOM      5  C   UNL     1       1.192   7.850  21.783  0.00  0.00    +0.000 A 
ATOM      6  C   UNL     1       1.558   7.808  20.422  0.00  0.00    +0.000 A 
ATOM      7  C   UNL     1       2.235   6.705  19.801  0.00  0.00    +0.000 A 
ATOM      8  C   UNL     1       2.486   5.446  20.407  0.00  0.00    +0.000 A 
ATOM      9  C   UNL     1       3.116   4.369  19.740  0.00  0.00    +0.000 A 
ATOM     10  C   UNL     1       3.588   4.569  18.440  0.00  0.00    +0.000 A 
ATOM     11  C   UNL     1       3.371   5.813  17.835  0.00  0.00    +0.000 A 
ATOM     12  C   UNL     1       2.688   6.853  18.487  0.00  0.00    +0.000 A 
ATOM     13  C   UNL     1       2.497   8.063  17.842  0.00  0.00    +0.000 A 
ATOM     14  N   UNL     1       1.849   9.091  18.422  0.00  0.00    +0.000 N 
ATOM     15  C   UNL     1       2.058  10.427  17.816  0.00  0.00    +0.000 C 
ATOM     16  C   UNL     1       1.238   8.958  19.646  0.00  0.00    +0.000 A 
ATOM     17  C   UNL     1       0.375   9.971  20.170  0.00  0.00    +0.000 A 
ATOM     18  C   UNL     1      -0.397  10.854  19.380  0.00  0.00    +0.000 A 
ATOM     19  C   UNL     1      -1.109  11.927  19.915  0.00  0.00    +0.000 A 
ENDROOT
BRANCH   9  20
ATOM     20  O   UNL     1       3.280   3.148  20.341  0.00  0.00    +0.000 OA
ATOM     21  C   UNL     1       2.440   2.887  21.470  0.00  0.00    +0.000 C 
ENDBRANCH   9  20
BRANCH  10  22
ATOM     22  O   UNL     1       4.219   3.719  17.579  0.00  0.00    +0.000 OA
ATOM     23  C   UNL     1       5.048   4.203  16.537  0.00  0.00    +0.000 C 
ENDBRANCH  10  22
BRANCH  19  24
ATOM     24  O   UNL     1      -1.796  12.651  18.973  0.00  0.00    +0.000 OA
ATOM     25  C   UNL     1      -2.362  11.895  17.901  0.00  0.00    +0.000 C 
ENDBRANCH  19  24
BRANCH   1  26
ATOM     26  O   UNL     1      -1.667  13.283  21.748  0.00  0.00    +0.000 OA
BRANCH  26  28
ATOM     27  C   UNL     1      -1.347  14.340  23.857  0.00  0.00    +0.000 C 
ATOM     28  C   UNL     1      -0.934  14.317  22.391  0.00  0.00    +0.000 C 
ENDBRANCH  26  28
ENDBRANCH   1  26
TORSDOF 5
ENDMDL
MODEL 4
REMARK VINA RESULT:      -7.1      1.207      8.662
REMARK  Name = 
REMARK  10 active torsions:
REMARK  status: ('A' for Active; 'I' for Inactive)
REMARK    1  A    between atoms: C_1  and  C_2
REMARK    2  A    between atoms: C_2  and  O_3
REMARK    3  A    between atoms: O_3  and  C_4
REMARK    4  A    between atoms: C_12  and  O_13
REMARK    5  A    between atoms: O_13  and  C_14
REMARK    6  A    between atoms: C_15  and  O_16
REMARK    7  A    between atoms: O_16  and  C_17
REMARK    8  A    between atoms: N_21  and  C_22
REMARK    9  A    between atoms: C_26  and  O_27
REMARK   10  A    between atoms: O_27  and  C_28
REMARK                            x       y       z     vdW  Elec       q    Type
REMARK                         _______ _______ _______ _____ _____    ______ ____
ROOT
ATOM      1  C   UNL     1       3.172   6.950  18.418  0.00  0.00    +0.000 A 
ATOM      2  C   UNL     1       2.625   8.117  17.869  0.00  0.00    +0.000 A 
ATOM      3  C   UNL     1       1.655   8.878  18.545  0.00  0.00    +0.000 A 
ATOM      4  C   UNL     1       0.935   9.903  17.918  0.00  0.00    +0.000 A 
ATOM      5  C   UNL     1      -0.048  10.626  18.612  0.00  0.00    +0.000 A 
ATOM      6  C   UNL     1      -0.229  10.477  20.003  0.00  0.00    +0.000 A 
ATOM      7  C   UNL     1      -1.156  11.247  20.784  0.00  0.00    +0.000 A 
ATOM      8  C   UNL     1      -2.130  12.139  20.263  0.00  0.00    +0.000 A 
ATOM      9  C   UNL     1      -3.057  12.842  21.068  0.00  0.00    +0.000 A 
ATOM     10  C   UNL     1      -2.967  12.717  22.457  0.00  0.00    +0.000 A 
ATOM     11  C   UNL     1      -1.996  11.861  22.989  0.00  0.00    +0.000 A 
ATOM     12  C   UNL     1      -1.124  11.121  22.175  0.00  0.00    +0.000 A 
ATOM     13  C   UNL     1      -0.183  10.285  22.753  0.00  0.00    +0.000 A 
ATOM     14  N   UNL     1       0.675   9.554  22.017  0.00  0.00    +0.000 N 
ATOM     15  C   UNL     1       1.867   9.030  22.724  0.00  0.00    +0.000 C 
ATOM     16  C   UNL     1       0.590   9.507  20.646  0.00  0.00    +0.000 A 
ATOM     17  C   UNL     1       1.356   8.577  19.877  0.00  0.00    +0.000 A 
ATOM     18  C   UNL     1       1.780   7.310  20.340  0.00  0.00    +0.000 A 
ATOM     19  C   UNL     1       2.651   6.491  19.623  0.00  0.00    +0.000 A 
ENDROOT
BRANCH   9  20
ATOM     20  O   UNL     1      -4.024  13.642  20.519  0.00  0.00    +0.000 OA
ATOM     21  C   UNL     1      -5.305  13.036  20.326  0.00  0.00    +0.000 C 
ENDBRANCH   9  20
BRANCH  10  22
ATOM     22  O   UNL     1      -3.720  13.270  23.453  0.00  0.00    +0.000 OA
ATOM     23  C   UNL     1      -4.298  12.472  24.471  0.00  0.00    +0.000 C 
ENDBRANCH  10  22
BRANCH  19  24
ATOM     24  O   UNL     1       2.927   5.302  20.250  0.00  0.00    +0.000 OA
ATOM     25  C   UNL     1       1.813   4.658  20.873  0.00  0.00    +0.000 C 
ENDBRANCH  19  24
BRANCH   1  26
ATOM     26  O   UNL     1       4.081   6.158  17.791  0.00  0.00    +0.000 OA
BRANCH  26  28
ATOM     27  C   UNL     1       5.316   5.769  15.792  0.00  0.00    +0.000 C 
ATOM     28  C   UNL     1       5.068   6.733  16.946  0.00  0.00    +0.000 C 
ENDBRANCH  26  28
ENDBRANCH   1  26
TORSDOF 5
ENDMDL
MODEL 5
REMARK VINA RESULT:      -7.1      1.569      2.208
REMARK  Name = 
REMARK  10 active torsions:
REMARK  status: ('A' for Active; 'I' for Inactive)
REMARK    1  A    between atoms: C_1  and  C_2
REMARK    2  A    between atoms: C_2  and  O_3
REMARK    3  A    between atoms: O_3  and  C_4
REMARK    4  A    between atoms: C_12  and  O_13
REMARK    5  A    between atoms: O_13  and  C_14
REMARK    6  A    between atoms: C_15  and  O_16
REMARK    7  A    between atoms: O_16  and  C_17
REMARK    8  A    between atoms: N_21  and  C_22
REMARK    9  A    between atoms: C_26  and  O_27
REMARK   10  A    between atoms: O_27  and  C_28
REMARK                            x       y       z     vdW  Elec       q    Type
REMARK                         _______ _______ _______ _____ _____    ______ ____
ROOT
ATOM      1  C   UNL     1      -1.209  12.240  20.819  0.00  0.00    +0.000 A 
ATOM      2  C   UNL     1      -0.701  11.337  21.760  0.00  0.00    +0.000 A 
ATOM      3  C   UNL     1      -0.070  10.138  21.383  0.00  0.00    +0.000 A 
ATOM      4  C   UNL     1       0.230   9.126  22.303  0.00  0.00    +0.000 A 
ATOM      5  C   UNL     1       0.834   7.928  21.890  0.00  0.00    +0.000 A 
ATOM      6  C   UNL     1       1.324   7.763  20.578  0.00  0.00    +0.000 A 
ATOM      7  C   UNL     1       2.027   6.599  20.118  0.00  0.00    +0.000 A 
ATOM      8  C   UNL     1       2.186   5.392  20.848  0.00  0.00    +0.000 A 
ATOM      9  C   UNL     1       2.846   4.250  20.336  0.00  0.00    +0.000 A 
ATOM     10  C   UNL     1       3.443   4.329  19.075  0.00  0.00    +0.000 A 
ATOM     11  C   UNL     1       3.316   5.521  18.351  0.00  0.00    +0.000 A 
ATOM     12  C   UNL     1       2.604   6.625  18.846  0.00  0.00    +0.000 A 
ATOM     13  C   UNL     1       2.507   7.779  18.088  0.00  0.00    +0.000 A 
ATOM     14  N   UNL     1       1.835   8.865  18.516  0.00  0.00    +0.000 N 
ATOM     15  C   UNL     1       2.136  10.140  17.823  0.00  0.00    +0.000 C 
ATOM     16  C   UNL     1       1.109   8.849  19.683  0.00  0.00    +0.000 A 
ATOM     17  C   UNL     1       0.229   9.919  20.035  0.00  0.00    +0.000 A 
ATOM     18  C   UNL     1      -0.442  10.745  19.104  0.00  0.00    +0.000 A 
ATOM     19  C   UNL     1      -1.172  11.874  19.478  0.00  0.00    +0.000 A 
ENDROOT
BRANCH   9  20
ATOM     20  O   UNL     1       2.920   3.082  21.050  0.00  0.00    +0.000 OA
ATOM     21  C   UNL     1       1.695   2.620  21.626  0.00  0.00    +0.000 C 
ENDBRANCH   9  20
BRANCH  10  22
ATOM     22  O   UNL     1       4.128   3.396  18.352  0.00  0.00    +0.000 OA
ATOM     23  C   UNL     1       3.490   2.234  17.853  0.00  0.00    +0.000 C 
ENDBRANCH  10  22
BRANCH  19  24
ATOM     24  O   UNL     1      -1.748  12.528  18.418  0.00  0.00    +0.000 OA
ATOM     25  C   UNL     1      -2.254  11.692  17.375  0.00  0.00    +0.000 C 
ENDBRANCH  19  24
BRANCH   1  26
ATOM     26  O   UNL     1      -1.862  13.391  21.131  0.00  0.00    +0.000 OA
BRANCH  26  28
ATOM     27  C   UNL     1      -3.905  14.613  21.184  0.00  0.00    +0.000 C 
ATOM     28  C   UNL     1      -3.190  13.346  21.634  0.00  0.00    +0.000 C 
ENDBRANCH  26  28
ENDBRANCH   1  26
TORSDOF 5
ENDMDL
MODEL 6
REMARK VINA RESULT:      -7.0      1.164      1.368
REMARK  Name = 
REMARK  10 active torsions:
REMARK  status: ('A' for Active; 'I' for Inactive)
REMARK    1  A    between atoms: C_1  and  C_2
REMARK    2  A    between atoms: C_2  and  O_3
REMARK    3  A    between atoms: O_3  and  C_4
REMARK    4  A    between atoms: C_12  and  O_13
REMARK    5  A    between atoms: O_13  and  C_14
REMARK    6  A    between atoms: C_15  and  O_16
REMARK    7  A    between atoms: O_16  and  C_17
REMARK    8  A    between atoms: N_21  and  C_22
REMARK    9  A    between atoms: C_26  and  O_27
REMARK   10  A    between atoms: O_27  and  C_28
REMARK                            x       y       z     vdW  Elec       q    Type
REMARK                         _______ _______ _______ _____ _____    ______ ____
ROOT
ATOM      1  C   UNL     1      -3.106  13.128  22.615  0.00  0.00    +0.000 A 
ATOM      2  C   UNL     1      -2.240  12.216  23.229  0.00  0.00    +0.000 A 
ATOM      3  C   UNL     1      -1.436  11.330  22.488  0.00  0.00    +0.000 A 
ATOM      4  C   UNL     1      -0.749  10.264  23.082  0.00  0.00    +0.000 A 
ATOM      5  C   UNL     1       0.023   9.381  22.311  0.00  0.00    +0.000 A 
ATOM      6  C   UNL     1       0.283   9.627  20.947  0.00  0.00    +0.000 A 
ATOM      7  C   UNL     1       1.133   8.810  20.127  0.00  0.00    +0.000 A 
ATOM      8  C   UNL     1       1.694   7.564  20.509  0.00  0.00    +0.000 A 
ATOM      9  C   UNL     1       2.488   6.768  19.649  0.00  0.00    +0.000 A 
ATOM     10  C   UNL     1       2.805   7.262  18.381  0.00  0.00    +0.000 A 
ATOM     11  C   UNL     1       2.279   8.502  17.997  0.00  0.00    +0.000 A 
ATOM     12  C   UNL     1       1.441   9.252  18.838  0.00  0.00    +0.000 A 
ATOM     13  C   UNL     1       0.945  10.471  18.407  0.00  0.00    +0.000 A 
ATOM     14  N   UNL     1       0.138  11.228  19.174  0.00  0.00    +0.000 N 
ATOM     15  C   UNL     1       0.008  12.652  18.786  0.00  0.00    +0.000 C 
ATOM     16  C   UNL     1      -0.334  10.779  20.384  0.00  0.00    +0.000 A 
ATOM     17  C   UNL     1      -1.352  11.482  21.101  0.00  0.00    +0.000 A 
ATOM     18  C   UNL     1      -2.354  12.277  20.499  0.00  0.00    +0.000 A 
ATOM     19  C   UNL     1      -3.238  13.070  21.231  0.00  0.00    +0.000 A 
ENDROOT
BRANCH   9  20
ATOM     20  O   UNL     1       2.956   5.539  20.035  0.00  0.00    +0.000 OA
ATOM     21  C   UNL     1       2.049   4.444  19.876  0.00  0.00    +0.000 C 
ENDBRANCH   9  20
BRANCH  10  22
ATOM     22  O   UNL     1       3.536   6.714  17.367  0.00  0.00    +0.000 OA
ATOM     23  C   UNL     1       4.952   6.679  17.412  0.00  0.00    +0.000 C 
ENDBRANCH  10  22
BRANCH  19  24
ATOM     24  O   UNL     1      -4.134  13.755  20.450  0.00  0.00    +0.000 OA
ATOM     25  C   UNL     1      -5.145  12.961  19.826  0.00  0.00    +0.000 C 
ENDBRANCH  19  24
BRANCH   1  26
ATOM     26  O   UNL     1      -3.931  13.975  23.283  0.00  0.00    +0.000 OA
BRANCH  26  28
ATOM     27  C   UNL     1      -2.630  15.917  23.735  0.00  0.00    +0.000 C 
ATOM     28  C   UNL     1      -3.429  14.773  24.346  0.00  0.00    +0.000 C 
ENDBRANCH  26  28
ENDBRANCH   1  26
TORSDOF 5
ENDMDL
MODEL 7
REMARK VINA RESULT:      -6.9      2.043      9.125
REMARK  Name = 
REMARK  10 active torsions:
REMARK  status: ('A' for Active; 'I' for Inactive)
REMARK    1  A    between atoms: C_1  and  C_2
REMARK    2  A    between atoms: C_2  and  O_3
REMARK    3  A    between atoms: O_3  and  C_4
REMARK    4  A    between atoms: C_12  and  O_13
REMARK    5  A    between atoms: O_13  and  C_14
REMARK    6  A    between atoms: C_15  and  O_16
REMARK    7  A    between atoms: O_16  and  C_17
REMARK    8  A    between atoms: N_21  and  C_22
REMARK    9  A    between atoms: C_26  and  O_27
REMARK   10  A    between atoms: O_27  and  C_28
REMARK                            x       y       z     vdW  Elec       q    Type
REMARK                         _______ _______ _______ _____ _____    ______ ____
ROOT
ATOM      1  C   UNL     1       4.485   4.325  16.884  0.00  0.00    +0.000 A 
ATOM      2  C   UNL     1       4.607   5.716  16.787  0.00  0.00    +0.000 A 
ATOM      3  C   UNL     1       3.734   6.593  17.457  0.00  0.00    +0.000 A 
ATOM      4  C   UNL     1       3.697   7.966  17.188  0.00  0.00    +0.000 A 
ATOM      5  C   UNL     1       2.794   8.811  17.854  0.00  0.00    +0.000 A 
ATOM      6  C   UNL     1       2.019   8.352  18.939  0.00  0.00    +0.000 A 
ATOM      7  C   UNL     1       1.143   9.184  19.715  0.00  0.00    +0.000 A 
ATOM      8  C   UNL     1       0.803  10.529  19.412  0.00  0.00    +0.000 A 
ATOM      9  C   UNL     1      -0.104  11.297  20.180  0.00  0.00    +0.000 A 
ATOM     10  C   UNL     1      -0.640  10.738  21.343  0.00  0.00    +0.000 A 
ATOM     11  C   UNL     1      -0.295   9.421  21.670  0.00  0.00    +0.000 A 
ATOM     12  C   UNL     1       0.557   8.649  20.864  0.00  0.00    +0.000 A 
ATOM     13  C   UNL     1       0.863   7.349  21.232  0.00  0.00    +0.000 A 
ATOM     14  N   UNL     1       1.674   6.567  20.495  0.00  0.00    +0.000 N 
ATOM     15  C   UNL     1       2.238   5.378  21.176  0.00  0.00    +0.000 C 
ATOM     16  C   UNL     1       2.152   6.975  19.273  0.00  0.00    +0.000 A 
ATOM     17  C   UNL     1       2.835   6.076  18.395  0.00  0.00    +0.000 A 
ATOM     18  C   UNL     1       2.611   4.681  18.342  0.00  0.00    +0.000 A 
ATOM     19  C   UNL     1       3.398   3.813  17.585  0.00  0.00    +0.000 A 
ENDROOT
BRANCH   9  20
ATOM     20  O   UNL     1      -0.456  12.571  19.814  0.00  0.00    +0.000 OA
ATOM     21  C   UNL     1       0.319  13.159  18.765  0.00  0.00    +0.000 C 
ENDBRANCH   9  20
BRANCH  10  22
ATOM     22  O   UNL     1      -1.523  11.245  22.251  0.00  0.00    +0.000 OA
ATOM     23  C   UNL     1      -1.184  12.348  23.074  0.00  0.00    +0.000 C 
ENDBRANCH  10  22
BRANCH  19  24
ATOM     24  O   UNL     1       3.004   2.502  17.671  0.00  0.00    +0.000 OA
ATOM     25  C   UNL     1       2.095   2.196  18.730  0.00  0.00    +0.000 C 
ENDBRANCH  19  24
BRANCH   1  26
ATOM     26  O   UNL     1       5.275   3.436  16.226  0.00  0.00    +0.000 OA
BRANCH  26  28
ATOM     27  C   UNL     1       6.113   3.828  14.032  0.00  0.00    +0.000 C 
ATOM     28  C   UNL     1       6.424   3.885  15.522  0.00  0.00    +0.000 C 
ENDBRANCH  26  28
ENDBRANCH   1  26
TORSDOF 5
ENDMDL
MODEL 8
REMARK VINA RESULT:      -6.9      0.934      1.101
REMARK  Name = 
REMARK  10 active torsions:
REMARK  status: ('A' for Active; 'I' for Inactive)
REMARK    1  A    between atoms: C_1  and  C_2
REMARK    2  A    between atoms: C_2  and  O_3
REMARK    3  A    between atoms: O_3  and  C_4
REMARK    4  A    between atoms: C_12  and  O_13
REMARK    5  A    between atoms: O_13  and  C_14
REMARK    6  A    between atoms: C_15  and  O_16
REMARK    7  A    between atoms: O_16  and  C_17
REMARK    8  A    between atoms: N_21  and  C_22
REMARK    9  A    between atoms: C_26  and  O_27
REMARK   10  A    between atoms: O_27  and  C_28
REMARK                            x       y       z     vdW  Elec       q    Type
REMARK                         _______ _______ _______ _____ _____    ______ ____
ROOT
ATOM      1  C   UNL     1      -2.224  12.480  22.473  0.00  0.00    +0.000 A 
ATOM      2  C   UNL     1      -1.440  11.502  23.096  0.00  0.00    +0.000 A 
ATOM      3  C   UNL     1      -0.687  10.567  22.363  0.00  0.00    +0.000 A 
ATOM      4  C   UNL     1      -0.091   9.450  22.961  0.00  0.00    +0.000 A 
ATOM      5  C   UNL     1       0.631   8.519  22.197  0.00  0.00    +0.000 A 
ATOM      6  C   UNL     1       0.936   8.756  20.841  0.00  0.00    +0.000 A 
ATOM      7  C   UNL     1       1.741   7.886  20.030  0.00  0.00    +0.000 A 
ATOM      8  C   UNL     1       2.203   6.599  20.411  0.00  0.00    +0.000 A 
ATOM      9  C   UNL     1       2.954   5.755  19.560  0.00  0.00    +0.000 A 
ATOM     10  C   UNL     1       3.332   6.234  18.303  0.00  0.00    +0.000 A 
ATOM     11  C   UNL     1       2.905   7.512  17.920  0.00  0.00    +0.000 A 
ATOM     12  C   UNL     1       2.107   8.314  18.751  0.00  0.00    +0.000 A 
ATOM     13  C   UNL     1       1.709   9.569  18.323  0.00  0.00    +0.000 A 
ATOM     14  N   UNL     1       0.943  10.377  19.080  0.00  0.00    +0.000 N 
ATOM     15  C   UNL     1       0.924  11.809  18.703  0.00  0.00    +0.000 C 
ATOM     16  C   UNL     1       0.415   9.954  20.276  0.00  0.00    +0.000 A 
ATOM     17  C   UNL     1      -0.564  10.723  20.979  0.00  0.00    +0.000 A 
ATOM     18  C   UNL     1      -1.493  11.593  20.365  0.00  0.00    +0.000 A 
ATOM     19  C   UNL     1      -2.332  12.443  21.087  0.00  0.00    +0.000 A 
ENDROOT
BRANCH   9  20
ATOM     20  O   UNL     1       3.324   4.492  19.944  0.00  0.00    +0.000 OA
ATOM     21  C   UNL     1       2.354   3.755  20.695  0.00  0.00    +0.000 C 
ENDBRANCH   9  20
BRANCH  10  22
ATOM     22  O   UNL     1       4.042   5.642  17.299  0.00  0.00    +0.000 OA
ATOM     23  C   UNL     1       3.806   4.297  16.921  0.00  0.00    +0.000 C 
ENDBRANCH  10  22
BRANCH  19  24
ATOM     24  O   UNL     1      -3.161  13.196  20.294  0.00  0.00    +0.000 OA
ATOM     25  C   UNL     1      -4.425  12.608  19.983  0.00  0.00    +0.000 C 
ENDBRANCH  19  24
BRANCH   1  26
ATOM     26  O   UNL     1      -3.000  13.379  23.133  0.00  0.00    +0.000 OA
BRANCH  26  28
ATOM     27  C   UNL     1      -1.126  14.706  23.761  0.00  0.00    +0.000 C 
ATOM     28  C   UNL     1      -2.569  14.726  23.277  0.00  0.00    +0.000 C 
ENDBRANCH  26  28
ENDBRANCH   1  26
TORSDOF 5
ENDMDL
MODEL 9
REMARK VINA RESULT:      -6.8      1.855      3.835
REMARK  Name = 
REMARK  10 active torsions:
REMARK  status: ('A' for Active; 'I' for Inactive)
REMARK    1  A    between atoms: C_1  and  C_2
REMARK    2  A    between atoms: C_2  and  O_3
REMARK    3  A    between atoms: O_3  and  C_4
REMARK    4  A    between atoms: C_12  and  O_13
REMARK    5  A    between atoms: O_13  and  C_14
REMARK    6  A    between atoms: C_15  and  O_16
REMARK    7  A    between atoms: O_16  and  C_17
REMARK    8  A    between atoms: N_21  and  C_22
REMARK    9  A    between atoms: C_26  and  O_27
REMARK   10  A    between atoms: O_27  and  C_28
REMARK                            x       y       z     vdW  Elec       q    Type
REMARK                         _______ _______ _______ _____ _____    ______ ____
ROOT
ATOM      1  C   UNL     1      -0.223  12.770  19.958  0.00  0.00    +0.000 A 
ATOM      2  C   UNL     1       0.244  12.160  18.788  0.00  0.00    +0.000 A 
ATOM      3  C   UNL     1       0.883  10.907  18.800  0.00  0.00    +0.000 A 
ATOM      4  C   UNL     1       1.557  10.397  17.684  0.00  0.00    +0.000 A 
ATOM      5  C   UNL     1       2.209   9.155  17.737  0.00  0.00    +0.000 A 
ATOM      6  C   UNL     1       2.067   8.294  18.844  0.00  0.00    +0.000 A 
ATOM      7  C   UNL     1       2.637   6.979  18.923  0.00  0.00    +0.000 A 
ATOM      8  C   UNL     1       3.550   6.420  17.991  0.00  0.00    +0.000 A 
ATOM      9  C   UNL     1       4.125   5.135  18.134  0.00  0.00    +0.000 A 
ATOM     10  C   UNL     1       3.721   4.335  19.206  0.00  0.00    +0.000 A 
ATOM     11  C   UNL     1       2.802   4.861  20.121  0.00  0.00    +0.000 A 
ATOM     12  C   UNL     1       2.287   6.162  20.001  0.00  0.00    +0.000 A 
ATOM     13  C   UNL     1       1.383   6.635  20.937  0.00  0.00    +0.000 A 
ATOM     14  N   UNL     1       0.861   7.874  20.868  0.00  0.00    +0.000 N 
ATOM     15  C   UNL     1      -0.366   8.116  21.662  0.00  0.00    +0.000 C 
ATOM     16  C   UNL     1       1.285   8.783  19.928  0.00  0.00    +0.000 A 
ATOM     17  C   UNL     1       0.892  10.157  19.980  0.00  0.00    +0.000 A 
ATOM     18  C   UNL     1       0.580  10.857  21.168  0.00  0.00    +0.000 A 
ATOM     19  C   UNL     1       0.055  12.150  21.172  0.00  0.00    +0.000 A 
ENDROOT
BRANCH   9  20
ATOM     20  O   UNL     1       5.054   4.660  17.244  0.00  0.00    +0.000 OA
ATOM     21  C   UNL     1       5.170   5.380  16.014  0.00  0.00    +0.000 C 
ENDBRANCH   9  20
BRANCH  10  22
ATOM     22  O   UNL     1       4.107   3.080  19.578  0.00  0.00    +0.000 OA
ATOM     23  C   UNL     1       3.521   1.925  19.003  0.00  0.00    +0.000 C 
ENDBRANCH  10  22
BRANCH  19  24
ATOM     24  O   UNL     1      -0.168  12.645  22.432  0.00  0.00    +0.000 OA
ATOM     25  C   UNL     1      -1.429  12.312  23.014  0.00  0.00    +0.000 C 
ENDBRANCH  19  24
BRANCH   1  26
ATOM     26  O   UNL     1      -0.810  13.995  20.006  0.00  0.00    +0.000 OA
BRANCH  26  28
ATOM     27  C   UNL     1      -0.288  15.905  18.685  0.00  0.00    +0.000 C 
ATOM     28  C   UNL     1      -0.013  15.170  19.990  0.00  0.00    +0.000 C 
ENDBRANCH  26  28
ENDBRANCH   1  26
TORSDOF 5
ENDMDL
