MODEL 1
REMARK VINA RESULT:      -5.8      0.000      0.000
REMARK  Name = 
REMARK  7 active torsions:
REMARK  status: ('A' for Active; 'I' for Inactive)
REMARK    1  A    between atoms: C_1  and  O_2
REMARK    2  A    between atoms: O_2  and  C_3
REMARK    3  A    between atoms: C_6  and  C_7
REMARK    4  A    between atoms: N_8  and  N_9
REMARK    5  A    between atoms: N_9  and  C_10
REMARK    6  A    between atoms: C_10  and  N_11
REMARK    7  A    between atoms: C_15  and  O_16
REMARK                            x       y       z     vdW  Elec       q    Type
REMARK                         _______ _______ _______ _____ _____    ______ ____
ROOT
ATOM      1  C   UNL     1       6.923   4.986  15.280  0.00  0.00    +0.000 A 
ATOM      2  C   UNL     1       5.959   4.213  14.629  0.00  0.00    +0.000 A 
ATOM      3  C   UNL     1       4.874   3.678  15.329  0.00  0.00    +0.000 A 
ATOM      4  C   UNL     1       4.726   3.922  16.700  0.00  0.00    +0.000 A 
ATOM      5  C   UNL     1       5.689   4.701  17.365  0.00  0.00    +0.000 A 
ATOM      6 BR   UNL     1       5.562   5.103  19.229  0.00  0.00    +0.000 Br
ATOM      7  C   UNL     1       6.780   5.231  16.652  0.00  0.00    +0.000 A 
ENDROOT
BRANCH   1   9
ATOM      8  C   UNL     1       7.794   5.160  13.069  0.00  0.00    +0.000 C 
ATOM      9  O   UNL     1       7.884   5.495  14.448  0.00  0.00    +0.000 OA
ENDBRANCH   1   9
BRANCH   4  10
ATOM     10  C   UNL     1       3.539   3.361  17.393  0.00  0.00    +0.000 C 
ATOM     11  N   UNL     1       3.536   2.164  17.897  0.00  0.00    +0.000 NA
BRANCH  11  12
ATOM     12  N   UNL     1       2.360   1.803  18.495  0.00  0.00    +0.000 N 
ATOM     13  H   UNL     1       1.804   1.036  18.128  0.00  0.00    +0.000 HD
BRANCH  12  14
ATOM     14  C   UNL     1       1.887   2.450  19.602  0.00  0.00    +0.000 C 
ATOM     15  S   UNL     1       2.818   2.690  20.952  0.00  0.00    +0.000 S 
BRANCH  14  16
ATOM     16  N   UNL     1       0.606   2.884  19.530  0.00  0.00    +0.000 N 
ATOM     17  H   UNL     1       0.457   3.885  19.551  0.00  0.00    +0.000 HD
ATOM     18  H   UNL     1      -0.168   2.242  19.488  0.00  0.00    +0.000 HD
ENDBRANCH  14  16
ENDBRANCH  12  14
ENDBRANCH  11  12
ENDBRANCH   4  10
BRANCH   7  19
ATOM     19  O   UNL     1       7.690   6.029  17.297  0.00  0.00    +0.000 OA
ATOM     20  H   UNL     1       7.328   6.931  17.347  0.00  0.00    +0.000 HD
ENDBRANCH   7  19
TORSDOF 6
ENDMDL
MODEL 2
REMARK VINA RESULT:      -5.7      1.182      1.182
REMARK  Name = 
REMARK  7 active torsions:
REMARK  status: ('A' for Active; 'I' for Inactive)
REMARK    1  A    between atoms: C_1  and  O_2
REMARK    2  A    between atoms: O_2  and  C_3
REMARK    3  A    between atoms: C_6  and  C_7
REMARK    4  A    between atoms: N_8  and  N_9
REMARK    5  A    between atoms: N_9  and  C_10
REMARK    6  A    between atoms: C_10  and  N_11
REMARK    7  A    between atoms: C_15  and  O_16
REMARK                            x       y       z     vdW  Elec       q    Type
REMARK                         _______ _______ _______ _____ _____    ______ ____
ROOT
ATOM      1  C   UNL     1       6.936   5.081  15.215  0.00  0.00    +0.000 A 
ATOM      2  C   UNL     1       5.905   4.379  14.585  0.00  0.00    +0.000 A 
ATOM      3  C   UNL     1       4.809   3.905  15.312  0.00  0.00    +0.000 A 
ATOM      4  C   UNL     1       4.717   4.142  16.689  0.00  0.00    +0.000 A 
ATOM      5  C   UNL     1       5.748   4.850  17.333  0.00  0.00    +0.000 A 
ATOM      6 BR   UNL     1       5.702   5.237  19.203  0.00  0.00    +0.000 Br
ATOM      7  C   UNL     1       6.848   5.318  16.593  0.00  0.00    +0.000 A 
ENDROOT
BRANCH   1   9
ATOM      8  C   UNL     1       7.780   5.178  12.989  0.00  0.00    +0.000 C 
ATOM      9  O   UNL     1       7.902   5.538  14.360  0.00  0.00    +0.000 OA
ENDBRANCH   1   9
BRANCH   4  10
ATOM     10  C   UNL     1       3.518   3.649  17.412  0.00  0.00    +0.000 C 
ATOM     11  N   UNL     1       2.485   4.405  17.630  0.00  0.00    +0.000 NA
BRANCH  11  12
ATOM     12  N   UNL     1       1.469   3.795  18.314  0.00  0.00    +0.000 N 
ATOM     13  H   UNL     1       0.814   3.183  17.836  0.00  0.00    +0.000 HD
BRANCH  12  14
ATOM     14  C   UNL     1       1.295   3.978  19.656  0.00  0.00    +0.000 C 
ATOM     15  S   UNL     1       1.931   5.279  20.463  0.00  0.00    +0.000 S 
BRANCH  14  16
ATOM     16  N   UNL     1       0.568   3.028  20.292  0.00  0.00    +0.000 N 
ATOM     17  H   UNL     1      -0.423   3.201  20.400  0.00  0.00    +0.000 HD
ATOM     18  H   UNL     1       0.997   2.199  20.669  0.00  0.00    +0.000 HD
ENDBRANCH  14  16
ENDBRANCH  12  14
ENDBRANCH  11  12
ENDBRANCH   4  10
BRANCH   7  19
ATOM     19  O   UNL     1       7.826   6.049  17.218  0.00  0.00    +0.000 OA
ATOM     20  H   UNL     1       7.429   6.871  17.554  0.00  0.00    +0.000 HD
ENDBRANCH   7  19
TORSDOF 6
ENDMDL
MODEL 3
REMARK VINA RESULT:      -5.7      4.587      6.303
REMARK  Name = 
REMARK  7 active torsions:
REMARK  status: ('A' for Active; 'I' for Inactive)
REMARK    1  A    between atoms: C_1  and  O_2
REMARK    2  A    between atoms: O_2  and  C_3
REMARK    3  A    between atoms: C_6  and  C_7
REMARK    4  A    between atoms: N_8  and  N_9
REMARK    5  A    between atoms: N_9  and  C_10
REMARK    6  A    between atoms: C_10  and  N_11
REMARK    7  A    between atoms: C_15  and  O_16
REMARK                            x       y       z     vdW  Elec       q    Type
REMARK                         _______ _______ _______ _____ _____    ______ ____
ROOT
ATOM      1  C   UNL     1       2.182   6.320  20.135  0.00  0.00    +0.000 A 
ATOM      2  C   UNL     1       2.547   6.971  18.954  0.00  0.00    +0.000 A 
ATOM      3  C   UNL     1       3.277   6.306  17.963  0.00  0.00    +0.000 A 
ATOM      4  C   UNL     1       3.643   4.965  18.134  0.00  0.00    +0.000 A 
ATOM      5  C   UNL     1       3.279   4.300  19.318  0.00  0.00    +0.000 A 
ATOM      6 BR   UNL     1       3.717   2.467  19.631  0.00  0.00    +0.000 Br
ATOM      7  C   UNL     1       2.548   4.980  20.310  0.00  0.00    +0.000 A 
ENDROOT
BRANCH   1   9
ATOM      8  C   UNL     1       1.271   8.460  20.656  0.00  0.00    +0.000 C 
ATOM      9  O   UNL     1       1.413   7.080  20.975  0.00  0.00    +0.000 OA
ENDBRANCH   1   9
BRANCH   4  10
ATOM     10  C   UNL     1       4.388   4.293  17.039  0.00  0.00    +0.000 C 
ATOM     11  N   UNL     1       5.685   4.250  17.013  0.00  0.00    +0.000 NA
BRANCH  11  12
ATOM     12  N   UNL     1       6.210   3.596  15.931  0.00  0.00    +0.000 N 
ATOM     13  H   UNL     1       6.309   2.585  15.934  0.00  0.00    +0.000 HD
BRANCH  12  14
ATOM     14  C   UNL     1       6.616   4.266  14.813  0.00  0.00    +0.000 C 
ATOM     15  S   UNL     1       6.106   3.843  13.293  0.00  0.00    +0.000 S 
BRANCH  14  16
ATOM     16  N   UNL     1       7.464   5.302  15.020  0.00  0.00    +0.000 N 
ATOM     17  H   UNL     1       8.450   5.128  14.870  0.00  0.00    +0.000 HD
ATOM     18  H   UNL     1       7.136   6.198  15.337  0.00  0.00    +0.000 HD
ENDBRANCH  14  16
ENDBRANCH  12  14
ENDBRANCH  11  12
ENDBRANCH   4  10
BRANCH   7  19
ATOM     19  O   UNL     1       2.155   4.312  21.441  0.00  0.00    +0.000 OA
ATOM     20  H   UNL     1       2.834   3.648  21.659  0.00  0.00    +0.000 HD
ENDBRANCH   7  19
TORSDOF 6
ENDMDL
MODEL 4
REMARK VINA RESULT:      -5.7      4.510      6.541
REMARK  Name = 
REMARK  7 active torsions:
REMARK  status: ('A' for Active; 'I' for Inactive)
REMARK    1  A    between atoms: C_1  and  O_2
REMARK    2  A    between atoms: O_2  and  C_3
REMARK    3  A    between atoms: C_6  and  C_7
REMARK    4  A    between atoms: N_8  and  N_9
REMARK    5  A    between atoms: N_9  and  C_10
REMARK    6  A    between atoms: C_10  and  N_11
REMARK    7  A    between atoms: C_15  and  O_16
REMARK                            x       y       z     vdW  Elec       q    Type
REMARK                         _______ _______ _______ _____ _____    ______ ____
ROOT
ATOM      1  C   UNL     1       2.715   4.356  20.498  0.00  0.00    +0.000 A 
ATOM      2  C   UNL     1       3.555   3.524  19.755  0.00  0.00    +0.000 A 
ATOM      3  C   UNL     1       4.106   3.955  18.544  0.00  0.00    +0.000 A 
ATOM      4  C   UNL     1       3.835   5.241  18.061  0.00  0.00    +0.000 A 
ATOM      5  C   UNL     1       2.992   6.089  18.803  0.00  0.00    +0.000 A 
ATOM      6 BR   UNL     1       2.580   7.865  18.235  0.00  0.00    +0.000 Br
ATOM      7  C   UNL     1       2.440   5.643  20.018  0.00  0.00    +0.000 A 
ENDROOT
BRANCH   1   9
ATOM      8  C   UNL     1       1.520   2.638  21.638  0.00  0.00    +0.000 C 
ATOM      9  O   UNL     1       2.312   3.819  21.691  0.00  0.00    +0.000 OA
ENDBRANCH   1   9
BRANCH   4  10
ATOM     10  C   UNL     1       4.470   5.666  16.788  0.00  0.00    +0.000 C 
ATOM     11  N   UNL     1       5.740   5.514  16.567  0.00  0.00    +0.000 NA
BRANCH  11  12
ATOM     12  N   UNL     1       6.162   5.964  15.346  0.00  0.00    +0.000 N 
ATOM     13  H   UNL     1       6.018   6.932  15.071  0.00  0.00    +0.000 HD
BRANCH  12  14
ATOM     14  C   UNL     1       6.790   5.143  14.454  0.00  0.00    +0.000 C 
ATOM     15  S   UNL     1       6.051   3.806  13.809  0.00  0.00    +0.000 S 
BRANCH  14  16
ATOM     16  N   UNL     1       8.058   5.486  14.127  0.00  0.00    +0.000 N 
ATOM     17  H   UNL     1       8.176   6.182  13.401  0.00  0.00    +0.000 HD
ATOM     18  H   UNL     1       8.853   5.049  14.563  0.00  0.00    +0.000 HD
ENDBRANCH  14  16
ENDBRANCH  12  14
ENDBRANCH  11  12
ENDBRANCH   4  10
BRANCH   7  19
ATOM     19  O   UNL     1       1.657   6.490  20.759  0.00  0.00    +0.000 OA
ATOM     20  H   UNL     1       1.967   7.402  20.615  0.00  0.00    +0.000 HD
ENDBRANCH   7  19
TORSDOF 6
ENDMDL
MODEL 5
REMARK VINA RESULT:      -5.6      5.320      6.685
REMARK  Name = 
REMARK  7 active torsions:
REMARK  status: ('A' for Active; 'I' for Inactive)
REMARK    1  A    between atoms: C_1  and  O_2
REMARK    2  A    between atoms: O_2  and  C_3
REMARK    3  A    between atoms: C_6  and  C_7
REMARK    4  A    between atoms: N_8  and  N_9
REMARK    5  A    between atoms: N_9  and  C_10
REMARK    6  A    between atoms: C_10  and  N_11
REMARK    7  A    between atoms: C_15  and  O_16
REMARK                            x       y       z     vdW  Elec       q    Type
REMARK                         _______ _______ _______ _____ _____    ______ ____
ROOT
ATOM      1  C   UNL     1       3.408   4.150  19.778  0.00  0.00    +0.000 A 
ATOM      2  C   UNL     1       2.498   5.073  20.299  0.00  0.00    +0.000 A 
ATOM      3  C   UNL     1       2.332   6.330  19.711  0.00  0.00    +0.000 A 
ATOM      4  C   UNL     1       3.071   6.682  18.574  0.00  0.00    +0.000 A 
ATOM      5  C   UNL     1       3.988   5.760  18.039  0.00  0.00    +0.000 A 
ATOM      6 BR   UNL     1       5.026   6.143  16.481  0.00  0.00    +0.000 Br
ATOM      7  C   UNL     1       4.149   4.499  18.642  0.00  0.00    +0.000 A 
ENDROOT
BRANCH   1   9
ATOM      8  C   UNL     1       2.464   2.767  21.474  0.00  0.00    +0.000 C 
ATOM      9  O   UNL     1       3.404   2.941  20.420  0.00  0.00    +0.000 OA
ENDBRANCH   1   9
BRANCH   4  10
ATOM     10  C   UNL     1       2.837   8.016  17.965  0.00  0.00    +0.000 C 
ATOM     11  N   UNL     1       1.786   8.726  18.243  0.00  0.00    +0.000 NA
BRANCH  11  12
ATOM     12  N   UNL     1       1.723   9.927  17.590  0.00  0.00    +0.000 N 
ATOM     13  H   UNL     1       1.630   9.965  16.579  0.00  0.00    +0.000 HD
BRANCH  12  14
ATOM     14  C   UNL     1       1.781  11.115  18.262  0.00  0.00    +0.000 C 
ATOM     15  S   UNL     1       0.983  11.361  19.694  0.00  0.00    +0.000 S 
BRANCH  14  16
ATOM     16  N   UNL     1       2.532  12.084  17.686  0.00  0.00    +0.000 N 
ATOM     17  H   UNL     1       2.408  13.028  18.029  0.00  0.00    +0.000 HD
ATOM     18  H   UNL     1       3.164  11.882  16.929  0.00  0.00    +0.000 HD
ENDBRANCH  14  16
ENDBRANCH  12  14
ENDBRANCH  11  12
ENDBRANCH   4  10
BRANCH   7  19
ATOM     19  O   UNL     1       5.011   3.586  18.088  0.00  0.00    +0.000 OA
ATOM     20  H   UNL     1       5.892   3.995  18.023  0.00  0.00    +0.000 HD
ENDBRANCH   7  19
TORSDOF 6
ENDMDL
MODEL 6
REMARK VINA RESULT:      -5.6      0.958      1.011
REMARK  Name = 
REMARK  7 active torsions:
REMARK  status: ('A' for Active; 'I' for Inactive)
REMARK    1  A    between atoms: C_1  and  O_2
REMARK    2  A    between atoms: O_2  and  C_3
REMARK    3  A    between atoms: C_6  and  C_7
REMARK    4  A    between atoms: N_8  and  N_9
REMARK    5  A    between atoms: N_9  and  C_10
REMARK    6  A    between atoms: C_10  and  N_11
REMARK    7  A    between atoms: C_15  and  O_16
REMARK                            x       y       z     vdW  Elec       q    Type
REMARK                         _______ _______ _______ _____ _____    ______ ____
ROOT
ATOM      1  C   UNL     1       7.024   5.069  14.963  0.00  0.00    +0.000 A 
ATOM      2  C   UNL     1       6.145   4.118  14.439  0.00  0.00    +0.000 A 
ATOM      3  C   UNL     1       5.128   3.569  15.226  0.00  0.00    +0.000 A 
ATOM      4  C   UNL     1       4.964   3.976  16.556  0.00  0.00    +0.000 A 
ATOM      5  C   UNL     1       5.841   4.935  17.093  0.00  0.00    +0.000 A 
ATOM      6 BR   UNL     1       5.684   5.565  18.889  0.00  0.00    +0.000 Br
ATOM      7  C   UNL     1       6.864   5.478  16.294  0.00  0.00    +0.000 A 
ENDROOT
BRANCH   1   9
ATOM      8  C   UNL     1       7.760   5.155  12.698  0.00  0.00    +0.000 C 
ATOM      9  O   UNL     1       7.919   5.563  14.052  0.00  0.00    +0.000 OA
ENDBRANCH   1   9
BRANCH   4  10
ATOM     10  C   UNL     1       3.849   3.389  17.341  0.00  0.00    +0.000 C 
ATOM     11  N   UNL     1       3.894   2.177  17.804  0.00  0.00    +0.000 NA
BRANCH  11  12
ATOM     12  N   UNL     1       2.781   1.793  18.501  0.00  0.00    +0.000 N 
ATOM     13  H   UNL     1       2.216   1.010  18.186  0.00  0.00    +0.000 HD
BRANCH  12  14
ATOM     14  C   UNL     1       2.386   2.438  19.638  0.00  0.00    +0.000 C 
ATOM     15  S   UNL     1       0.882   3.118  19.793  0.00  0.00    +0.000 S 
BRANCH  14  16
ATOM     16  N   UNL     1       3.301   2.490  20.635  0.00  0.00    +0.000 N 
ATOM     17  H   UNL     1       3.512   1.622  21.113  0.00  0.00    +0.000 HD
ATOM     18  H   UNL     1       3.732   3.355  20.912  0.00  0.00    +0.000 HD
ENDBRANCH  14  16
ENDBRANCH  12  14
ENDBRANCH  11  12
ENDBRANCH   4  10
BRANCH   7  19
ATOM     19  O   UNL     1       7.687   6.447  16.809  0.00  0.00    +0.000 OA
ATOM     20  H   UNL     1       8.442   6.562  16.205  0.00  0.00    +0.000 HD
ENDBRANCH   7  19
TORSDOF 6
ENDMDL
MODEL 7
REMARK VINA RESULT:      -5.6      4.942      6.558
REMARK  Name = 
REMARK  7 active torsions:
REMARK  status: ('A' for Active; 'I' for Inactive)
REMARK    1  A    between atoms: C_1  and  O_2
REMARK    2  A    between atoms: O_2  and  C_3
REMARK    3  A    between atoms: C_6  and  C_7
REMARK    4  A    between atoms: N_8  and  N_9
REMARK    5  A    between atoms: N_9  and  C_10
REMARK    6  A    between atoms: C_10  and  N_11
REMARK    7  A    between atoms: C_15  and  O_16
REMARK                            x       y       z     vdW  Elec       q    Type
REMARK                         _______ _______ _______ _____ _____    ______ ____
ROOT
ATOM      1  C   UNL     1       2.029   7.207  20.052  0.00  0.00    +0.000 A 
ATOM      2  C   UNL     1       2.196   8.044  18.946  0.00  0.00    +0.000 A 
ATOM      3  C   UNL     1       3.043   7.684  17.893  0.00  0.00    +0.000 A 
ATOM      4  C   UNL     1       3.731   6.464  17.924  0.00  0.00    +0.000 A 
ATOM      5  C   UNL     1       3.568   5.613  19.031  0.00  0.00    +0.000 A 
ATOM      6 BR   UNL     1       4.450   3.922  19.153  0.00  0.00    +0.000 Br
ATOM      7  C   UNL     1       2.717   5.987  20.087  0.00  0.00    +0.000 A 
ENDROOT
BRANCH   1   9
ATOM      8  C   UNL     1       0.922   9.072  21.039  0.00  0.00    +0.000 C 
ATOM      9  O   UNL     1       1.116   7.665  20.964  0.00  0.00    +0.000 OA
ENDBRANCH   1   9
BRANCH   4  10
ATOM     10  C   UNL     1       4.592   6.110  16.767  0.00  0.00    +0.000 C 
ATOM     11  N   UNL     1       5.769   6.632  16.599  0.00  0.00    +0.000 NA
BRANCH  11  12
ATOM     12  N   UNL     1       6.426   6.200  15.479  0.00  0.00    +0.000 N 
ATOM     13  H   UNL     1       6.635   6.842  14.720  0.00  0.00    +0.000 HD
BRANCH  12  14
ATOM     14  C   UNL     1       6.828   4.903  15.336  0.00  0.00    +0.000 C 
ATOM     15  S   UNL     1       6.274   3.934  14.111  0.00  0.00    +0.000 S 
BRANCH  14  16
ATOM     16  N   UNL     1       7.711   4.453  16.260  0.00  0.00    +0.000 N 
ATOM     17  H   UNL     1       8.139   3.552  16.088  0.00  0.00    +0.000 HD
ATOM     18  H   UNL     1       7.912   4.975  17.096  0.00  0.00    +0.000 HD
ENDBRANCH  14  16
ENDBRANCH  12  14
ENDBRANCH  11  12
ENDBRANCH   4  10
BRANCH   7  19
ATOM     19  O   UNL     1       2.526   5.132  21.142  0.00  0.00    +0.000 OA
ATOM     20  H   UNL     1       3.392   4.777  21.411  0.00  0.00    +0.000 HD
ENDBRANCH   7  19
TORSDOF 6
ENDMDL
MODEL 8
REMARK VINA RESULT:      -5.5      5.166      5.727
REMARK  Name = 
REMARK  7 active torsions:
REMARK  status: ('A' for Active; 'I' for Inactive)
REMARK    1  A    between atoms: C_1  and  O_2
REMARK    2  A    between atoms: O_2  and  C_3
REMARK    3  A    between atoms: C_6  and  C_7
REMARK    4  A    between atoms: N_8  and  N_9
REMARK    5  A    between atoms: N_9  and  C_10
REMARK    6  A    between atoms: C_10  and  N_11
REMARK    7  A    between atoms: C_15  and  O_16
REMARK                            x       y       z     vdW  Elec       q    Type
REMARK                         _______ _______ _______ _____ _____    ______ ____
ROOT
ATOM      1  C   UNL     1       5.211   4.980  17.750  0.00  0.00    +0.000 A 
ATOM      2  C   UNL     1       5.182   6.138  16.969  0.00  0.00    +0.000 A 
ATOM      3  C   UNL     1       4.201   7.114  17.166  0.00  0.00    +0.000 A 
ATOM      4  C   UNL     1       3.232   6.953  18.165  0.00  0.00    +0.000 A 
ATOM      5  C   UNL     1       3.253   5.792  18.959  0.00  0.00    +0.000 A 
ATOM      6 BR   UNL     1       1.987   5.493  20.357  0.00  0.00    +0.000 Br
ATOM      7  C   UNL     1       4.243   4.814  18.749  0.00  0.00    +0.000 A 
ENDROOT
BRANCH   1   9
ATOM      8  C   UNL     1       7.574   4.677  17.714  0.00  0.00    +0.000 C 
ATOM      9  O   UNL     1       6.271   4.155  17.485  0.00  0.00    +0.000 OA
ENDBRANCH   1   9
BRANCH   4  10
ATOM     10  C   UNL     1       2.231   8.032  18.358  0.00  0.00    +0.000 C 
ATOM     11  N   UNL     1       2.112   9.019  17.524  0.00  0.00    +0.000 NA
BRANCH  11  12
ATOM     12  N   UNL     1       1.144   9.928  17.855  0.00  0.00    +0.000 N 
ATOM     13  H   UNL     1       0.176   9.777  17.587  0.00  0.00    +0.000 HD
BRANCH  12  14
ATOM     14  C   UNL     1       1.434  11.065  18.556  0.00  0.00    +0.000 C 
ATOM     15  S   UNL     1       0.816  11.355  20.066  0.00  0.00    +0.000 S 
BRANCH  14  16
ATOM     16  N   UNL     1       2.259  11.944  17.939  0.00  0.00    +0.000 N 
ATOM     17  H   UNL     1       1.970  12.914  17.923  0.00  0.00    +0.000 HD
ATOM     18  H   UNL     1       3.108  11.646  17.490  0.00  0.00    +0.000 HD
ENDBRANCH  14  16
ENDBRANCH  12  14
ENDBRANCH  11  12
ENDBRANCH   4  10
BRANCH   7  19
ATOM     19  O   UNL     1       4.287   3.707  19.558  0.00  0.00    +0.000 OA
ATOM     20  H   UNL     1       3.700   3.028  19.182  0.00  0.00    +0.000 HD
ENDBRANCH   7  19
TORSDOF 6
ENDMDL
MODEL 9
REMARK VINA RESULT:      -5.5      2.068      2.337
REMARK  Name = 
REMARK  7 active torsions:
REMARK  status: ('A' for Active; 'I' for Inactive)
REMARK    1  A    between atoms: C_1  and  O_2
REMARK    2  A    between atoms: O_2  and  C_3
REMARK    3  A    between atoms: C_6  and  C_7
REMARK    4  A    between atoms: N_8  and  N_9
REMARK    5  A    between atoms: N_9  and  C_10
REMARK    6  A    between atoms: C_10  and  N_11
REMARK    7  A    between atoms: C_15  and  O_16
REMARK                            x       y       z     vdW  Elec       q    Type
REMARK                         _______ _______ _______ _____ _____    ______ ____
ROOT
ATOM      1  C   UNL     1       6.744   5.515  15.970  0.00  0.00    +0.000 A 
ATOM      2  C   UNL     1       7.171   4.552  16.887  0.00  0.00    +0.000 A 
ATOM      3  C   UNL     1       6.437   4.289  18.048  0.00  0.00    +0.000 A 
ATOM      4  C   UNL     1       5.246   4.982  18.304  0.00  0.00    +0.000 A 
ATOM      5  C   UNL     1       4.806   5.952  17.386  0.00  0.00    +0.000 A 
ATOM      6 BR   UNL     1       3.187   6.933  17.640  0.00  0.00    +0.000 Br
ATOM      7  C   UNL     1       5.555   6.211  16.223  0.00  0.00    +0.000 A 
ENDROOT
BRANCH   1   9
ATOM      8  C   UNL     1       7.195   4.773  13.750  0.00  0.00    +0.000 C 
ATOM      9  O   UNL     1       7.531   5.608  14.853  0.00  0.00    +0.000 OA
ENDBRANCH   1   9
BRANCH   4  10
ATOM     10  C   UNL     1       4.484   4.644  19.532  0.00  0.00    +0.000 C 
ATOM     11  N   UNL     1       3.835   3.527  19.656  0.00  0.00    +0.000 NA
BRANCH  11  12
ATOM     12  N   UNL     1       3.182   3.379  20.849  0.00  0.00    +0.000 N 
ATOM     13  H   UNL     1       3.647   3.594  21.726  0.00  0.00    +0.000 HD
BRANCH  12  14
ATOM     14  C   UNL     1       1.890   2.941  20.913  0.00  0.00    +0.000 C 
ATOM     15  S   UNL     1       0.897   2.917  19.586  0.00  0.00    +0.000 S 
BRANCH  14  16
ATOM     16  N   UNL     1       1.465   2.528  22.131  0.00  0.00    +0.000 N 
ATOM     17  H   UNL     1       0.563   2.070  22.174  0.00  0.00    +0.000 HD
ATOM     18  H   UNL     1       2.007   2.692  22.963  0.00  0.00    +0.000 HD
ENDBRANCH  14  16
ENDBRANCH  12  14
ENDBRANCH  11  12
ENDBRANCH   4  10
BRANCH   7  19
ATOM     19  O   UNL     1       5.096   7.124  15.309  0.00  0.00    +0.000 OA
ATOM     20  H   UNL     1       5.519   6.941  14.451  0.00  0.00    +0.000 HD
ENDBRANCH   7  19
TORSDOF 6
ENDMDL
