MODEL 1
REMARK VINA RESULT:      -7.9      0.000      0.000
REMARK  Name = 
REMARK  2 active torsions:
REMARK  status: ('A' for Active; 'I' for Inactive)
REMARK    1  A    between atoms: C_2  and  C_5
REMARK    2  A    between atoms: C_10  and  C_11
REMARK                            x       y       z     vdW  Elec       q    Type
REMARK                         _______ _______ _______ _____ _____    ______ ____
ROOT
ATOM      1  C   UNL     1       3.678   5.201  17.503  0.00  0.00    +0.000 C 
ATOM      2  S   UNL     1       2.383   3.899  17.425  0.00  0.00    +0.000 S 
ATOM      3  C   UNL     1       2.156   4.013  19.244  0.00  0.00    +0.000 C 
ATOM      4  C   UNL     1       2.562   5.411  19.567  0.00  0.00    +0.000 A 
ATOM      5  N   UNL     1       2.258   6.159  20.596  0.00  0.00    +0.000 NA
ATOM      6  C   UNL     1       2.061   7.371  20.004  0.00  0.00    +0.000 A 
ATOM      7  C   UNL     1       1.344   8.435  20.574  0.00  0.00    +0.000 A 
ATOM      8  C   UNL     1       0.903   9.457  19.748  0.00  0.00    +0.000 A 
ATOM      9  C   UNL     1       1.216   9.429  18.387  0.00  0.00    +0.000 A 
ATOM     10  C   UNL     1       2.032   8.418  17.810  0.00  0.00    +0.000 A 
ATOM     11  C   UNL     1       2.468   7.374  18.644  0.00  0.00    +0.000 A 
ATOM     12  N   UNL     1       3.157   6.172  18.533  0.00  0.00    +0.000 N 
ENDROOT
BRANCH   1  18
ATOM     13  C   UNL     1       6.305   4.981  17.046  0.00  0.00    +0.000 A 
ATOM     14  C   UNL     1       7.322   4.660  16.092  0.00  0.00    +0.000 A 
ATOM     15  C   UNL     1       7.038   4.313  14.768  0.00  0.00    +0.000 A 
ATOM     16  C   UNL     1       5.709   4.271  14.355  0.00  0.00    +0.000 A 
ATOM     17  C   UNL     1       4.719   4.557  15.287  0.00  0.00    +0.000 A 
ATOM     18  C   UNL     1       4.952   4.913  16.671  0.00  0.00    +0.000 A 
BRANCH  13  20
ATOM     19  F   UNL     1       6.001   4.882  19.428  0.00  0.00    +0.000 F 
ATOM     20  C   UNL     1       6.740   5.408  18.421  0.00  0.00    +0.000 C 
ATOM     21  F   UNL     1       6.685   6.758  18.580  0.00  0.00    +0.000 F 
ATOM     22  F   UNL     1       8.030   5.052  18.681  0.00  0.00    +0.000 F 
ENDBRANCH  13  20
ENDBRANCH   1  18
TORSDOF 2
ENDMDL
MODEL 2
REMARK VINA RESULT:      -7.8      0.641      1.088
REMARK  Name = 
REMARK  2 active torsions:
REMARK  status: ('A' for Active; 'I' for Inactive)
REMARK    1  A    between atoms: C_2  and  C_5
REMARK    2  A    between atoms: C_10  and  C_11
REMARK                            x       y       z     vdW  Elec       q    Type
REMARK                         _______ _______ _______ _____ _____    ______ ____
ROOT
ATOM      1  C   UNL     1       3.734   5.317  17.387  0.00  0.00    +0.000 C 
ATOM      2  S   UNL     1       2.483   3.972  17.324  0.00  0.00    +0.000 S 
ATOM      3  C   UNL     1       2.308   4.046  19.150  0.00  0.00    +0.000 C 
ATOM      4  C   UNL     1       2.674   5.452  19.487  0.00  0.00    +0.000 A 
ATOM      5  N   UNL     1       2.376   6.171  20.538  0.00  0.00    +0.000 NA
ATOM      6  C   UNL     1       2.119   7.385  19.974  0.00  0.00    +0.000 A 
ATOM      7  C   UNL     1       1.384   8.413  20.585  0.00  0.00    +0.000 A 
ATOM      8  C   UNL     1       0.883   9.433  19.792  0.00  0.00    +0.000 A 
ATOM      9  C   UNL     1       1.155   9.440  18.421  0.00  0.00    +0.000 A 
ATOM     10  C   UNL     1       1.987   8.468  17.802  0.00  0.00    +0.000 A 
ATOM     11  C   UNL     1       2.484   7.426  18.603  0.00  0.00    +0.000 A 
ATOM     12  N   UNL     1       3.211   6.251  18.449  0.00  0.00    +0.000 N 
ENDROOT
BRANCH   1  18
ATOM     13  C   UNL     1       6.298   5.580  16.671  0.00  0.00    +0.000 A 
ATOM     14  C   UNL     1       7.310   5.225  15.724  0.00  0.00    +0.000 A 
ATOM     15  C   UNL     1       7.053   4.430  14.603  0.00  0.00    +0.000 A 
ATOM     16  C   UNL     1       5.761   3.956  14.397  0.00  0.00    +0.000 A 
ATOM     17  C   UNL     1       4.783   4.278  15.331  0.00  0.00    +0.000 A 
ATOM     18  C   UNL     1       4.991   5.089  16.512  0.00  0.00    +0.000 A 
BRANCH  13  20
ATOM     19  F   UNL     1       8.000   6.814  17.837  0.00  0.00    +0.000 F 
ATOM     20  C   UNL     1       6.682   6.500  17.798  0.00  0.00    +0.000 C 
ATOM     21  F   UNL     1       6.386   5.971  19.016  0.00  0.00    +0.000 F 
ATOM     22  F   UNL     1       6.018   7.689  17.734  0.00  0.00    +0.000 F 
ENDBRANCH  13  20
ENDBRANCH   1  18
TORSDOF 2
ENDMDL
MODEL 3
REMARK VINA RESULT:      -7.7      3.084      4.299
REMARK  Name = 
REMARK  2 active torsions:
REMARK  status: ('A' for Active; 'I' for Inactive)
REMARK    1  A    between atoms: C_2  and  C_5
REMARK    2  A    between atoms: C_10  and  C_11
REMARK                            x       y       z     vdW  Elec       q    Type
REMARK                         _______ _______ _______ _____ _____    ______ ____
ROOT
ATOM      1  C   UNL     1       3.129   5.768  18.734  0.00  0.00    +0.000 C 
ATOM      2  S   UNL     1       4.849   6.335  18.427  0.00  0.00    +0.000 S 
ATOM      3  C   UNL     1       4.225   7.595  17.246  0.00  0.00    +0.000 C 
ATOM      4  C   UNL     1       2.840   7.876  17.722  0.00  0.00    +0.000 A 
ATOM      5  N   UNL     1       2.076   8.919  17.523  0.00  0.00    +0.000 NA
ATOM      6  C   UNL     1       1.502   9.074  18.749  0.00  0.00    +0.000 A 
ATOM      7  C   UNL     1       0.902  10.257  19.210  0.00  0.00    +0.000 A 
ATOM      8  C   UNL     1       0.691  10.409  20.570  0.00  0.00    +0.000 A 
ATOM      9  C   UNL     1       1.036   9.373  21.443  0.00  0.00    +0.000 A 
ATOM     10  C   UNL     1       1.543   8.126  20.987  0.00  0.00    +0.000 A 
ATOM     11  C   UNL     1       1.770   7.977  19.608  0.00  0.00    +0.000 A 
ATOM     12  N   UNL     1       2.320   7.041  18.740  0.00  0.00    +0.000 N 
ENDROOT
BRANCH   1  18
ATOM     13  C   UNL     1       2.221   3.425  19.654  0.00  0.00    +0.000 A 
ATOM     14  C   UNL     1       2.180   2.008  19.461  0.00  0.00    +0.000 A 
ATOM     15  C   UNL     1       2.859   1.365  18.422  0.00  0.00    +0.000 A 
ATOM     16  C   UNL     1       3.604   2.132  17.530  0.00  0.00    +0.000 A 
ATOM     17  C   UNL     1       3.623   3.511  17.701  0.00  0.00    +0.000 A 
ATOM     18  C   UNL     1       2.935   4.232  18.751  0.00  0.00    +0.000 A 
BRANCH  13  20
ATOM     19  F   UNL     1       0.500   4.847  20.546  0.00  0.00    +0.000 F 
ATOM     20  C   UNL     1       1.507   3.992  20.850  0.00  0.00    +0.000 C 
ATOM     21  F   UNL     1       2.347   4.679  21.671  0.00  0.00    +0.000 F 
ATOM     22  F   UNL     1       0.946   3.016  21.619  0.00  0.00    +0.000 F 
ENDBRANCH  13  20
ENDBRANCH   1  18
TORSDOF 2
ENDMDL
MODEL 4
REMARK VINA RESULT:      -7.7      2.942      6.279
REMARK  Name = 
REMARK  2 active torsions:
REMARK  status: ('A' for Active; 'I' for Inactive)
REMARK    1  A    between atoms: C_2  and  C_5
REMARK    2  A    between atoms: C_10  and  C_11
REMARK                            x       y       z     vdW  Elec       q    Type
REMARK                         _______ _______ _______ _____ _____    ______ ____
ROOT
ATOM      1  C   UNL     1       4.062   5.521  17.540  0.00  0.00    +0.000 C 
ATOM      2  S   UNL     1       3.936   7.346  17.362  0.00  0.00    +0.000 S 
ATOM      3  C   UNL     1       5.768   7.470  17.318  0.00  0.00    +0.000 C 
ATOM      4  C   UNL     1       6.202   6.148  16.780  0.00  0.00    +0.000 A 
ATOM      5  N   UNL     1       7.317   5.805  16.189  0.00  0.00    +0.000 NA
ATOM      6  C   UNL     1       6.861   4.979  15.206  0.00  0.00    +0.000 A 
ATOM      7  C   UNL     1       7.577   4.639  14.047  0.00  0.00    +0.000 A 
ATOM      8  C   UNL     1       6.886   4.106  12.971  0.00  0.00    +0.000 A 
ATOM      9  C   UNL     1       5.511   3.878  13.077  0.00  0.00    +0.000 A 
ATOM     10  C   UNL     1       4.787   4.112  14.278  0.00  0.00    +0.000 A 
ATOM     11  C   UNL     1       5.486   4.666  15.365  0.00  0.00    +0.000 A 
ATOM     12  N   UNL     1       5.213   5.145  16.641  0.00  0.00    +0.000 N 
ENDROOT
BRANCH   1  18
ATOM     13  C   UNL     1       2.566   3.611  18.668  0.00  0.00    +0.000 A 
ATOM     14  C   UNL     1       1.724   3.256  19.769  0.00  0.00    +0.000 A 
ATOM     15  C   UNL     1       1.393   4.152  20.789  0.00  0.00    +0.000 A 
ATOM     16  C   UNL     1       1.904   5.446  20.740  0.00  0.00    +0.000 A 
ATOM     17  C   UNL     1       2.743   5.784  19.685  0.00  0.00    +0.000 A 
ATOM     18  C   UNL     1       3.128   4.898  18.606  0.00  0.00    +0.000 A 
BRANCH  13  20
ATOM     19  F   UNL     1       4.076   2.155  17.493  0.00  0.00    +0.000 F 
ATOM     20  C   UNL     1       2.793   2.581  17.596  0.00  0.00    +0.000 C 
ATOM     21  F   UNL     1       2.450   3.040  16.362  0.00  0.00    +0.000 F 
ATOM     22  F   UNL     1       2.044   1.459  17.800  0.00  0.00    +0.000 F 
ENDBRANCH  13  20
ENDBRANCH   1  18
TORSDOF 2
ENDMDL
MODEL 5
REMARK VINA RESULT:      -7.5      2.359      6.237
REMARK  Name = 
REMARK  2 active torsions:
REMARK  status: ('A' for Active; 'I' for Inactive)
REMARK    1  A    between atoms: C_2  and  C_5
REMARK    2  A    between atoms: C_10  and  C_11
REMARK                            x       y       z     vdW  Elec       q    Type
REMARK                         _______ _______ _______ _____ _____    ______ ____
ROOT
ATOM      1  C   UNL     1       2.325   6.358  19.735  0.00  0.00    +0.000 C 
ATOM      2  S   UNL     1       2.005   4.968  20.894  0.00  0.00    +0.000 S 
ATOM      3  C   UNL     1       1.624   3.869  19.473  0.00  0.00    +0.000 C 
ATOM      4  C   UNL     1       2.406   4.457  18.347  0.00  0.00    +0.000 A 
ATOM      5  N   UNL     1       2.820   3.909  17.233  0.00  0.00    +0.000 NA
ATOM      6  C   UNL     1       4.069   4.442  17.116  0.00  0.00    +0.000 A 
ATOM      7  C   UNL     1       5.098   3.907  16.323  0.00  0.00    +0.000 A 
ATOM      8  C   UNL     1       6.401   4.310  16.566  0.00  0.00    +0.000 A 
ATOM      9  C   UNL     1       6.657   5.263  17.555  0.00  0.00    +0.000 A 
ATOM     10  C   UNL     1       5.620   5.897  18.293  0.00  0.00    +0.000 A 
ATOM     11  C   UNL     1       4.299   5.479  18.057  0.00  0.00    +0.000 A 
ATOM     12  N   UNL     1       3.028   5.708  18.570  0.00  0.00    +0.000 N 
ENDROOT
BRANCH   1  18
ATOM     13  C   UNL     1       1.547   8.896  19.401  0.00  0.00    +0.000 A 
ATOM     14  C   UNL     1       0.926  10.038  20.000  0.00  0.00    +0.000 A 
ATOM     15  C   UNL     1       0.488  10.052  21.327  0.00  0.00    +0.000 A 
ATOM     16  C   UNL     1       0.656   8.909  22.104  0.00  0.00    +0.000 A 
ATOM     17  C   UNL     1       1.235   7.791  21.515  0.00  0.00    +0.000 A 
ATOM     18  C   UNL     1       1.700   7.714  20.146  0.00  0.00    +0.000 A 
BRANCH  13  20
ATOM     19  F   UNL     1       3.346   8.702  17.818  0.00  0.00    +0.000 F 
ATOM     20  C   UNL     1       2.040   9.027  17.986  0.00  0.00    +0.000 C 
ATOM     21  F   UNL     1       1.905  10.294  17.510  0.00  0.00    +0.000 F 
ATOM     22  F   UNL     1       1.345   8.227  17.128  0.00  0.00    +0.000 F 
ENDBRANCH  13  20
ENDBRANCH   1  18
TORSDOF 2
ENDMDL
MODEL 6
REMARK VINA RESULT:      -7.4      2.613      5.445
REMARK  Name = 
REMARK  2 active torsions:
REMARK  status: ('A' for Active; 'I' for Inactive)
REMARK    1  A    between atoms: C_2  and  C_5
REMARK    2  A    between atoms: C_10  and  C_11
REMARK                            x       y       z     vdW  Elec       q    Type
REMARK                         _______ _______ _______ _____ _____    ______ ____
ROOT
ATOM      1  C   UNL     1       4.156   4.284  17.531  0.00  0.00    +0.000 C 
ATOM      2  S   UNL     1       4.764   3.264  16.128  0.00  0.00    +0.000 S 
ATOM      3  C   UNL     1       5.010   4.783  15.127  0.00  0.00    +0.000 C 
ATOM      4  C   UNL     1       5.246   5.847  16.146  0.00  0.00    +0.000 A 
ATOM      5  N   UNL     1       5.838   7.008  16.030  0.00  0.00    +0.000 NA
ATOM      6  C   UNL     1       6.540   7.073  17.196  0.00  0.00    +0.000 A 
ATOM      7  C   UNL     1       7.643   7.912  17.422  0.00  0.00    +0.000 A 
ATOM      8  C   UNL     1       8.485   7.631  18.486  0.00  0.00    +0.000 A 
ATOM      9  C   UNL     1       8.196   6.555  19.330  0.00  0.00    +0.000 A 
ATOM     10  C   UNL     1       7.026   5.761  19.184  0.00  0.00    +0.000 A 
ATOM     11  C   UNL     1       6.180   6.037  18.096  0.00  0.00    +0.000 A 
ATOM     12  N   UNL     1       5.040   5.505  17.504  0.00  0.00    +0.000 N 
ENDROOT
BRANCH   1  18
ATOM     13  C   UNL     1       2.048   4.367  19.176  0.00  0.00    +0.000 A 
ATOM     14  C   UNL     1       0.913   3.664  19.690  0.00  0.00    +0.000 A 
ATOM     15  C   UNL     1       0.607   2.349  19.326  0.00  0.00    +0.000 A 
ATOM     16  C   UNL     1       1.437   1.692  18.421  0.00  0.00    +0.000 A 
ATOM     17  C   UNL     1       2.525   2.384  17.902  0.00  0.00    +0.000 A 
ATOM     18  C   UNL     1       2.886   3.746  18.235  0.00  0.00    +0.000 A 
BRANCH  13  20
ATOM     19  F   UNL     1       2.211   6.730  18.764  0.00  0.00    +0.000 F 
ATOM     20  C   UNL     1       2.311   5.753  19.698  0.00  0.00    +0.000 C 
ATOM     21  F   UNL     1       3.557   5.872  20.233  0.00  0.00    +0.000 F 
ATOM     22  F   UNL     1       1.442   6.098  20.691  0.00  0.00    +0.000 F 
ENDBRANCH  13  20
ENDBRANCH   1  18
TORSDOF 2
ENDMDL
MODEL 7
REMARK VINA RESULT:      -7.2      3.039      4.766
REMARK  Name = 
REMARK  2 active torsions:
REMARK  status: ('A' for Active; 'I' for Inactive)
REMARK    1  A    between atoms: C_2  and  C_5
REMARK    2  A    between atoms: C_10  and  C_11
REMARK                            x       y       z     vdW  Elec       q    Type
REMARK                         _______ _______ _______ _____ _____    ______ ____
ROOT
ATOM      1  C   UNL     1       2.704   6.102  19.449  0.00  0.00    +0.000 C 
ATOM      2  S   UNL     1       4.457   6.440  19.013  0.00  0.00    +0.000 S 
ATOM      3  C   UNL     1       3.910   7.399  17.546  0.00  0.00    +0.000 C 
ATOM      4  C   UNL     1       2.557   7.895  17.928  0.00  0.00    +0.000 A 
ATOM      5  N   UNL     1       1.870   8.907  17.465  0.00  0.00    +0.000 NA
ATOM      6  C   UNL     1       1.328   9.415  18.607  0.00  0.00    +0.000 A 
ATOM      7  C   UNL     1       0.824  10.718  18.746  0.00  0.00    +0.000 A 
ATOM      8  C   UNL     1       0.646  11.229  20.022  0.00  0.00    +0.000 A 
ATOM      9  C   UNL     1       0.926  10.429  21.132  0.00  0.00    +0.000 A 
ATOM     10  C   UNL     1       1.333   9.072  21.014  0.00  0.00    +0.000 A 
ATOM     11  C   UNL     1       1.527   8.557  19.720  0.00  0.00    +0.000 A 
ATOM     12  N   UNL     1       1.992   7.391  19.124  0.00  0.00    +0.000 N 
ENDROOT
BRANCH   1  18
ATOM     13  C   UNL     1       2.227   3.499  19.057  0.00  0.00    +0.000 A 
ATOM     14  C   UNL     1       1.951   2.236  19.671  0.00  0.00    +0.000 A 
ATOM     15  C   UNL     1       1.801   2.081  21.052  0.00  0.00    +0.000 A 
ATOM     16  C   UNL     1       1.929   3.199  21.872  0.00  0.00    +0.000 A 
ATOM     17  C   UNL     1       2.223   4.421  21.279  0.00  0.00    +0.000 A 
ATOM     18  C   UNL     1       2.397   4.641  19.859  0.00  0.00    +0.000 A 
BRANCH  13  20
ATOM     19  F   UNL     1       3.461   4.044  17.068  0.00  0.00    +0.000 F 
ATOM     20  C   UNL     1       2.296   3.550  17.556  0.00  0.00    +0.000 C 
ATOM     21  F   UNL     1       1.309   4.321  17.022  0.00  0.00    +0.000 F 
ATOM     22  F   UNL     1       2.153   2.315  16.996  0.00  0.00    +0.000 F 
ENDBRANCH  13  20
ENDBRANCH   1  18
TORSDOF 2
ENDMDL
MODEL 8
REMARK VINA RESULT:      -7.1      3.841      6.478
REMARK  Name = 
REMARK  2 active torsions:
REMARK  status: ('A' for Active; 'I' for Inactive)
REMARK    1  A    between atoms: C_2  and  C_5
REMARK    2  A    between atoms: C_10  and  C_11
REMARK                            x       y       z     vdW  Elec       q    Type
REMARK                         _______ _______ _______ _____ _____    ______ ____
ROOT
ATOM      1  C   UNL     1       4.702   4.694  17.307  0.00  0.00    +0.000 C 
ATOM      2  S   UNL     1       4.264   6.478  17.356  0.00  0.00    +0.000 S 
ATOM      3  C   UNL     1       6.017   6.919  17.033  0.00  0.00    +0.000 C 
ATOM      4  C   UNL     1       6.550   5.741  16.289  0.00  0.00    +0.000 A 
ATOM      5  N   UNL     1       7.583   5.646  15.493  0.00  0.00    +0.000 NA
ATOM      6  C   UNL     1       7.095   4.838  14.510  0.00  0.00    +0.000 A 
ATOM      7  C   UNL     1       7.640   4.724  13.221  0.00  0.00    +0.000 A 
ATOM      8  C   UNL     1       6.862   4.171  12.217  0.00  0.00    +0.000 A 
ATOM      9  C   UNL     1       5.580   3.701  12.516  0.00  0.00    +0.000 A 
ATOM     10  C   UNL     1       5.051   3.707  13.836  0.00  0.00    +0.000 A 
ATOM     11  C   UNL     1       5.835   4.281  14.851  0.00  0.00    +0.000 A 
ATOM     12  N   UNL     1       5.720   4.598  16.200  0.00  0.00    +0.000 N 
ENDROOT
BRANCH   1  18
ATOM     13  C   UNL     1       2.746   3.429  18.625  0.00  0.00    +0.000 A 
ATOM     14  C   UNL     1       2.405   2.620  19.754  0.00  0.00    +0.000 A 
ATOM     15  C   UNL     1       3.339   2.231  20.718  0.00  0.00    +0.000 A 
ATOM     16  C   UNL     1       4.662   2.643  20.577  0.00  0.00    +0.000 A 
ATOM     17  C   UNL     1       4.999   3.408  19.467  0.00  0.00    +0.000 A 
ATOM     18  C   UNL     1       4.079   3.833  18.434  0.00  0.00    +0.000 A 
BRANCH  13  20
ATOM     19  F   UNL     1       1.380   5.172  17.688  0.00  0.00    +0.000 F 
ATOM     20  C   UNL     1       1.638   3.841  17.694  0.00  0.00    +0.000 C 
ATOM     21  F   UNL     1       0.460   3.231  17.997  0.00  0.00    +0.000 F 
ATOM     22  F   UNL     1       1.910   3.509  16.399  0.00  0.00    +0.000 F 
ENDBRANCH  13  20
ENDBRANCH   1  18
TORSDOF 2
ENDMDL
MODEL 9
REMARK VINA RESULT:      -7.1      1.869      3.395
REMARK  Name = 
REMARK  2 active torsions:
REMARK  status: ('A' for Active; 'I' for Inactive)
REMARK    1  A    between atoms: C_2  and  C_5
REMARK    2  A    between atoms: C_10  and  C_11
REMARK                            x       y       z     vdW  Elec       q    Type
REMARK                         _______ _______ _______ _____ _____    ______ ____
ROOT
ATOM      1  C   UNL     1       4.261   5.064  17.456  0.00  0.00    +0.000 C 
ATOM      2  S   UNL     1       4.081   6.827  17.940  0.00  0.00    +0.000 S 
ATOM      3  C   UNL     1       2.253   6.652  17.905  0.00  0.00    +0.000 C 
ATOM      4  C   UNL     1       2.027   5.206  18.192  0.00  0.00    +0.000 A 
ATOM      5  N   UNL     1       0.968   4.596  18.658  0.00  0.00    +0.000 NA
ATOM      6  C   UNL     1       1.528   3.695  19.513  0.00  0.00    +0.000 A 
ATOM      7  C   UNL     1       0.846   3.053  20.560  0.00  0.00    +0.000 A 
ATOM      8  C   UNL     1       1.587   2.457  21.568  0.00  0.00    +0.000 A 
ATOM      9  C   UNL     1       2.983   2.469  21.500  0.00  0.00    +0.000 A 
ATOM     10  C   UNL     1       3.690   3.018  20.395  0.00  0.00    +0.000 A 
ATOM     11  C   UNL     1       2.939   3.634  19.379  0.00  0.00    +0.000 A 
ATOM     12  N   UNL     1       3.163   4.363  18.217  0.00  0.00    +0.000 N 
ENDROOT
BRANCH   1  18
ATOM     13  C   UNL     1       6.714   4.731  16.441  0.00  0.00    +0.000 A 
ATOM     14  C   UNL     1       7.488   4.452  15.271  0.00  0.00    +0.000 A 
ATOM     15  C   UNL     1       6.914   4.266  14.010  0.00  0.00    +0.000 A 
ATOM     16  C   UNL     1       5.530   4.350  13.881  0.00  0.00    +0.000 A 
ATOM     17  C   UNL     1       4.776   4.595  15.022  0.00  0.00    +0.000 A 
ATOM     18  C   UNL     1       5.312   4.788  16.353  0.00  0.00    +0.000 A 
BRANCH  13  20
ATOM     19  F   UNL     1       6.705   4.797  18.844  0.00  0.00    +0.000 F 
ATOM     20  C   UNL     1       7.451   4.982  17.728  0.00  0.00    +0.000 C 
ATOM     21  F   UNL     1       7.932   6.253  17.805  0.00  0.00    +0.000 F 
ATOM     22  F   UNL     1       8.533   4.163  17.864  0.00  0.00    +0.000 F 
ENDBRANCH  13  20
ENDBRANCH   1  18
TORSDOF 2
ENDMDL
