MODEL 1
REMARK VINA RESULT:      -6.9      0.000      0.000
REMARK  Name = 
REMARK  10 active torsions:
REMARK  status: ('A' for Active; 'I' for Inactive)
REMARK    1  A    between atoms: C_2  and  C_3
REMARK    2  A    between atoms: C_3  and  C_4
REMARK    3  A    between atoms: C_4  and  C_5
REMARK    4  A    between atoms: C_5  and  C_6
REMARK    5  A    between atoms: C_6  and  O_7
REMARK    6  A    between atoms: O_7  and  C_8
REMARK    7  A    between atoms: C_11  and  C_12
REMARK    8  A    between atoms: C_17  and  O_18
REMARK    9  A    between atoms: O_18  and  C_19
REMARK   10  A    between atoms: N_20  and  C_21
REMARK                            x       y       z     vdW  Elec       q    Type
REMARK                         _______ _______ _______ _____ _____    ______ ____
ROOT
ATOM      1  C   UNL     1       6.266   5.547  16.916  0.00  0.00    +0.000 A 
ATOM      2  N   UNL     1       6.873   4.690  17.703  0.00  0.00    +0.000 NA
ATOM      3  C   UNL     1       5.941   4.353  18.649  0.00  0.00    +0.000 A 
ATOM      4  C   UNL     1       4.728   4.989  18.443  0.00  0.00    +0.000 A 
ATOM      5  N   UNL     1       5.009   5.863  17.398  0.00  0.00    +0.000 N 
ATOM      6  C   UNL     1       4.171   6.870  16.775  0.00  0.00    +0.000 C 
ENDROOT
BRANCH   4   7
ATOM      7  C   UNL     1       3.417   4.736  19.077  0.00  0.00    +0.000 A 
ATOM      8  C   UNL     1       2.941   5.712  19.982  0.00  0.00    +0.000 A 
ATOM      9  C   UNL     1       1.767   5.558  20.710  0.00  0.00    +0.000 A 
ATOM     10  C   UNL     1       0.952   4.480  20.450  0.00  0.00    +0.000 A 
ATOM     11  C   UNL     1       1.326   3.559  19.473  0.00  0.00    +0.000 A 
ATOM     12  C   UNL     1       2.551   3.656  18.776  0.00  0.00    +0.000 A 
BRANCH  12  13
ATOM     13  O   UNL     1       2.914   2.684  17.873  0.00  0.00    +0.000 OA
ATOM     14  C   UNL     1       3.505   1.506  18.445  0.00  0.00    +0.000 C 
ENDBRANCH  12  13
ENDBRANCH   4   7
BRANCH   1  15
ATOM     15  O   UNL     1       6.738   5.978  15.756  0.00  0.00    +0.000 OA
BRANCH  15  16
ATOM     16  C   UNL     1       7.423   4.945  15.023  0.00  0.00    +0.000 C 
BRANCH  16  17
ATOM     17  C   UNL     1       6.926   4.890  13.582  0.00  0.00    +0.000 C 
BRANCH  17  18
ATOM     18  C   UNL     1       5.760   3.910  13.461  0.00  0.00    +0.000 C 
BRANCH  18  19
ATOM     19  C   UNL     1       5.837   3.106  12.171  0.00  0.00    +0.000 C 
BRANCH  19  21
ATOM     20  C   UNL     1       3.391   3.258  10.766  0.00  0.00    +0.000 C 
ATOM     21  C   UNL     1       4.520   3.188  11.415  0.00  0.00    +0.000 C 
ENDBRANCH  19  21
ENDBRANCH  18  19
ENDBRANCH  17  18
ENDBRANCH  16  17
ENDBRANCH  15  16
ENDBRANCH   1  15
TORSDOF 8
ENDMDL
MODEL 2
REMARK VINA RESULT:      -6.8      0.936      1.001
REMARK  Name = 
REMARK  10 active torsions:
REMARK  status: ('A' for Active; 'I' for Inactive)
REMARK    1  A    between atoms: C_2  and  C_3
REMARK    2  A    between atoms: C_3  and  C_4
REMARK    3  A    between atoms: C_4  and  C_5
REMARK    4  A    between atoms: C_5  and  C_6
REMARK    5  A    between atoms: C_6  and  O_7
REMARK    6  A    between atoms: O_7  and  C_8
REMARK    7  A    between atoms: C_11  and  C_12
REMARK    8  A    between atoms: C_17  and  O_18
REMARK    9  A    between atoms: O_18  and  C_19
REMARK   10  A    between atoms: N_20  and  C_21
REMARK                            x       y       z     vdW  Elec       q    Type
REMARK                         _______ _______ _______ _____ _____    ______ ____
ROOT
ATOM      1  C   UNL     1       6.881   5.461  16.638  0.00  0.00    +0.000 A 
ATOM      2  N   UNL     1       7.594   4.925  17.601  0.00  0.00    +0.000 NA
ATOM      3  C   UNL     1       6.736   4.821  18.664  0.00  0.00    +0.000 A 
ATOM      4  C   UNL     1       5.464   5.276  18.360  0.00  0.00    +0.000 A 
ATOM      5  N   UNL     1       5.622   5.815  17.087  0.00  0.00    +0.000 N 
ATOM      6  C   UNL     1       4.674   6.525  16.251  0.00  0.00    +0.000 C 
ENDROOT
BRANCH   4   7
ATOM      7  C   UNL     1       4.208   5.131  19.126  0.00  0.00    +0.000 A 
ATOM      8  C   UNL     1       3.441   6.300  19.331  0.00  0.00    +0.000 A 
ATOM      9  C   UNL     1       2.286   6.319  20.105  0.00  0.00    +0.000 A 
ATOM     10  C   UNL     1       1.779   5.133  20.584  0.00  0.00    +0.000 A 
ATOM     11  C   UNL     1       2.440   3.940  20.297  0.00  0.00    +0.000 A 
ATOM     12  C   UNL     1       3.656   3.907  19.577  0.00  0.00    +0.000 A 
BRANCH  12  13
ATOM     13  O   UNL     1       4.313   2.714  19.380  0.00  0.00    +0.000 OA
ATOM     14  C   UNL     1       3.592   1.737  18.613  0.00  0.00    +0.000 C 
ENDBRANCH  12  13
ENDBRANCH   4   7
BRANCH   1  15
ATOM     15  O   UNL     1       7.265   5.557  15.374  0.00  0.00    +0.000 OA
BRANCH  15  16
ATOM     16  C   UNL     1       7.107   4.320  14.655  0.00  0.00    +0.000 C 
BRANCH  16  17
ATOM     17  C   UNL     1       6.038   4.459  13.576  0.00  0.00    +0.000 C 
BRANCH  17  18
ATOM     18  C   UNL     1       6.439   3.675  12.327  0.00  0.00    +0.000 C 
BRANCH  18  19
ATOM     19  C   UNL     1       5.411   2.608  11.982  0.00  0.00    +0.000 C 
BRANCH  19  21
ATOM     20  C   UNL     1       3.323   3.713  10.432  0.00  0.00    +0.000 C 
ATOM     21  C   UNL     1       4.287   3.203  11.148  0.00  0.00    +0.000 C 
ENDBRANCH  19  21
ENDBRANCH  18  19
ENDBRANCH  17  18
ENDBRANCH  16  17
ENDBRANCH  15  16
ENDBRANCH   1  15
TORSDOF 8
ENDMDL
MODEL 3
REMARK VINA RESULT:      -6.8      4.068      6.172
REMARK  Name = 
REMARK  10 active torsions:
REMARK  status: ('A' for Active; 'I' for Inactive)
REMARK    1  A    between atoms: C_2  and  C_3
REMARK    2  A    between atoms: C_3  and  C_4
REMARK    3  A    between atoms: C_4  and  C_5
REMARK    4  A    between atoms: C_5  and  C_6
REMARK    5  A    between atoms: C_6  and  O_7
REMARK    6  A    between atoms: O_7  and  C_8
REMARK    7  A    between atoms: C_11  and  C_12
REMARK    8  A    between atoms: C_17  and  O_18
REMARK    9  A    between atoms: O_18  and  C_19
REMARK   10  A    between atoms: N_20  and  C_21
REMARK                            x       y       z     vdW  Elec       q    Type
REMARK                         _______ _______ _______ _____ _____    ______ ____
ROOT
ATOM      1  C   UNL     1       6.923   6.748  17.577  0.00  0.00    +0.000 A 
ATOM      2  N   UNL     1       6.506   7.022  16.363  0.00  0.00    +0.000 NA
ATOM      3  C   UNL     1       5.359   6.289  16.206  0.00  0.00    +0.000 A 
ATOM      4  C   UNL     1       5.041   5.561  17.341  0.00  0.00    +0.000 A 
ATOM      5  N   UNL     1       6.144   5.767  18.163  0.00  0.00    +0.000 N 
ATOM      6  C   UNL     1       6.457   5.203  19.461  0.00  0.00    +0.000 C 
ENDROOT
BRANCH   4   7
ATOM      7  C   UNL     1       3.794   4.838  17.672  0.00  0.00    +0.000 A 
ATOM      8  C   UNL     1       3.740   3.466  17.340  0.00  0.00    +0.000 A 
ATOM      9  C   UNL     1       2.599   2.691  17.517  0.00  0.00    +0.000 A 
ATOM     10  C   UNL     1       1.514   3.232  18.170  0.00  0.00    +0.000 A 
ATOM     11  C   UNL     1       1.576   4.548  18.626  0.00  0.00    +0.000 A 
ATOM     12  C   UNL     1       2.696   5.375  18.388  0.00  0.00    +0.000 A 
BRANCH  12  13
ATOM     13  O   UNL     1       2.685   6.691  18.791  0.00  0.00    +0.000 OA
ATOM     14  C   UNL     1       2.125   6.928  20.093  0.00  0.00    +0.000 C 
ENDBRANCH  12  13
ENDBRANCH   4   7
BRANCH   1  15
ATOM     15  O   UNL     1       7.892   7.393  18.209  0.00  0.00    +0.000 OA
BRANCH  15  16
ATOM     16  C   UNL     1       8.014   8.762  17.781  0.00  0.00    +0.000 C 
BRANCH  16  17
ATOM     17  C   UNL     1       8.873   9.556  18.758  0.00  0.00    +0.000 C 
BRANCH  17  18
ATOM     18  C   UNL     1       9.130  10.963  18.218  0.00  0.00    +0.000 C 
BRANCH  18  19
ATOM     19  C   UNL     1      10.543  11.433  18.531  0.00  0.00    +0.000 C 
BRANCH  19  21
ATOM     20  C   UNL     1      11.397  13.330  16.620  0.00  0.00    +0.000 C 
ATOM     21  C   UNL     1      11.003  12.454  17.502  0.00  0.00    +0.000 C 
ENDBRANCH  19  21
ENDBRANCH  18  19
ENDBRANCH  17  18
ENDBRANCH  16  17
ENDBRANCH  15  16
ENDBRANCH   1  15
TORSDOF 8
ENDMDL
MODEL 4
REMARK VINA RESULT:      -6.7      1.640      1.721
REMARK  Name = 
REMARK  10 active torsions:
REMARK  status: ('A' for Active; 'I' for Inactive)
REMARK    1  A    between atoms: C_2  and  C_3
REMARK    2  A    between atoms: C_3  and  C_4
REMARK    3  A    between atoms: C_4  and  C_5
REMARK    4  A    between atoms: C_5  and  C_6
REMARK    5  A    between atoms: C_6  and  O_7
REMARK    6  A    between atoms: O_7  and  C_8
REMARK    7  A    between atoms: C_11  and  C_12
REMARK    8  A    between atoms: C_17  and  O_18
REMARK    9  A    between atoms: O_18  and  C_19
REMARK   10  A    between atoms: N_20  and  C_21
REMARK                            x       y       z     vdW  Elec       q    Type
REMARK                         _______ _______ _______ _____ _____    ______ ____
ROOT
ATOM      1  C   UNL     1       6.385   4.536  17.090  0.00  0.00    +0.000 A 
ATOM      2  N   UNL     1       6.993   5.248  18.010  0.00  0.00    +0.000 NA
ATOM      3  C   UNL     1       6.146   5.236  19.087  0.00  0.00    +0.000 A 
ATOM      4  C   UNL     1       5.003   4.492  18.848  0.00  0.00    +0.000 A 
ATOM      5  N   UNL     1       5.117   4.167  17.500  0.00  0.00    +0.000 N 
ATOM      6  C   UNL     1       4.194   3.468  16.628  0.00  0.00    +0.000 C 
ENDROOT
BRANCH   4   7
ATOM      7  C   UNL     1       3.964   4.038  19.798  0.00  0.00    +0.000 A 
ATOM      8  C   UNL     1       2.863   4.899  20.005  0.00  0.00    +0.000 A 
ATOM      9  C   UNL     1       1.862   4.634  20.934  0.00  0.00    +0.000 A 
ATOM     10  C   UNL     1       1.855   3.423  21.586  0.00  0.00    +0.000 A 
ATOM     11  C   UNL     1       2.858   2.493  21.315  0.00  0.00    +0.000 A 
ATOM     12  C   UNL     1       3.926   2.773  20.433  0.00  0.00    +0.000 A 
BRANCH  12  13
ATOM     13  O   UNL     1       4.934   1.855  20.251  0.00  0.00    +0.000 OA
ATOM     14  C   UNL     1       5.241   1.046  21.398  0.00  0.00    +0.000 C 
ENDBRANCH  12  13
ENDBRANCH   4   7
BRANCH   1  15
ATOM     15  O   UNL     1       6.939   4.127  15.957  0.00  0.00    +0.000 OA
BRANCH  15  16
ATOM     16  C   UNL     1       7.025   5.178  14.976  0.00  0.00    +0.000 C 
BRANCH  16  17
ATOM     17  C   UNL     1       6.995   4.598  13.566  0.00  0.00    +0.000 C 
BRANCH  17  18
ATOM     18  C   UNL     1       5.711   3.797  13.349  0.00  0.00    +0.000 C 
BRANCH  18  19
ATOM     19  C   UNL     1       5.754   3.013  12.046  0.00  0.00    +0.000 C 
BRANCH  19  21
ATOM     20  C   UNL     1       3.348   3.358  10.608  0.00  0.00    +0.000 C 
ATOM     21  C   UNL     1       4.459   3.199  11.271  0.00  0.00    +0.000 C 
ENDBRANCH  19  21
ENDBRANCH  18  19
ENDBRANCH  17  18
ENDBRANCH  16  17
ENDBRANCH  15  16
ENDBRANCH   1  15
TORSDOF 8
ENDMDL
MODEL 5
REMARK VINA RESULT:      -6.7      3.694      5.728
REMARK  Name = 
REMARK  10 active torsions:
REMARK  status: ('A' for Active; 'I' for Inactive)
REMARK    1  A    between atoms: C_2  and  C_3
REMARK    2  A    between atoms: C_3  and  C_4
REMARK    3  A    between atoms: C_4  and  C_5
REMARK    4  A    between atoms: C_5  and  C_6
REMARK    5  A    between atoms: C_6  and  O_7
REMARK    6  A    between atoms: O_7  and  C_8
REMARK    7  A    between atoms: C_11  and  C_12
REMARK    8  A    between atoms: C_17  and  O_18
REMARK    9  A    between atoms: O_18  and  C_19
REMARK   10  A    between atoms: N_20  and  C_21
REMARK                            x       y       z     vdW  Elec       q    Type
REMARK                         _______ _______ _______ _____ _____    ______ ____
ROOT
ATOM      1  C   UNL     1       6.547   6.621  17.462  0.00  0.00    +0.000 A 
ATOM      2  N   UNL     1       5.793   6.909  16.427  0.00  0.00    +0.000 NA
ATOM      3  C   UNL     1       4.574   6.350  16.708  0.00  0.00    +0.000 A 
ATOM      4  C   UNL     1       4.556   5.721  17.942  0.00  0.00    +0.000 A 
ATOM      5  N   UNL     1       5.885   5.790  18.347  0.00  0.00    +0.000 N 
ATOM      6  C   UNL     1       6.532   5.234  19.519  0.00  0.00    +0.000 C 
ENDROOT
BRANCH   4   7
ATOM      7  C   UNL     1       3.405   5.206  18.715  0.00  0.00    +0.000 A 
ATOM      8  C   UNL     1       2.829   6.077  19.667  0.00  0.00    +0.000 A 
ATOM      9  C   UNL     1       1.800   5.689  20.519  0.00  0.00    +0.000 A 
ATOM     10  C   UNL     1       1.213   4.457  20.346  0.00  0.00    +0.000 A 
ATOM     11  C   UNL     1       1.671   3.616  19.333  0.00  0.00    +0.000 A 
ATOM     12  C   UNL     1       2.765   3.959  18.507  0.00  0.00    +0.000 A 
BRANCH  12  13
ATOM     13  O   UNL     1       3.232   3.069  17.568  0.00  0.00    +0.000 OA
ATOM     14  C   UNL     1       3.513   1.749  18.061  0.00  0.00    +0.000 C 
ENDBRANCH  12  13
ENDBRANCH   4   7
BRANCH   1  15
ATOM     15  O   UNL     1       7.745   7.136  17.694  0.00  0.00    +0.000 OA
BRANCH  15  16
ATOM     16  C   UNL     1       7.749   8.575  17.625  0.00  0.00    +0.000 C 
BRANCH  16  17
ATOM     17  C   UNL     1       8.767   9.156  18.600  0.00  0.00    +0.000 C 
BRANCH  17  18
ATOM     18  C   UNL     1       8.983  10.643  18.317  0.00  0.00    +0.000 C 
BRANCH  18  19
ATOM     19  C   UNL     1      10.243  11.164  18.994  0.00  0.00    +0.000 C 
BRANCH  19  21
ATOM     20  C   UNL     1      11.696  12.821  17.228  0.00  0.00    +0.000 C 
ATOM     21  C   UNL     1      11.026  12.056  18.044  0.00  0.00    +0.000 C 
ENDBRANCH  19  21
ENDBRANCH  18  19
ENDBRANCH  17  18
ENDBRANCH  16  17
ENDBRANCH  15  16
ENDBRANCH   1  15
TORSDOF 8
ENDMDL
MODEL 6
REMARK VINA RESULT:      -6.7      1.518      2.358
REMARK  Name = 
REMARK  10 active torsions:
REMARK  status: ('A' for Active; 'I' for Inactive)
REMARK    1  A    between atoms: C_2  and  C_3
REMARK    2  A    between atoms: C_3  and  C_4
REMARK    3  A    between atoms: C_4  and  C_5
REMARK    4  A    between atoms: C_5  and  C_6
REMARK    5  A    between atoms: C_6  and  O_7
REMARK    6  A    between atoms: O_7  and  C_8
REMARK    7  A    between atoms: C_11  and  C_12
REMARK    8  A    between atoms: C_17  and  O_18
REMARK    9  A    between atoms: O_18  and  C_19
REMARK   10  A    between atoms: N_20  and  C_21
REMARK                            x       y       z     vdW  Elec       q    Type
REMARK                         _______ _______ _______ _____ _____    ______ ____
ROOT
ATOM      1  C   UNL     1       6.976   5.302  15.810  0.00  0.00    +0.000 A 
ATOM      2  N   UNL     1       7.540   4.464  16.648  0.00  0.00    +0.000 NA
ATOM      3  C   UNL     1       6.539   4.089  17.504  0.00  0.00    +0.000 A 
ATOM      4  C   UNL     1       5.327   4.682  17.189  0.00  0.00    +0.000 A 
ATOM      5  N   UNL     1       5.670   5.571  16.175  0.00  0.00    +0.000 N 
ATOM      6  C   UNL     1       4.857   6.549  15.479  0.00  0.00    +0.000 C 
ENDROOT
BRANCH   4   7
ATOM      7  C   UNL     1       3.973   4.377  17.700  0.00  0.00    +0.000 A 
ATOM      8  C   UNL     1       3.506   3.054  17.532  0.00  0.00    +0.000 A 
ATOM      9  C   UNL     1       2.222   2.657  17.889  0.00  0.00    +0.000 A 
ATOM     10  C   UNL     1       1.408   3.540  18.561  0.00  0.00    +0.000 A 
ATOM     11  C   UNL     1       1.880   4.817  18.857  0.00  0.00    +0.000 A 
ATOM     12  C   UNL     1       3.153   5.266  18.437  0.00  0.00    +0.000 A 
BRANCH  12  13
ATOM     13  O   UNL     1       3.549   6.559  18.686  0.00  0.00    +0.000 OA
ATOM     14  C   UNL     1       2.565   7.567  18.406  0.00  0.00    +0.000 C 
ENDBRANCH  12  13
ENDBRANCH   4   7
BRANCH   1  15
ATOM     15  O   UNL     1       7.537   5.756  14.698  0.00  0.00    +0.000 OA
BRANCH  15  16
ATOM     16  C   UNL     1       7.710   4.725  13.709  0.00  0.00    +0.000 C 
BRANCH  16  17
ATOM     17  C   UNL     1       6.369   4.090  13.355  0.00  0.00    +0.000 C 
BRANCH  17  18
ATOM     18  C   UNL     1       6.474   3.331  12.033  0.00  0.00    +0.000 C 
BRANCH  18  19
ATOM     19  C   UNL     1       5.255   2.451  11.794  0.00  0.00    +0.000 C 
BRANCH  19  21
ATOM     20  C   UNL     1       3.293   3.861  10.332  0.00  0.00    +0.000 C 
ATOM     21  C   UNL     1       4.199   3.210  11.007  0.00  0.00    +0.000 C 
ENDBRANCH  19  21
ENDBRANCH  18  19
ENDBRANCH  17  18
ENDBRANCH  16  17
ENDBRANCH  15  16
ENDBRANCH   1  15
TORSDOF 8
ENDMDL
MODEL 7
REMARK VINA RESULT:      -6.6      3.616      6.093
REMARK  Name = 
REMARK  10 active torsions:
REMARK  status: ('A' for Active; 'I' for Inactive)
REMARK    1  A    between atoms: C_2  and  C_3
REMARK    2  A    between atoms: C_3  and  C_4
REMARK    3  A    between atoms: C_4  and  C_5
REMARK    4  A    between atoms: C_5  and  C_6
REMARK    5  A    between atoms: C_6  and  O_7
REMARK    6  A    between atoms: O_7  and  C_8
REMARK    7  A    between atoms: C_11  and  C_12
REMARK    8  A    between atoms: C_17  and  O_18
REMARK    9  A    between atoms: O_18  and  C_19
REMARK   10  A    between atoms: N_20  and  C_21
REMARK                            x       y       z     vdW  Elec       q    Type
REMARK                         _______ _______ _______ _____ _____    ______ ____
ROOT
ATOM      1  C   UNL     1       6.893   6.179  16.748  0.00  0.00    +0.000 A 
ATOM      2  N   UNL     1       6.400   6.077  15.536  0.00  0.00    +0.000 NA
ATOM      3  C   UNL     1       5.219   5.400  15.688  0.00  0.00    +0.000 A 
ATOM      4  C   UNL     1       4.956   5.090  17.012  0.00  0.00    +0.000 A 
ATOM      5  N   UNL     1       6.123   5.482  17.661  0.00  0.00    +0.000 N 
ATOM      6  C   UNL     1       6.507   5.343  19.052  0.00  0.00    +0.000 C 
ENDROOT
BRANCH   4   7
ATOM      7  C   UNL     1       3.711   4.583  17.627  0.00  0.00    +0.000 A 
ATOM      8  C   UNL     1       3.379   3.231  17.384  0.00  0.00    +0.000 A 
ATOM      9  C   UNL     1       2.195   2.653  17.830  0.00  0.00    +0.000 A 
ATOM     10  C   UNL     1       1.367   3.373  18.660  0.00  0.00    +0.000 A 
ATOM     11  C   UNL     1       1.723   4.671  19.025  0.00  0.00    +0.000 A 
ATOM     12  C   UNL     1       2.882   5.303  18.522  0.00  0.00    +0.000 A 
BRANCH  12  13
ATOM     13  O   UNL     1       3.157   6.611  18.850  0.00  0.00    +0.000 OA
ATOM     14  C   UNL     1       2.414   7.596  18.114  0.00  0.00    +0.000 C 
ENDBRANCH  12  13
ENDBRANCH   4   7
BRANCH   1  15
ATOM     15  O   UNL     1       7.928   6.934  17.085  0.00  0.00    +0.000 OA
BRANCH  15  16
ATOM     16  C   UNL     1       7.535   8.257  17.495  0.00  0.00    +0.000 C 
BRANCH  16  17
ATOM     17  C   UNL     1       8.524   8.821  18.510  0.00  0.00    +0.000 C 
BRANCH  17  18
ATOM     18  C   UNL     1       8.813  10.292  18.209  0.00  0.00    +0.000 C 
BRANCH  18  19
ATOM     19  C   UNL     1       9.945  10.828  19.072  0.00  0.00    +0.000 C 
BRANCH  19  21
ATOM     20  C   UNL     1       8.970  11.605  21.607  0.00  0.00    +0.000 C 
ATOM     21  C   UNL     1       9.420  11.246  20.437  0.00  0.00    +0.000 C 
ENDBRANCH  19  21
ENDBRANCH  18  19
ENDBRANCH  17  18
ENDBRANCH  16  17
ENDBRANCH  15  16
ENDBRANCH   1  15
TORSDOF 8
ENDMDL
MODEL 8
REMARK VINA RESULT:      -6.6      1.309      2.169
REMARK  Name = 
REMARK  10 active torsions:
REMARK  status: ('A' for Active; 'I' for Inactive)
REMARK    1  A    between atoms: C_2  and  C_3
REMARK    2  A    between atoms: C_3  and  C_4
REMARK    3  A    between atoms: C_4  and  C_5
REMARK    4  A    between atoms: C_5  and  C_6
REMARK    5  A    between atoms: C_6  and  O_7
REMARK    6  A    between atoms: O_7  and  C_8
REMARK    7  A    between atoms: C_11  and  C_12
REMARK    8  A    between atoms: C_17  and  O_18
REMARK    9  A    between atoms: O_18  and  C_19
REMARK   10  A    between atoms: N_20  and  C_21
REMARK                            x       y       z     vdW  Elec       q    Type
REMARK                         _______ _______ _______ _____ _____    ______ ____
ROOT
ATOM      1  C   UNL     1       6.147   5.436  17.720  0.00  0.00    +0.000 A 
ATOM      2  N   UNL     1       6.705   4.619  18.582  0.00  0.00    +0.000 NA
ATOM      3  C   UNL     1       5.659   4.056  19.267  0.00  0.00    +0.000 A 
ATOM      4  C   UNL     1       4.431   4.510  18.815  0.00  0.00    +0.000 A 
ATOM      5  N   UNL     1       4.779   5.507  17.910  0.00  0.00    +0.000 N 
ATOM      6  C   UNL     1       3.939   6.420  17.160  0.00  0.00    +0.000 C 
ENDROOT
BRANCH   4   7
ATOM      7  C   UNL     1       3.076   3.998  19.113  0.00  0.00    +0.000 A 
ATOM      8  C   UNL     1       2.700   2.780  18.500  0.00  0.00    +0.000 A 
ATOM      9  C   UNL     1       1.428   2.234  18.626  0.00  0.00    +0.000 A 
ATOM     10  C   UNL     1       0.529   2.815  19.491  0.00  0.00    +0.000 A 
ATOM     11  C   UNL     1       0.906   3.948  20.211  0.00  0.00    +0.000 A 
ATOM     12  C   UNL     1       2.167   4.563  20.040  0.00  0.00    +0.000 A 
BRANCH  12  13
ATOM     13  O   UNL     1       2.469   5.723  20.716  0.00  0.00    +0.000 OA
ATOM     14  C   UNL     1       1.902   6.921  20.162  0.00  0.00    +0.000 C 
ENDBRANCH  12  13
ENDBRANCH   4   7
BRANCH   1  15
ATOM     15  O   UNL     1       6.783   6.037  16.725  0.00  0.00    +0.000 OA
BRANCH  15  16
ATOM     16  C   UNL     1       7.283   5.105  15.748  0.00  0.00    +0.000 C 
BRANCH  16  17
ATOM     17  C   UNL     1       6.233   4.045  15.431  0.00  0.00    +0.000 C 
BRANCH  17  18
ATOM     18  C   UNL     1       5.495   4.398  14.140  0.00  0.00    +0.000 C 
BRANCH  18  19
ATOM     19  C   UNL     1       6.040   3.618  12.953  0.00  0.00    +0.000 C 
BRANCH  19  21
ATOM     20  C   UNL     1       3.983   3.103  11.086  0.00  0.00    +0.000 C 
ATOM     21  C   UNL     1       4.933   3.341  11.947  0.00  0.00    +0.000 C 
ENDBRANCH  19  21
ENDBRANCH  18  19
ENDBRANCH  17  18
ENDBRANCH  16  17
ENDBRANCH  15  16
ENDBRANCH   1  15
TORSDOF 8
ENDMDL
MODEL 9
REMARK VINA RESULT:      -6.6      2.064      6.233
REMARK  Name = 
REMARK  10 active torsions:
REMARK  status: ('A' for Active; 'I' for Inactive)
REMARK    1  A    between atoms: C_2  and  C_3
REMARK    2  A    between atoms: C_3  and  C_4
REMARK    3  A    between atoms: C_4  and  C_5
REMARK    4  A    between atoms: C_5  and  C_6
REMARK    5  A    between atoms: C_6  and  O_7
REMARK    6  A    between atoms: O_7  and  C_8
REMARK    7  A    between atoms: C_11  and  C_12
REMARK    8  A    between atoms: C_17  and  O_18
REMARK    9  A    between atoms: O_18  and  C_19
REMARK   10  A    between atoms: N_20  and  C_21
REMARK                            x       y       z     vdW  Elec       q    Type
REMARK                         _______ _______ _______ _____ _____    ______ ____
ROOT
ATOM      1  C   UNL     1       3.128   5.827  19.721  0.00  0.00    +0.000 A 
ATOM      2  N   UNL     1       2.664   6.823  19.004  0.00  0.00    +0.000 NA
ATOM      3  C   UNL     1       3.468   6.868  17.895  0.00  0.00    +0.000 A 
ATOM      4  C   UNL     1       4.435   5.877  17.906  0.00  0.00    +0.000 A 
ATOM      5  N   UNL     1       4.282   5.306  19.166  0.00  0.00    +0.000 N 
ATOM      6  C   UNL     1       5.056   4.269  19.819  0.00  0.00    +0.000 C 
ENDROOT
BRANCH   4   7
ATOM      7  C   UNL     1       5.336   5.434  16.820  0.00  0.00    +0.000 A 
ATOM      8  C   UNL     1       4.742   4.768  15.724  0.00  0.00    +0.000 A 
ATOM      9  C   UNL     1       5.482   4.225  14.680  0.00  0.00    +0.000 A 
ATOM     10  C   UNL     1       6.838   4.457  14.626  0.00  0.00    +0.000 A 
ATOM     11  C   UNL     1       7.443   5.218  15.625  0.00  0.00    +0.000 A 
ATOM     12  C   UNL     1       6.722   5.714  16.734  0.00  0.00    +0.000 A 
BRANCH  12  13
ATOM     13  O   UNL     1       7.373   6.398  17.735  0.00  0.00    +0.000 OA
ATOM     14  C   UNL     1       7.624   7.786  17.466  0.00  0.00    +0.000 C 
ENDBRANCH  12  13
ENDBRANCH   4   7
BRANCH   1  15
ATOM     15  O   UNL     1       2.523   5.309  20.781  0.00  0.00    +0.000 OA
BRANCH  15  16
ATOM     16  C   UNL     1       1.189   4.855  20.486  0.00  0.00    +0.000 C 
BRANCH  16  17
ATOM     17  C   UNL     1       1.103   3.336  20.595  0.00  0.00    +0.000 C 
BRANCH  17  18
ATOM     18  C   UNL     1       0.566   2.740  19.294  0.00  0.00    +0.000 C 
BRANCH  18  19
ATOM     19  C   UNL     1       1.393   3.180  18.095  0.00  0.00    +0.000 C 
BRANCH  19  21
ATOM     20  C   UNL     1       3.708   1.580  17.852  0.00  0.00    +0.000 C 
ATOM     21  C   UNL     1       2.640   2.319  17.964  0.00  0.00    +0.000 C 
ENDBRANCH  19  21
ENDBRANCH  18  19
ENDBRANCH  17  18
ENDBRANCH  16  17
ENDBRANCH  15  16
ENDBRANCH   1  15
TORSDOF 8
ENDMDL
