MODEL 1
REMARK VINA RESULT:      -7.5      0.000      0.000
REMARK  Name = 
REMARK  9 active torsions:
REMARK  status: ('A' for Active; 'I' for Inactive)
REMARK    1  A    between atoms: N_1  and  S_2
REMARK    2  A    between atoms: S_2  and  C_5
REMARK    3  A    between atoms: C_8  and  N_9
REMARK    4  A    between atoms: N_9  and  C_10
REMARK    5  A    between atoms: C_10  and  C_11
REMARK    6  A    between atoms: C_10  and  C_17
REMARK    7  A    between atoms: C_17  and  O_18
REMARK    8  A    between atoms: C_17  and  C_19
REMARK    9  A    between atoms: C_19  and  O_21
REMARK                            x       y       z     vdW  Elec       q    Type
REMARK                         _______ _______ _______ _____ _____    ______ ____
ROOT
ATOM      1  N   UNL     1       5.657   3.622  16.454  0.00  0.00    +0.000 N 
ATOM      2  H   UNL     1       6.375   3.341  17.135  0.00  0.00    +0.000 HD
ENDROOT
BRANCH   1   6
ATOM      3  C   UNL     1       2.267   3.361  18.939  0.00  0.00    +0.000 A 
ATOM      4  C   UNL     1       2.986   2.213  18.610  0.00  0.00    +0.000 A 
ATOM      5  C   UNL     1       4.078   2.322  17.738  0.00  0.00    +0.000 A 
ATOM      6  C   UNL     1       4.440   3.554  17.163  0.00  0.00    +0.000 A 
ATOM      7  C   UNL     1       3.702   4.687  17.520  0.00  0.00    +0.000 A 
ATOM      8  C   UNL     1       2.610   4.593  18.380  0.00  0.00    +0.000 A 
BRANCH   3   9
ATOM      9  S   UNL     1       0.931   3.316  20.092  0.00  0.00    +0.000 S 
ATOM     10  O   UNL     1      -0.119   2.475  19.579  0.00  0.00    +0.000 OA
ATOM     11  O   UNL     1       0.689   4.653  20.588  0.00  0.00    +0.000 OA
BRANCH   9  12
ATOM     12  N   UNL     1       1.631   2.480  21.370  0.00  0.00    +0.000 NA
ATOM     13  H   UNL     1       1.196   1.560  21.460  0.00  0.00    +0.000 HD
ATOM     14  H   UNL     1       1.618   3.034  22.227  0.00  0.00    +0.000 HD
ENDBRANCH   9  12
ENDBRANCH   3   9
ENDBRANCH   1   6
BRANCH   1  15
ATOM     15  C   UNL     1       6.034   4.903  15.804  0.00  0.00    +0.000 C 
BRANCH  15  16
ATOM     16  C   UNL     1       6.446   4.630  14.356  0.00  0.00    +0.000 A 
ATOM     17  C   UNL     1       7.502   5.333  13.752  0.00  0.00    +0.000 A 
ATOM     18  C   UNL     1       7.867   5.081  12.428  0.00  0.00    +0.000 A 
ATOM     19  C   UNL     1       7.170   4.136  11.680  0.00  0.00    +0.000 A 
ATOM     20  C   UNL     1       6.110   3.440  12.256  0.00  0.00    +0.000 A 
ATOM     21  C   UNL     1       5.753   3.680  13.586  0.00  0.00    +0.000 A 
ENDBRANCH  15  16
BRANCH  15  22
ATOM     22  C   UNL     1       7.187   5.628  16.558  0.00  0.00    +0.000 C 
BRANCH  22  23
ATOM     23  O   UNL     1       6.860   6.993  16.936  0.00  0.00    +0.000 OA
ATOM     24  H   UNL     1       5.897   7.033  17.092  0.00  0.00    +0.000 HD
ENDBRANCH  22  23
BRANCH  22  25
ATOM     25  C   UNL     1       7.508   4.938  17.884  0.00  0.00    +0.000 C 
ATOM     26  O   UNL     1       6.991   5.188  18.961  0.00  0.00    +0.000 OA
BRANCH  25  27
ATOM     27  O   UNL     1       8.449   3.967  17.733  0.00  0.00    +0.000 OA
ATOM     28  H   UNL     1       8.417   3.644  16.800  0.00  0.00    +0.000 HD
ENDBRANCH  25  27
ENDBRANCH  22  25
ENDBRANCH  15  22
ENDBRANCH   1  15
TORSDOF 9
ENDMDL
MODEL 2
REMARK VINA RESULT:      -7.5      0.184      1.022
REMARK  Name = 
REMARK  9 active torsions:
REMARK  status: ('A' for Active; 'I' for Inactive)
REMARK    1  A    between atoms: N_1  and  S_2
REMARK    2  A    between atoms: S_2  and  C_5
REMARK    3  A    between atoms: C_8  and  N_9
REMARK    4  A    between atoms: N_9  and  C_10
REMARK    5  A    between atoms: C_10  and  C_11
REMARK    6  A    between atoms: C_10  and  C_17
REMARK    7  A    between atoms: C_17  and  O_18
REMARK    8  A    between atoms: C_17  and  C_19
REMARK    9  A    between atoms: C_19  and  O_21
REMARK                            x       y       z     vdW  Elec       q    Type
REMARK                         _______ _______ _______ _____ _____    ______ ____
ROOT
ATOM      1  N   UNL     1       5.643   3.675  16.521  0.00  0.00    +0.000 N 
ATOM      2  H   UNL     1       6.376   3.380  17.179  0.00  0.00    +0.000 HD
ENDROOT
BRANCH   1   6
ATOM      3  C   UNL     1       2.332   3.502  19.117  0.00  0.00    +0.000 A 
ATOM      4  C   UNL     1       2.990   2.333  18.739  0.00  0.00    +0.000 A 
ATOM      5  C   UNL     1       4.055   2.414  17.832  0.00  0.00    +0.000 A 
ATOM      6  C   UNL     1       4.449   3.642  17.270  0.00  0.00    +0.000 A 
ATOM      7  C   UNL     1       3.773   4.797  17.677  0.00  0.00    +0.000 A 
ATOM      8  C   UNL     1       2.708   4.730  18.572  0.00  0.00    +0.000 A 
BRANCH   3   9
ATOM      9  S   UNL     1       1.036   3.488  20.316  0.00  0.00    +0.000 S 
ATOM     10  O   UNL     1       0.018   2.554  19.912  0.00  0.00    +0.000 OA
ATOM     11  O   UNL     1       0.738   4.848  20.706  0.00  0.00    +0.000 OA
BRANCH   9  12
ATOM     12  N   UNL     1       1.818   2.800  21.634  0.00  0.00    +0.000 NA
ATOM     13  H   UNL     1       1.506   1.834  21.755  0.00  0.00    +0.000 HD
ATOM     14  H   UNL     1       1.717   3.379  22.469  0.00  0.00    +0.000 HD
ENDBRANCH   9  12
ENDBRANCH   3   9
ENDBRANCH   1   6
BRANCH   1  15
ATOM     15  C   UNL     1       6.030   4.942  15.849  0.00  0.00    +0.000 C 
BRANCH  15  16
ATOM     16  C   UNL     1       6.403   4.646  14.395  0.00  0.00    +0.000 A 
ATOM     17  C   UNL     1       5.715   3.678  13.645  0.00  0.00    +0.000 A 
ATOM     18  C   UNL     1       6.067   3.412  12.320  0.00  0.00    +0.000 A 
ATOM     19  C   UNL     1       7.125   4.096  11.729  0.00  0.00    +0.000 A 
ATOM     20  C   UNL     1       7.830   5.049  12.460  0.00  0.00    +0.000 A 
ATOM     21  C   UNL     1       7.470   5.328  13.782  0.00  0.00    +0.000 A 
ENDBRANCH  15  16
BRANCH  15  22
ATOM     22  C   UNL     1       7.214   5.651  16.569  0.00  0.00    +0.000 C 
BRANCH  22  23
ATOM     23  O   UNL     1       6.923   7.026  16.938  0.00  0.00    +0.000 OA
ATOM     24  H   UNL     1       6.619   7.024  17.866  0.00  0.00    +0.000 HD
ENDBRANCH  22  23
BRANCH  22  25
ATOM     25  C   UNL     1       7.551   4.969  17.895  0.00  0.00    +0.000 C 
ATOM     26  O   UNL     1       7.085   5.260  18.984  0.00  0.00    +0.000 OA
BRANCH  25  27
ATOM     27  O   UNL     1       8.441   3.953  17.728  0.00  0.00    +0.000 OA
ATOM     28  H   UNL     1       8.939   4.109  16.890  0.00  0.00    +0.000 HD
ENDBRANCH  25  27
ENDBRANCH  22  25
ENDBRANCH  15  22
ENDBRANCH   1  15
TORSDOF 9
ENDMDL
MODEL 3
REMARK VINA RESULT:      -7.4      0.998      1.332
REMARK  Name = 
REMARK  9 active torsions:
REMARK  status: ('A' for Active; 'I' for Inactive)
REMARK    1  A    between atoms: N_1  and  S_2
REMARK    2  A    between atoms: S_2  and  C_5
REMARK    3  A    between atoms: C_8  and  N_9
REMARK    4  A    between atoms: N_9  and  C_10
REMARK    5  A    between atoms: C_10  and  C_11
REMARK    6  A    between atoms: C_10  and  C_17
REMARK    7  A    between atoms: C_17  and  O_18
REMARK    8  A    between atoms: C_17  and  C_19
REMARK    9  A    between atoms: C_19  and  O_21
REMARK                            x       y       z     vdW  Elec       q    Type
REMARK                         _______ _______ _______ _____ _____    ______ ____
ROOT
ATOM      1  N   UNL     1       5.658   3.575  16.585  0.00  0.00    +0.000 N 
ATOM      2  H   UNL     1       6.493   3.426  17.168  0.00  0.00    +0.000 HD
ENDROOT
BRANCH   1   6
ATOM      3  C   UNL     1       2.487   3.395  19.351  0.00  0.00    +0.000 A 
ATOM      4  C   UNL     1       3.805   3.248  19.782  0.00  0.00    +0.000 A 
ATOM      5  C   UNL     1       4.836   3.258  18.833  0.00  0.00    +0.000 A 
ATOM      6  C   UNL     1       4.568   3.378  17.458  0.00  0.00    +0.000 A 
ATOM      7  C   UNL     1       3.236   3.532  17.059  0.00  0.00    +0.000 A 
ATOM      8  C   UNL     1       2.200   3.516  17.990  0.00  0.00    +0.000 A 
BRANCH   3   9
ATOM      9  S   UNL     1       1.143   3.472  20.493  0.00  0.00    +0.000 S 
ATOM     10  O   UNL     1       0.726   4.840  20.653  0.00  0.00    +0.000 OA
ATOM     11  O   UNL     1       1.427   2.605  21.615  0.00  0.00    +0.000 OA
BRANCH   9  12
ATOM     12  N   UNL     1      -0.070   2.702  19.622  0.00  0.00    +0.000 NA
ATOM     13  H   UNL     1      -0.871   3.328  19.519  0.00  0.00    +0.000 HD
ATOM     14  H   UNL     1      -0.299   1.794  20.029  0.00  0.00    +0.000 HD
ENDBRANCH   9  12
ENDBRANCH   3   9
ENDBRANCH   1   6
BRANCH   1  15
ATOM     15  C   UNL     1       5.762   4.861  15.850  0.00  0.00    +0.000 C 
BRANCH  15  16
ATOM     16  C   UNL     1       6.256   4.590  14.428  0.00  0.00    +0.000 A 
ATOM     17  C   UNL     1       7.369   5.265  13.899  0.00  0.00    +0.000 A 
ATOM     18  C   UNL     1       7.809   5.015  12.598  0.00  0.00    +0.000 A 
ATOM     19  C   UNL     1       7.132   4.099  11.796  0.00  0.00    +0.000 A 
ATOM     20  C   UNL     1       6.017   3.431  12.297  0.00  0.00    +0.000 A 
ATOM     21  C   UNL     1       5.584   3.669  13.605  0.00  0.00    +0.000 A 
ENDBRANCH  15  16
BRANCH  15  22
ATOM     22  C   UNL     1       6.712   5.869  16.561  0.00  0.00    +0.000 C 
BRANCH  22  23
ATOM     23  O   UNL     1       6.007   6.916  17.281  0.00  0.00    +0.000 OA
ATOM     24  H   UNL     1       5.538   6.496  18.027  0.00  0.00    +0.000 HD
ENDBRANCH  22  23
BRANCH  22  25
ATOM     25  C   UNL     1       7.558   5.180  17.632  0.00  0.00    +0.000 C 
ATOM     26  O   UNL     1       8.250   4.188  17.464  0.00  0.00    +0.000 OA
BRANCH  25  27
ATOM     27  O   UNL     1       7.474   5.819  18.829  0.00  0.00    +0.000 OA
ATOM     28  H   UNL     1       7.906   6.703  18.742  0.00  0.00    +0.000 HD
ENDBRANCH  25  27
ENDBRANCH  22  25
ENDBRANCH  15  22
ENDBRANCH   1  15
TORSDOF 9
ENDMDL
MODEL 4
REMARK VINA RESULT:      -7.4      0.987      1.654
REMARK  Name = 
REMARK  9 active torsions:
REMARK  status: ('A' for Active; 'I' for Inactive)
REMARK    1  A    between atoms: N_1  and  S_2
REMARK    2  A    between atoms: S_2  and  C_5
REMARK    3  A    between atoms: C_8  and  N_9
REMARK    4  A    between atoms: N_9  and  C_10
REMARK    5  A    between atoms: C_10  and  C_11
REMARK    6  A    between atoms: C_10  and  C_17
REMARK    7  A    between atoms: C_17  and  O_18
REMARK    8  A    between atoms: C_17  and  C_19
REMARK    9  A    between atoms: C_19  and  O_21
REMARK                            x       y       z     vdW  Elec       q    Type
REMARK                         _______ _______ _______ _____ _____    ______ ____
ROOT
ATOM      1  N   UNL     1       5.656   3.607  16.589  0.00  0.00    +0.000 N 
ATOM      2  H   UNL     1       6.486   3.460  17.179  0.00  0.00    +0.000 HD
ENDROOT
BRANCH   1   6
ATOM      3  C   UNL     1       2.474   3.409  19.341  0.00  0.00    +0.000 A 
ATOM      4  C   UNL     1       3.785   3.203  19.767  0.00  0.00    +0.000 A 
ATOM      5  C   UNL     1       4.819   3.222  18.821  0.00  0.00    +0.000 A 
ATOM      6  C   UNL     1       4.558   3.408  17.452  0.00  0.00    +0.000 A 
ATOM      7  C   UNL     1       3.233   3.619  17.058  0.00  0.00    +0.000 A 
ATOM      8  C   UNL     1       2.194   3.596  17.987  0.00  0.00    +0.000 A 
BRANCH   3   9
ATOM      9  S   UNL     1       1.131   3.479  20.484  0.00  0.00    +0.000 S 
ATOM     10  O   UNL     1       0.679   4.839  20.612  0.00  0.00    +0.000 OA
ATOM     11  O   UNL     1       1.438   2.647  21.626  0.00  0.00    +0.000 OA
BRANCH   9  12
ATOM     12  N   UNL     1      -0.064   2.657  19.634  0.00  0.00    +0.000 NA
ATOM     13  H   UNL     1      -0.241   1.753  20.076  0.00  0.00    +0.000 HD
ATOM     14  H   UNL     1       0.162   2.600  18.640  0.00  0.00    +0.000 HD
ENDBRANCH   9  12
ENDBRANCH   3   9
ENDBRANCH   1   6
BRANCH   1  15
ATOM     15  C   UNL     1       5.764   4.895  15.857  0.00  0.00    +0.000 C 
BRANCH  15  16
ATOM     16  C   UNL     1       6.245   4.624  14.430  0.00  0.00    +0.000 A 
ATOM     17  C   UNL     1       5.606   3.679  13.610  0.00  0.00    +0.000 A 
ATOM     18  C   UNL     1       6.056   3.435  12.311  0.00  0.00    +0.000 A 
ATOM     19  C   UNL     1       7.164   4.117  11.816  0.00  0.00    +0.000 A 
ATOM     20  C   UNL     1       7.821   5.046  12.619  0.00  0.00    +0.000 A 
ATOM     21  C   UNL     1       7.364   5.304  13.915  0.00  0.00    +0.000 A 
ENDBRANCH  15  16
BRANCH  15  22
ATOM     22  C   UNL     1       6.729   5.893  16.563  0.00  0.00    +0.000 C 
BRANCH  22  23
ATOM     23  O   UNL     1       6.038   6.950  17.282  0.00  0.00    +0.000 OA
ATOM     24  H   UNL     1       5.079   6.787  17.197  0.00  0.00    +0.000 HD
ENDBRANCH  22  23
BRANCH  22  25
ATOM     25  C   UNL     1       7.568   5.197  17.634  0.00  0.00    +0.000 C 
ATOM     26  O   UNL     1       8.254   4.201  17.465  0.00  0.00    +0.000 OA
BRANCH  25  27
ATOM     27  O   UNL     1       7.487   5.835  18.832  0.00  0.00    +0.000 OA
ATOM     28  H   UNL     1       6.902   5.308  19.428  0.00  0.00    +0.000 HD
ENDBRANCH  25  27
ENDBRANCH  22  25
ENDBRANCH  15  22
ENDBRANCH   1  15
TORSDOF 9
ENDMDL
MODEL 5
REMARK VINA RESULT:      -7.4      0.881      1.688
REMARK  Name = 
REMARK  9 active torsions:
REMARK  status: ('A' for Active; 'I' for Inactive)
REMARK    1  A    between atoms: N_1  and  S_2
REMARK    2  A    between atoms: S_2  and  C_5
REMARK    3  A    between atoms: C_8  and  N_9
REMARK    4  A    between atoms: N_9  and  C_10
REMARK    5  A    between atoms: C_10  and  C_11
REMARK    6  A    between atoms: C_10  and  C_17
REMARK    7  A    between atoms: C_17  and  O_18
REMARK    8  A    between atoms: C_17  and  C_19
REMARK    9  A    between atoms: C_19  and  O_21
REMARK                            x       y       z     vdW  Elec       q    Type
REMARK                         _______ _______ _______ _____ _____    ______ ____
ROOT
ATOM      1  N   UNL     1       5.674   3.783  16.659  0.00  0.00    +0.000 N 
ATOM      2  H   UNL     1       6.515   3.413  17.121  0.00  0.00    +0.000 HD
ENDROOT
BRANCH   1   6
ATOM      3  C   UNL     1       2.476   3.729  19.399  0.00  0.00    +0.000 A 
ATOM      4  C   UNL     1       2.484   4.644  18.347  0.00  0.00    +0.000 A 
ATOM      5  C   UNL     1       3.586   4.675  17.482  0.00  0.00    +0.000 A 
ATOM      6  C   UNL     1       4.695   3.832  17.673  0.00  0.00    +0.000 A 
ATOM      7  C   UNL     1       4.652   2.920  18.733  0.00  0.00    +0.000 A 
ATOM      8  C   UNL     1       3.566   2.882  19.605  0.00  0.00    +0.000 A 
BRANCH   3   9
ATOM      9  S   UNL     1       1.089   3.575  20.480  0.00  0.00    +0.000 S 
ATOM     10  O   UNL     1       0.409   4.840  20.572  0.00  0.00    +0.000 OA
ATOM     11  O   UNL     1       1.480   2.812  21.644  0.00  0.00    +0.000 OA
BRANCH   9  12
ATOM     12  N   UNL     1       0.091   2.560  19.587  0.00  0.00    +0.000 NA
ATOM     13  H   UNL     1       0.413   2.525  18.618  0.00  0.00    +0.000 HD
ATOM     14  H   UNL     1      -0.891   2.821  19.691  0.00  0.00    +0.000 HD
ENDBRANCH   9  12
ENDBRANCH   3   9
ENDBRANCH   1   6
BRANCH   1  15
ATOM     15  C   UNL     1       5.997   5.029  15.918  0.00  0.00    +0.000 C 
BRANCH  15  16
ATOM     16  C   UNL     1       6.347   4.678  14.471  0.00  0.00    +0.000 A 
ATOM     17  C   UNL     1       5.609   3.724  13.750  0.00  0.00    +0.000 A 
ATOM     18  C   UNL     1       5.940   3.406  12.432  0.00  0.00    +0.000 A 
ATOM     19  C   UNL     1       7.026   4.022  11.817  0.00  0.00    +0.000 A 
ATOM     20  C   UNL     1       7.780   4.960  12.519  0.00  0.00    +0.000 A 
ATOM     21  C   UNL     1       7.441   5.291  13.834  0.00  0.00    +0.000 A 
ENDBRANCH  15  16
BRANCH  15  22
ATOM     22  C   UNL     1       7.170   5.816  16.573  0.00  0.00    +0.000 C 
BRANCH  22  23
ATOM     23  O   UNL     1       6.822   7.183  16.924  0.00  0.00    +0.000 OA
ATOM     24  H   UNL     1       6.022   7.149  17.483  0.00  0.00    +0.000 HD
ENDBRANCH  22  23
BRANCH  22  25
ATOM     25  C   UNL     1       7.595   5.184  17.899  0.00  0.00    +0.000 C 
ATOM     26  O   UNL     1       7.328   5.612  19.010  0.00  0.00    +0.000 OA
BRANCH  25  27
ATOM     27  O   UNL     1       8.310   4.043  17.707  0.00  0.00    +0.000 OA
ATOM     28  H   UNL     1       7.729   3.383  17.257  0.00  0.00    +0.000 HD
ENDBRANCH  25  27
ENDBRANCH  22  25
ENDBRANCH  15  22
ENDBRANCH   1  15
TORSDOF 9
ENDMDL
MODEL 6
REMARK VINA RESULT:      -7.3      4.058      5.947
REMARK  Name = 
REMARK  9 active torsions:
REMARK  status: ('A' for Active; 'I' for Inactive)
REMARK    1  A    between atoms: N_1  and  S_2
REMARK    2  A    between atoms: S_2  and  C_5
REMARK    3  A    between atoms: C_8  and  N_9
REMARK    4  A    between atoms: N_9  and  C_10
REMARK    5  A    between atoms: C_10  and  C_11
REMARK    6  A    between atoms: C_10  and  C_17
REMARK    7  A    between atoms: C_17  and  O_18
REMARK    8  A    between atoms: C_17  and  C_19
REMARK    9  A    between atoms: C_19  and  O_21
REMARK                            x       y       z     vdW  Elec       q    Type
REMARK                         _______ _______ _______ _____ _____    ______ ____
ROOT
ATOM      1  N   UNL     1       2.846   6.122  17.834  0.00  0.00    +0.000 N 
ATOM      2  H   UNL     1       1.977   5.677  17.509  0.00  0.00    +0.000 HD
ENDROOT
BRANCH   1   6
ATOM      3  C   UNL     1       1.175   9.167  20.215  0.00  0.00    +0.000 A 
ATOM      4  C   UNL     1       1.427   9.392  18.862  0.00  0.00    +0.000 A 
ATOM      5  C   UNL     1       2.032   8.379  18.106  0.00  0.00    +0.000 A 
ATOM      6  C   UNL     1       2.423   7.160  18.690  0.00  0.00    +0.000 A 
ATOM      7  C   UNL     1       2.149   6.964  20.047  0.00  0.00    +0.000 A 
ATOM      8  C   UNL     1       1.554   7.964  20.813  0.00  0.00    +0.000 A 
BRANCH   3   9
ATOM      9  S   UNL     1       0.343  10.364  21.212  0.00  0.00    +0.000 S 
ATOM     10  O   UNL     1       0.458   9.998  22.599  0.00  0.00    +0.000 OA
ATOM     11  O   UNL     1      -0.921  10.696  20.593  0.00  0.00    +0.000 OA
BRANCH   9  12
ATOM     12  N   UNL     1       1.323  11.711  20.990  0.00  0.00    +0.000 NA
ATOM     13  H   UNL     1       1.258  12.028  20.021  0.00  0.00    +0.000 HD
ATOM     14  H   UNL     1       2.277  11.531  21.307  0.00  0.00    +0.000 HD
ENDBRANCH   9  12
ENDBRANCH   3   9
ENDBRANCH   1   6
BRANCH   1  15
ATOM     15  C   UNL     1       3.784   5.099  18.363  0.00  0.00    +0.000 C 
BRANCH  15  16
ATOM     16  C   UNL     1       5.210   5.651  18.315  0.00  0.00    +0.000 A 
ATOM     17  C   UNL     1       6.165   5.295  19.282  0.00  0.00    +0.000 A 
ATOM     18  C   UNL     1       7.462   5.809  19.233  0.00  0.00    +0.000 A 
ATOM     19  C   UNL     1       7.822   6.702  18.228  0.00  0.00    +0.000 A 
ATOM     20  C   UNL     1       6.885   7.079  17.268  0.00  0.00    +0.000 A 
ATOM     21  C   UNL     1       5.590   6.554  17.306  0.00  0.00    +0.000 A 
ENDBRANCH  15  16
BRANCH  15  22
ATOM     22  C   UNL     1       3.704   3.762  17.568  0.00  0.00    +0.000 C 
BRANCH  22  23
ATOM     23  O   UNL     1       4.516   2.702  18.142  0.00  0.00    +0.000 OA
ATOM     24  H   UNL     1       3.941   1.920  18.257  0.00  0.00    +0.000 HD
ENDBRANCH  22  23
BRANCH  22  25
ATOM     25  C   UNL     1       2.285   3.193  17.573  0.00  0.00    +0.000 C 
ATOM     26  O   UNL     1       1.260   3.835  17.413  0.00  0.00    +0.000 OA
BRANCH  25  27
ATOM     27  O   UNL     1       2.282   1.846  17.759  0.00  0.00    +0.000 OA
ATOM     28  H   UNL     1       1.369   1.510  17.592  0.00  0.00    +0.000 HD
ENDBRANCH  25  27
ENDBRANCH  22  25
ENDBRANCH  15  22
ENDBRANCH   1  15
TORSDOF 9
ENDMDL
MODEL 7
REMARK VINA RESULT:      -7.3      0.899      1.319
REMARK  Name = 
REMARK  9 active torsions:
REMARK  status: ('A' for Active; 'I' for Inactive)
REMARK    1  A    between atoms: N_1  and  S_2
REMARK    2  A    between atoms: S_2  and  C_5
REMARK    3  A    between atoms: C_8  and  N_9
REMARK    4  A    between atoms: N_9  and  C_10
REMARK    5  A    between atoms: C_10  and  C_11
REMARK    6  A    between atoms: C_10  and  C_17
REMARK    7  A    between atoms: C_17  and  O_18
REMARK    8  A    between atoms: C_17  and  C_19
REMARK    9  A    between atoms: C_19  and  O_21
REMARK                            x       y       z     vdW  Elec       q    Type
REMARK                         _______ _______ _______ _____ _____    ______ ____
ROOT
ATOM      1  N   UNL     1       5.772   3.698  16.642  0.00  0.00    +0.000 N 
ATOM      2  H   UNL     1       6.595   3.372  17.166  0.00  0.00    +0.000 HD
ENDROOT
BRANCH   1   6
ATOM      3  C   UNL     1       2.423   3.283  19.160  0.00  0.00    +0.000 A 
ATOM      4  C   UNL     1       2.313   3.972  17.953  0.00  0.00    +0.000 A 
ATOM      5  C   UNL     1       3.456   4.141  17.160  0.00  0.00    +0.000 A 
ATOM      6  C   UNL     1       4.713   3.663  17.572  0.00  0.00    +0.000 A 
ATOM      7  C   UNL     1       4.787   2.969  18.784  0.00  0.00    +0.000 A 
ATOM      8  C   UNL     1       3.661   2.800  19.586  0.00  0.00    +0.000 A 
BRANCH   3   9
ATOM      9  S   UNL     1       1.013   2.961  20.172  0.00  0.00    +0.000 S 
ATOM     10  O   UNL     1       1.441   2.415  21.433  0.00  0.00    +0.000 OA
ATOM     11  O   UNL     1      -0.018   2.347  19.365  0.00  0.00    +0.000 OA
BRANCH   9  12
ATOM     12  N   UNL     1       0.473   4.521  20.486  0.00  0.00    +0.000 NA
ATOM     13  H   UNL     1      -0.539   4.569  20.355  0.00  0.00    +0.000 HD
ATOM     14  H   UNL     1       0.997   5.210  19.944  0.00  0.00    +0.000 HD
ENDBRANCH   9  12
ENDBRANCH   3   9
ENDBRANCH   1   6
BRANCH   1  15
ATOM     15  C   UNL     1       6.073   4.978  15.950  0.00  0.00    +0.000 C 
BRANCH  15  16
ATOM     16  C   UNL     1       6.453   4.688  14.497  0.00  0.00    +0.000 A 
ATOM     17  C   UNL     1       7.498   5.379  13.861  0.00  0.00    +0.000 A 
ATOM     18  C   UNL     1       7.833   5.111  12.532  0.00  0.00    +0.000 A 
ATOM     19  C   UNL     1       7.117   4.161  11.811  0.00  0.00    +0.000 A 
ATOM     20  C   UNL     1       6.067   3.474  12.418  0.00  0.00    +0.000 A 
ATOM     21  C   UNL     1       5.740   3.731  13.752  0.00  0.00    +0.000 A 
ENDBRANCH  15  16
BRANCH  15  22
ATOM     22  C   UNL     1       7.216   5.769  16.651  0.00  0.00    +0.000 C 
BRANCH  22  23
ATOM     23  O   UNL     1       6.826   7.110  17.053  0.00  0.00    +0.000 OA
ATOM     24  H   UNL     1       7.580   7.704  16.873  0.00  0.00    +0.000 HD
ENDBRANCH  22  23
BRANCH  22  25
ATOM     25  C   UNL     1       7.646   5.096  17.954  0.00  0.00    +0.000 C 
ATOM     26  O   UNL     1       7.350   5.467  19.078  0.00  0.00    +0.000 OA
BRANCH  25  27
ATOM     27  O   UNL     1       8.401   3.988  17.724  0.00  0.00    +0.000 OA
ATOM     28  H   UNL     1       8.296   3.730  16.777  0.00  0.00    +0.000 HD
ENDBRANCH  25  27
ENDBRANCH  22  25
ENDBRANCH  15  22
ENDBRANCH   1  15
TORSDOF 9
ENDMDL
MODEL 8
REMARK VINA RESULT:      -7.2      3.607      5.350
REMARK  Name = 
REMARK  9 active torsions:
REMARK  status: ('A' for Active; 'I' for Inactive)
REMARK    1  A    between atoms: N_1  and  S_2
REMARK    2  A    between atoms: S_2  and  C_5
REMARK    3  A    between atoms: C_8  and  N_9
REMARK    4  A    between atoms: N_9  and  C_10
REMARK    5  A    between atoms: C_10  and  C_11
REMARK    6  A    between atoms: C_10  and  C_17
REMARK    7  A    between atoms: C_17  and  O_18
REMARK    8  A    between atoms: C_17  and  C_19
REMARK    9  A    between atoms: C_19  and  O_21
REMARK                            x       y       z     vdW  Elec       q    Type
REMARK                         _______ _______ _______ _____ _____    ______ ____
ROOT
ATOM      1  N   UNL     1       2.826   4.760  18.423  0.00  0.00    +0.000 N 
ATOM      2  H   UNL     1       2.044   4.172  18.740  0.00  0.00    +0.000 HD
ENDROOT
BRANCH   1   6
ATOM      3  C   UNL     1       1.608   8.572  19.735  0.00  0.00    +0.000 A 
ATOM      4  C   UNL     1       2.084   8.395  18.436  0.00  0.00    +0.000 A 
ATOM      5  C   UNL     1       2.532   7.127  18.044  0.00  0.00    +0.000 A 
ATOM      6  C   UNL     1       2.546   6.042  18.939  0.00  0.00    +0.000 A 
ATOM      7  C   UNL     1       2.055   6.252  20.232  0.00  0.00    +0.000 A 
ATOM      8  C   UNL     1       1.613   7.509  20.639  0.00  0.00    +0.000 A 
BRANCH   3   9
ATOM      9  S   UNL     1       0.953  10.120  20.276  0.00  0.00    +0.000 S 
ATOM     10  O   UNL     1       1.331  11.153  19.349  0.00  0.00    +0.000 OA
ATOM     11  O   UNL     1       1.147  10.241  21.704  0.00  0.00    +0.000 OA
BRANCH   9  12
ATOM     12  N   UNL     1      -0.695   9.867  20.064  0.00  0.00    +0.000 NA
ATOM     13  H   UNL     1      -1.052  10.502  19.347  0.00  0.00    +0.000 HD
ATOM     14  H   UNL     1      -1.195   9.918  20.953  0.00  0.00    +0.000 HD
ENDBRANCH   9  12
ENDBRANCH   3   9
ENDBRANCH   1   6
BRANCH   1  15
ATOM     15  C   UNL     1       4.124   4.122  18.761  0.00  0.00    +0.000 C 
BRANCH  15  16
ATOM     16  C   UNL     1       5.106   4.336  17.607  0.00  0.00    +0.000 A 
ATOM     17  C   UNL     1       4.693   4.233  16.268  0.00  0.00    +0.000 A 
ATOM     18  C   UNL     1       5.598   4.424  15.221  0.00  0.00    +0.000 A 
ATOM     19  C   UNL     1       6.934   4.703  15.496  0.00  0.00    +0.000 A 
ATOM     20  C   UNL     1       7.366   4.794  16.818  0.00  0.00    +0.000 A 
ATOM     21  C   UNL     1       6.459   4.617  17.867  0.00  0.00    +0.000 A 
ENDBRANCH  15  16
BRANCH  15  22
ATOM     22  C   UNL     1       3.972   2.601  19.055  0.00  0.00    +0.000 C 
BRANCH  22  23
ATOM     23  O   UNL     1       4.896   2.115  20.066  0.00  0.00    +0.000 OA
ATOM     24  H   UNL     1       4.430   2.131  20.924  0.00  0.00    +0.000 HD
ENDBRANCH  22  23
BRANCH  22  25
ATOM     25  C   UNL     1       2.590   2.277  19.622  0.00  0.00    +0.000 C 
ATOM     26  O   UNL     1       2.196   2.556  20.743  0.00  0.00    +0.000 OA
BRANCH  25  27
ATOM     27  O   UNL     1       1.807   1.640  18.710  0.00  0.00    +0.000 OA
ATOM     28  H   UNL     1       2.183   0.740  18.550  0.00  0.00    +0.000 HD
ENDBRANCH  25  27
ENDBRANCH  22  25
ENDBRANCH  15  22
ENDBRANCH   1  15
TORSDOF 9
ENDMDL
MODEL 9
REMARK VINA RESULT:      -7.2      3.820      5.580
REMARK  Name = 
REMARK  9 active torsions:
REMARK  status: ('A' for Active; 'I' for Inactive)
REMARK    1  A    between atoms: N_1  and  S_2
REMARK    2  A    between atoms: S_2  and  C_5
REMARK    3  A    between atoms: C_8  and  N_9
REMARK    4  A    between atoms: N_9  and  C_10
REMARK    5  A    between atoms: C_10  and  C_11
REMARK    6  A    between atoms: C_10  and  C_17
REMARK    7  A    between atoms: C_17  and  O_18
REMARK    8  A    between atoms: C_17  and  C_19
REMARK    9  A    between atoms: C_19  and  O_21
REMARK                            x       y       z     vdW  Elec       q    Type
REMARK                         _______ _______ _______ _____ _____    ______ ____
ROOT
ATOM      1  N   UNL     1       2.742   4.930  18.659  0.00  0.00    +0.000 N 
ATOM      2  H   UNL     1       1.906   4.400  18.937  0.00  0.00    +0.000 HD
ENDROOT
BRANCH   1   6
ATOM      3  C   UNL     1       1.560   8.860  19.605  0.00  0.00    +0.000 A 
ATOM      4  C   UNL     1       2.019   8.554  18.325  0.00  0.00    +0.000 A 
ATOM      5  C   UNL     1       2.456   7.250  18.053  0.00  0.00    +0.000 A 
ATOM      6  C   UNL     1       2.475   6.258  19.050  0.00  0.00    +0.000 A 
ATOM      7  C   UNL     1       2.000   6.597  20.322  0.00  0.00    +0.000 A 
ATOM      8  C   UNL     1       1.569   7.890  20.608  0.00  0.00    +0.000 A 
BRANCH   3   9
ATOM      9  S   UNL     1       0.919  10.457  19.999  0.00  0.00    +0.000 S 
ATOM     10  O   UNL     1       1.386  11.415  19.032  0.00  0.00    +0.000 OA
ATOM     11  O   UNL     1       1.027  10.670  21.426  0.00  0.00    +0.000 OA
BRANCH   9  12
ATOM     12  N   UNL     1      -0.720  10.234  19.698  0.00  0.00    +0.000 NA
ATOM     13  H   UNL     1      -1.174   9.853  20.530  0.00  0.00    +0.000 HD
ATOM     14  H   UNL     1      -0.869   9.684  18.851  0.00  0.00    +0.000 HD
ENDBRANCH   9  12
ENDBRANCH   3   9
ENDBRANCH   1   6
BRANCH   1  15
ATOM     15  C   UNL     1       3.969   4.268  19.170  0.00  0.00    +0.000 C 
BRANCH  15  16
ATOM     16  C   UNL     1       5.061   4.338  18.101  0.00  0.00    +0.000 A 
ATOM     17  C   UNL     1       6.346   4.823  18.399  0.00  0.00    +0.000 A 
ATOM     18  C   UNL     1       7.335   4.888  17.415  0.00  0.00    +0.000 A 
ATOM     19  C   UNL     1       7.050   4.488  16.112  0.00  0.00    +0.000 A 
ATOM     20  C   UNL     1       5.778   4.018  15.793  0.00  0.00    +0.000 A 
ATOM     21  C   UNL     1       4.791   3.938  16.780  0.00  0.00    +0.000 A 
ENDBRANCH  15  16
BRANCH  15  22
ATOM     22  C   UNL     1       3.713   2.786  19.573  0.00  0.00    +0.000 C 
BRANCH  22  23
ATOM     23  O   UNL     1       4.890   2.123  20.108  0.00  0.00    +0.000 OA
ATOM     24  H   UNL     1       4.994   1.277  19.631  0.00  0.00    +0.000 HD
ENDBRANCH  22  23
BRANCH  22  25
ATOM     25  C   UNL     1       2.680   2.682  20.695  0.00  0.00    +0.000 C 
ATOM     26  O   UNL     1       2.929   2.523  21.879  0.00  0.00    +0.000 OA
BRANCH  25  27
ATOM     27  O   UNL     1       1.410   2.811  20.226  0.00  0.00    +0.000 OA
ATOM     28  H   UNL     1       1.080   1.916  19.969  0.00  0.00    +0.000 HD
ENDBRANCH  25  27
ENDBRANCH  22  25
ENDBRANCH  15  22
ENDBRANCH   1  15
TORSDOF 9
ENDMDL
