MODEL 1
REMARK VINA RESULT:      -9.4      0.000      0.000
REMARK  Name = 
REMARK  7 active torsions:
REMARK  status: ('A' for Active; 'I' for Inactive)
REMARK    1  A    between atoms: C_1  and  C_2
REMARK    2  A    between atoms: C_5  and  C_6
REMARK    3  A    between atoms: C_10  and  C_11
REMARK    4  A    between atoms: C_13  and  C_14
REMARK    5  A    between atoms: N_16  and  C_17
REMARK    6  A    between atoms: C_17  and  C_18
REMARK    7  A    between atoms: N_26  and  C_27
REMARK                            x       y       z     vdW  Elec       q    Type
REMARK                         _______ _______ _______ _____ _____    ______ ____
ROOT
ATOM      1  C   UNL     1       1.371   8.566  19.990  0.00  0.00    +0.000 A 
ATOM      2  C   UNL     1       1.095   8.725  21.340  0.00  0.00    +0.000 A 
ATOM      3  C   UNL     1       0.196   9.811  21.455  0.00  0.00    +0.000 A 
ATOM      4  N   UNL     1      -0.077  10.331  20.245  0.00  0.00    +0.000 NA
ATOM      5  N   UNL     1       0.621   9.555  19.383  0.00  0.00    +0.000 N 
ATOM      6  C   UNL     1       0.477   9.823  17.970  0.00  0.00    +0.000 C 
ENDROOT
BRANCH   1  11
ATOM      7  C   UNL     1       5.114   5.755  16.168  0.00  0.00    +0.000 A 
ATOM      8  C   UNL     1       4.611   7.022  16.379  0.00  0.00    +0.000 A 
ATOM      9  C   UNL     1       3.776   6.975  17.529  0.00  0.00    +0.000 A 
ATOM     10  C   UNL     1       2.982   7.927  18.204  0.00  0.00    +0.000 A 
ATOM     11  C   UNL     1       2.219   7.557  19.329  0.00  0.00    +0.000 A 
ATOM     12  C   UNL     1       2.273   6.222  19.753  0.00  0.00    +0.000 A 
ATOM     13  C   UNL     1       3.080   5.261  19.124  0.00  0.00    +0.000 A 
ATOM     14  C   UNL     1       3.809   5.666  18.006  0.00  0.00    +0.000 A 
ATOM     15  N   UNL     1       4.639   4.949  17.172  0.00  0.00    +0.000 N 
ATOM     16  H   UNL     1       4.853   3.965  17.261  0.00  0.00    +0.000 HD
BRANCH   7  21
ATOM     17  C   UNL     1       6.730   3.425  12.231  0.00  0.00    +0.000 C 
ATOM     18  C   UNL     1       6.691   4.275  13.434  0.00  0.00    +0.000 A 
ATOM     19  N   UNL     1       7.749   4.980  13.847  0.00  0.00    +0.000 NA
ATOM     20  O   UNL     1       7.268   5.640  14.977  0.00  0.00    +0.000 OA
ATOM     21  C   UNL     1       5.958   5.264  15.131  0.00  0.00    +0.000 A 
ATOM     22  N   UNL     1       5.562   4.418  14.202  0.00  0.00    +0.000 NA
ENDBRANCH   7  21
ENDBRANCH   1  11
BRANCH   3  23
ATOM     23  C   UNL     1      -0.393  10.343  22.698  0.00  0.00    +0.000 C 
ATOM     24  O   UNL     1       0.006  10.007  23.813  0.00  0.00    +0.000 OA
ATOM     25  N   UNL     1      -1.416  11.243  22.499  0.00  0.00    +0.000 N 
ATOM     26  H   UNL     1      -1.651  11.439  21.530  0.00  0.00    +0.000 HD
BRANCH  25  27
ATOM     27  C   UNL     1      -2.091  11.914  23.577  0.00  0.00    +0.000 C 
BRANCH  27  28
ATOM     28  C   UNL     1      -3.449  12.419  23.162  0.00  0.00    +0.000 A 
ATOM     29  C   UNL     1      -4.401  12.768  24.135  0.00  0.00    +0.000 A 
ATOM     30  C   UNL     1      -5.656  13.248  23.760  0.00  0.00    +0.000 A 
ATOM     31  C   UNL     1      -5.967  13.371  22.411  0.00  0.00    +0.000 A 
ATOM     32  F   UNL     1      -7.171  13.835  22.051  0.00  0.00    +0.000 F 
ATOM     33  C   UNL     1      -5.047  13.021  21.432  0.00  0.00    +0.000 A 
ATOM     34  C   UNL     1      -3.789  12.540  21.805  0.00  0.00    +0.000 A 
ENDBRANCH  27  28
ENDBRANCH  25  27
ENDBRANCH   3  23
TORSDOF 5
ENDMDL
MODEL 2
REMARK VINA RESULT:      -9.1      1.100      1.209
REMARK  Name = 
REMARK  7 active torsions:
REMARK  status: ('A' for Active; 'I' for Inactive)
REMARK    1  A    between atoms: C_1  and  C_2
REMARK    2  A    between atoms: C_5  and  C_6
REMARK    3  A    between atoms: C_10  and  C_11
REMARK    4  A    between atoms: C_13  and  C_14
REMARK    5  A    between atoms: N_16  and  C_17
REMARK    6  A    between atoms: C_17  and  C_18
REMARK    7  A    between atoms: N_26  and  C_27
REMARK                            x       y       z     vdW  Elec       q    Type
REMARK                         _______ _______ _______ _____ _____    ______ ____
ROOT
ATOM      1  C   UNL     1       0.833   9.383  19.871  0.00  0.00    +0.000 A 
ATOM      2  C   UNL     1       0.722   9.943  21.135  0.00  0.00    +0.000 A 
ATOM      3  C   UNL     1      -0.342  10.875  21.085  0.00  0.00    +0.000 A 
ATOM      4  N   UNL     1      -0.873  10.922  19.850  0.00  0.00    +0.000 NA
ATOM      5  N   UNL     1      -0.166  10.004  19.148  0.00  0.00    +0.000 N 
ATOM      6  C   UNL     1      -0.553   9.766  17.776  0.00  0.00    +0.000 C 
ENDROOT
BRANCH   1  11
ATOM      7  C   UNL     1       4.817   6.217  16.611  0.00  0.00    +0.000 A 
ATOM      8  C   UNL     1       4.228   7.464  16.598  0.00  0.00    +0.000 A 
ATOM      9  C   UNL     1       3.378   7.560  17.734  0.00  0.00    +0.000 A 
ATOM     10  C   UNL     1       2.512   8.558  18.231  0.00  0.00    +0.000 A 
ATOM     11  C   UNL     1       1.757   8.336  19.399  0.00  0.00    +0.000 A 
ATOM     12  C   UNL     1       1.892   7.100  20.047  0.00  0.00    +0.000 A 
ATOM     13  C   UNL     1       2.771   6.103  19.598  0.00  0.00    +0.000 A 
ATOM     14  C   UNL     1       3.490   6.357  18.430  0.00  0.00    +0.000 A 
ATOM     15  N   UNL     1       4.379   5.566  17.737  0.00  0.00    +0.000 N 
ATOM     16  H   UNL     1       4.656   4.628  17.995  0.00  0.00    +0.000 HD
BRANCH   7  21
ATOM     17  C   UNL     1       6.581   3.641  12.897  0.00  0.00    +0.000 C 
ATOM     18  C   UNL     1       6.506   4.515  14.082  0.00  0.00    +0.000 A 
ATOM     19  N   UNL     1       7.586   5.105  14.605  0.00  0.00    +0.000 NA
ATOM     20  O   UNL     1       7.061   5.838  15.669  0.00  0.00    +0.000 OA
ATOM     21  C   UNL     1       5.709   5.614  15.678  0.00  0.00    +0.000 A 
ATOM     22  N   UNL     1       5.323   4.799  14.718  0.00  0.00    +0.000 NA
ENDBRANCH   7  21
ENDBRANCH   1  11
BRANCH   3  23
ATOM     23  C   UNL     1      -0.843  11.705  22.196  0.00  0.00    +0.000 C 
ATOM     24  O   UNL     1      -0.600  11.446  23.374  0.00  0.00    +0.000 OA
ATOM     25  N   UNL     1      -1.596  12.787  21.798  0.00  0.00    +0.000 N 
ATOM     26  H   UNL     1      -1.723  12.893  20.795  0.00  0.00    +0.000 HD
BRANCH  25  27
ATOM     27  C   UNL     1      -2.137  13.749  22.721  0.00  0.00    +0.000 C 
BRANCH  27  28
ATOM     28  C   UNL     1      -3.553  13.415  23.113  0.00  0.00    +0.000 A 
ATOM     29  C   UNL     1      -3.804  12.630  24.251  0.00  0.00    +0.000 A 
ATOM     30  C   UNL     1      -5.113  12.327  24.630  0.00  0.00    +0.000 A 
ATOM     31  C   UNL     1      -6.173  12.799  23.867  0.00  0.00    +0.000 A 
ATOM     32  F   UNL     1      -7.430  12.511  24.232  0.00  0.00    +0.000 F 
ATOM     33  C   UNL     1      -5.948  13.566  22.731  0.00  0.00    +0.000 A 
ATOM     34  C   UNL     1      -4.640  13.871  22.350  0.00  0.00    +0.000 A 
ENDBRANCH  27  28
ENDBRANCH  25  27
ENDBRANCH   3  23
TORSDOF 5
ENDMDL
MODEL 3
REMARK VINA RESULT:      -8.8      1.584      2.115
REMARK  Name = 
REMARK  7 active torsions:
REMARK  status: ('A' for Active; 'I' for Inactive)
REMARK    1  A    between atoms: C_1  and  C_2
REMARK    2  A    between atoms: C_5  and  C_6
REMARK    3  A    between atoms: C_10  and  C_11
REMARK    4  A    between atoms: C_13  and  C_14
REMARK    5  A    between atoms: N_16  and  C_17
REMARK    6  A    between atoms: C_17  and  C_18
REMARK    7  A    between atoms: N_26  and  C_27
REMARK                            x       y       z     vdW  Elec       q    Type
REMARK                         _______ _______ _______ _____ _____    ______ ____
ROOT
ATOM      1  C   UNL     1       0.847   9.172  19.896  0.00  0.00    +0.000 A 
ATOM      2  C   UNL     1      -0.039   9.952  19.168  0.00  0.00    +0.000 A 
ATOM      3  C   UNL     1      -0.704  10.795  20.090  0.00  0.00    +0.000 A 
ATOM      4  N   UNL     1      -0.279  10.555  21.343  0.00  0.00    +0.000 NA
ATOM      5  N   UNL     1       0.664   9.595  21.198  0.00  0.00    +0.000 N 
ATOM      6  C   UNL     1       1.372   9.164  22.383  0.00  0.00    +0.000 C 
ENDROOT
BRANCH   1  11
ATOM      7  C   UNL     1       4.884   6.140  16.575  0.00  0.00    +0.000 A 
ATOM      8  C   UNL     1       4.242   7.361  16.562  0.00  0.00    +0.000 A 
ATOM      9  C   UNL     1       3.417   7.433  17.717  0.00  0.00    +0.000 A 
ATOM     10  C   UNL     1       2.521   8.399  18.224  0.00  0.00    +0.000 A 
ATOM     11  C   UNL     1       1.804   8.159  19.413  0.00  0.00    +0.000 A 
ATOM     12  C   UNL     1       2.007   6.938  20.071  0.00  0.00    +0.000 A 
ATOM     13  C   UNL     1       2.917   5.973  19.611  0.00  0.00    +0.000 A 
ATOM     14  C   UNL     1       3.597   6.245  18.423  0.00  0.00    +0.000 A 
ATOM     15  N   UNL     1       4.502   5.483  17.717  0.00  0.00    +0.000 N 
ATOM     16  H   UNL     1       4.825   4.562  17.979  0.00  0.00    +0.000 HD
BRANCH   7  21
ATOM     17  C   UNL     1       6.659   3.661  12.799  0.00  0.00    +0.000 C 
ATOM     18  C   UNL     1       6.581   4.507  14.005  0.00  0.00    +0.000 A 
ATOM     19  N   UNL     1       7.658   5.092  14.539  0.00  0.00    +0.000 NA
ATOM     20  O   UNL     1       7.130   5.797  15.621  0.00  0.00    +0.000 OA
ATOM     21  C   UNL     1       5.778   5.564  15.627  0.00  0.00    +0.000 A 
ATOM     22  N   UNL     1       5.397   4.769  14.648  0.00  0.00    +0.000 NA
ENDBRANCH   7  21
ENDBRANCH   1  11
BRANCH   3  23
ATOM     23  C   UNL     1      -1.726  11.811  19.780  0.00  0.00    +0.000 C 
ATOM     24  O   UNL     1      -2.193  11.953  18.650  0.00  0.00    +0.000 OA
ATOM     25  N   UNL     1      -2.109  12.576  20.859  0.00  0.00    +0.000 N 
ATOM     26  H   UNL     1      -1.651  12.359  21.739  0.00  0.00    +0.000 HD
BRANCH  25  27
ATOM     27  C   UNL     1      -3.128  13.588  20.781  0.00  0.00    +0.000 C 
BRANCH  27  28
ATOM     28  C   UNL     1      -4.274  13.305  21.718  0.00  0.00    +0.000 A 
ATOM     29  C   UNL     1      -5.566  13.095  21.209  0.00  0.00    +0.000 A 
ATOM     30  C   UNL     1      -6.631  12.818  22.068  0.00  0.00    +0.000 A 
ATOM     31  C   UNL     1      -6.408  12.761  23.438  0.00  0.00    +0.000 A 
ATOM     32  F   UNL     1      -7.429  12.492  24.263  0.00  0.00    +0.000 F 
ATOM     33  C   UNL     1      -5.141  12.976  23.964  0.00  0.00    +0.000 A 
ATOM     34  C   UNL     1      -4.074  13.253  23.107  0.00  0.00    +0.000 A 
ENDBRANCH  27  28
ENDBRANCH  25  27
ENDBRANCH   3  23
TORSDOF 5
ENDMDL
MODEL 4
REMARK VINA RESULT:      -8.5      0.924      1.264
REMARK  Name = 
REMARK  7 active torsions:
REMARK  status: ('A' for Active; 'I' for Inactive)
REMARK    1  A    between atoms: C_1  and  C_2
REMARK    2  A    between atoms: C_5  and  C_6
REMARK    3  A    between atoms: C_10  and  C_11
REMARK    4  A    between atoms: C_13  and  C_14
REMARK    5  A    between atoms: N_16  and  C_17
REMARK    6  A    between atoms: C_17  and  C_18
REMARK    7  A    between atoms: N_26  and  C_27
REMARK                            x       y       z     vdW  Elec       q    Type
REMARK                         _______ _______ _______ _____ _____    ______ ____
ROOT
ATOM      1  C   UNL     1       1.000   8.825  20.144  0.00  0.00    +0.000 A 
ATOM      2  C   UNL     1       0.728   9.102  21.476  0.00  0.00    +0.000 A 
ATOM      3  C   UNL     1      -0.181  10.186  21.498  0.00  0.00    +0.000 A 
ATOM      4  N   UNL     1      -0.463  10.593  20.247  0.00  0.00    +0.000 NA
ATOM      5  N   UNL     1       0.240   9.749  19.455  0.00  0.00    +0.000 N 
ATOM      6  C   UNL     1       0.087   9.888  18.024  0.00  0.00    +0.000 C 
ENDROOT
BRANCH   1  11
ATOM      7  C   UNL     1       4.718   5.698  16.550  0.00  0.00    +0.000 A 
ATOM      8  C   UNL     1       4.192   6.970  16.639  0.00  0.00    +0.000 A 
ATOM      9  C   UNL     1       3.384   7.029  17.807  0.00  0.00    +0.000 A 
ATOM     10  C   UNL     1       2.585   8.032  18.397  0.00  0.00    +0.000 A 
ATOM     11  C   UNL     1       1.855   7.768  19.573  0.00  0.00    +0.000 A 
ATOM     12  C   UNL     1       1.947   6.487  20.133  0.00  0.00    +0.000 A 
ATOM     13  C   UNL     1       2.760   5.480  19.590  0.00  0.00    +0.000 A 
ATOM     14  C   UNL     1       3.456   5.778  18.418  0.00  0.00    +0.000 A 
ATOM     15  N   UNL     1       4.282   4.993  17.644  0.00  0.00    +0.000 N 
ATOM     16  H   UNL     1       4.519   4.028  17.830  0.00  0.00    +0.000 HD
BRANCH   7  21
ATOM     17  C   UNL     1       7.829   5.142  12.868  0.00  0.00    +0.000 C 
ATOM     18  C   UNL     1       6.891   4.838  13.964  0.00  0.00    +0.000 A 
ATOM     19  N   UNL     1       6.624   3.586  14.351  0.00  0.00    +0.000 NA
ATOM     20  O   UNL     1       5.730   3.765  15.405  0.00  0.00    +0.000 OA
ATOM     21  C   UNL     1       5.549   5.117  15.550  0.00  0.00    +0.000 A 
ATOM     22  N   UNL     1       6.244   5.817  14.677  0.00  0.00    +0.000 NA
ENDBRANCH   7  21
ENDBRANCH   1  11
BRANCH   3  23
ATOM     23  C   UNL     1      -0.769  10.823  22.690  0.00  0.00    +0.000 C 
ATOM     24  O   UNL     1      -0.456  10.496  23.835  0.00  0.00    +0.000 OA
ATOM     25  N   UNL     1      -1.690  11.807  22.410  0.00  0.00    +0.000 N 
ATOM     26  H   UNL     1      -1.861  11.985  21.424  0.00  0.00    +0.000 HD
BRANCH  25  27
ATOM     27  C   UNL     1      -2.344  12.583  23.429  0.00  0.00    +0.000 C 
BRANCH  27  28
ATOM     28  C   UNL     1      -3.834  12.656  23.210  0.00  0.00    +0.000 A 
ATOM     29  C   UNL     1      -4.351  12.780  21.910  0.00  0.00    +0.000 A 
ATOM     30  C   UNL     1      -5.729  12.835  21.696  0.00  0.00    +0.000 A 
ATOM     31  C   UNL     1      -6.593  12.774  22.783  0.00  0.00    +0.000 A 
ATOM     32  F   UNL     1      -7.916  12.823  22.578  0.00  0.00    +0.000 F 
ATOM     33  C   UNL     1      -6.104  12.663  24.078  0.00  0.00    +0.000 A 
ATOM     34  C   UNL     1      -4.725  12.608  24.294  0.00  0.00    +0.000 A 
ENDBRANCH  27  28
ENDBRANCH  25  27
ENDBRANCH   3  23
TORSDOF 5
ENDMDL
MODEL 5
REMARK VINA RESULT:      -8.4      4.236     12.082
REMARK  Name = 
REMARK  7 active torsions:
REMARK  status: ('A' for Active; 'I' for Inactive)
REMARK    1  A    between atoms: C_1  and  C_2
REMARK    2  A    between atoms: C_5  and  C_6
REMARK    3  A    between atoms: C_10  and  C_11
REMARK    4  A    between atoms: C_13  and  C_14
REMARK    5  A    between atoms: N_16  and  C_17
REMARK    6  A    between atoms: C_17  and  C_18
REMARK    7  A    between atoms: N_26  and  C_27
REMARK                            x       y       z     vdW  Elec       q    Type
REMARK                         _______ _______ _______ _____ _____    ______ ____
ROOT
ATOM      1  C   UNL     1       1.621   8.286  19.745  0.00  0.00    +0.000 A 
ATOM      2  C   UNL     1       2.078   6.979  19.835  0.00  0.00    +0.000 A 
ATOM      3  C   UNL     1       2.802   6.710  18.649  0.00  0.00    +0.000 A 
ATOM      4  N   UNL     1       2.794   7.781  17.835  0.00  0.00    +0.000 NA
ATOM      5  N   UNL     1       2.099   8.718  18.524  0.00  0.00    +0.000 N 
ATOM      6  C   UNL     1       1.973  10.030  17.931  0.00  0.00    +0.000 C 
ENDROOT
BRANCH   1  11
ATOM      7  C   UNL     1      -1.974  12.392  22.339  0.00  0.00    +0.000 A 
ATOM      8  C   UNL     1      -1.586  12.011  21.072  0.00  0.00    +0.000 A 
ATOM      9  C   UNL     1      -0.709  10.899  21.199  0.00  0.00    +0.000 A 
ATOM     10  C   UNL     1       0.014  10.110  20.279  0.00  0.00    +0.000 A 
ATOM     11  C   UNL     1       0.848   9.067  20.729  0.00  0.00    +0.000 A 
ATOM     12  C   UNL     1       0.936   8.841  22.109  0.00  0.00    +0.000 A 
ATOM     13  C   UNL     1       0.202   9.585  23.045  0.00  0.00    +0.000 A 
ATOM     14  C   UNL     1      -0.602  10.616  22.559  0.00  0.00    +0.000 A 
ATOM     15  N   UNL     1      -1.389  11.527  23.229  0.00  0.00    +0.000 N 
ATOM     16  H   UNL     1      -1.506  11.578  24.232  0.00  0.00    +0.000 HD
BRANCH   7  21
ATOM     17  C   UNL     1      -3.872  16.044  24.911  0.00  0.00    +0.000 C 
ATOM     18  C   UNL     1      -3.650  15.056  23.839  0.00  0.00    +0.000 A 
ATOM     19  N   UNL     1      -4.381  15.037  22.721  0.00  0.00    +0.000 NA
ATOM     20  O   UNL     1      -3.824  13.983  21.997  0.00  0.00    +0.000 OA
ATOM     21  C   UNL     1      -2.805  13.472  22.758  0.00  0.00    +0.000 A 
ATOM     22  N   UNL     1      -2.664  14.102  23.906  0.00  0.00    +0.000 NA
ENDBRANCH   7  21
ENDBRANCH   1  11
BRANCH   3  23
ATOM     23  C   UNL     1       3.489   5.453  18.299  0.00  0.00    +0.000 C 
ATOM     24  O   UNL     1       2.877   4.436  17.974  0.00  0.00    +0.000 OA
ATOM     25  N   UNL     1       4.862   5.521  18.364  0.00  0.00    +0.000 N 
ATOM     26  H   UNL     1       5.248   6.420  18.644  0.00  0.00    +0.000 HD
BRANCH  25  27
ATOM     27  C   UNL     1       5.720   4.421  18.015  0.00  0.00    +0.000 C 
BRANCH  27  28
ATOM     28  C   UNL     1       6.097   4.444  16.556  0.00  0.00    +0.000 A 
ATOM     29  C   UNL     1       7.195   5.207  16.122  0.00  0.00    +0.000 A 
ATOM     30  C   UNL     1       7.559   5.224  14.775  0.00  0.00    +0.000 A 
ATOM     31  C   UNL     1       6.821   4.487  13.857  0.00  0.00    +0.000 A 
ATOM     32  F   UNL     1       7.173   4.500  12.564  0.00  0.00    +0.000 F 
ATOM     33  C   UNL     1       5.725   3.735  14.261  0.00  0.00    +0.000 A 
ATOM     34  C   UNL     1       5.359   3.717  15.609  0.00  0.00    +0.000 A 
ENDBRANCH  27  28
ENDBRANCH  25  27
ENDBRANCH   3  23
TORSDOF 5
ENDMDL
MODEL 6
REMARK VINA RESULT:      -8.4      4.331     12.066
REMARK  Name = 
REMARK  7 active torsions:
REMARK  status: ('A' for Active; 'I' for Inactive)
REMARK    1  A    between atoms: C_1  and  C_2
REMARK    2  A    between atoms: C_5  and  C_6
REMARK    3  A    between atoms: C_10  and  C_11
REMARK    4  A    between atoms: C_13  and  C_14
REMARK    5  A    between atoms: N_16  and  C_17
REMARK    6  A    between atoms: C_17  and  C_18
REMARK    7  A    between atoms: N_26  and  C_27
REMARK                            x       y       z     vdW  Elec       q    Type
REMARK                         _______ _______ _______ _____ _____    ______ ____
ROOT
ATOM      1  C   UNL     1       1.154   8.577  20.323  0.00  0.00    +0.000 A 
ATOM      2  C   UNL     1       1.642   7.311  20.614  0.00  0.00    +0.000 A 
ATOM      3  C   UNL     1       2.418   6.901  19.505  0.00  0.00    +0.000 A 
ATOM      4  N   UNL     1       2.414   7.845  18.547  0.00  0.00    +0.000 NA
ATOM      5  N   UNL     1       1.668   8.847  19.070  0.00  0.00    +0.000 N 
ATOM      6  C   UNL     1       1.532  10.059  18.293  0.00  0.00    +0.000 C 
ENDROOT
BRANCH   1  11
ATOM      7  C   UNL     1      -2.374  13.096  22.235  0.00  0.00    +0.000 A 
ATOM      8  C   UNL     1      -1.841  12.629  21.051  0.00  0.00    +0.000 A 
ATOM      9  C   UNL     1      -1.104  11.448  21.338  0.00  0.00    +0.000 A 
ATOM     10  C   UNL     1      -0.331  10.560  20.560  0.00  0.00    +0.000 A 
ATOM     11  C   UNL     1       0.323   9.465  21.157  0.00  0.00    +0.000 A 
ATOM     12  C   UNL     1       0.184   9.287  22.541  0.00  0.00    +0.000 A 
ATOM     13  C   UNL     1      -0.606  10.133  23.335  0.00  0.00    +0.000 A 
ATOM     14  C   UNL     1      -1.226  11.213  22.707  0.00  0.00    +0.000 A 
ATOM     15  N   UNL     1      -2.013  12.217  23.225  0.00  0.00    +0.000 N 
ATOM     16  H   UNL     1      -2.272  12.319  24.197  0.00  0.00    +0.000 HD
BRANCH   7  21
ATOM     17  C   UNL     1      -5.607  16.175  24.136  0.00  0.00    +0.000 C 
ATOM     18  C   UNL     1      -4.532  15.621  23.292  0.00  0.00    +0.000 A 
ATOM     19  N   UNL     1      -3.873  16.360  22.394  0.00  0.00    +0.000 NA
ATOM     20  O   UNL     1      -2.952  15.461  21.859  0.00  0.00    +0.000 OA
ATOM     21  C   UNL     1      -3.150  14.262  22.494  0.00  0.00    +0.000 A 
ATOM     22  N   UNL     1      -4.119  14.315  23.385  0.00  0.00    +0.000 NA
ENDBRANCH   7  21
ENDBRANCH   1  11
BRANCH   3  23
ATOM     23  C   UNL     1       3.151   5.629  19.361  0.00  0.00    +0.000 C 
ATOM     24  O   UNL     1       2.612   4.536  19.529  0.00  0.00    +0.000 OA
ATOM     25  N   UNL     1       4.477   5.776  19.022  0.00  0.00    +0.000 N 
ATOM     26  H   UNL     1       4.802   6.732  18.909  0.00  0.00    +0.000 HD
BRANCH  25  27
ATOM     27  C   UNL     1       5.355   4.661  18.786  0.00  0.00    +0.000 C 
BRANCH  27  28
ATOM     28  C   UNL     1       5.764   4.565  17.339  0.00  0.00    +0.000 A 
ATOM     29  C   UNL     1       7.085   4.854  16.958  0.00  0.00    +0.000 A 
ATOM     30  C   UNL     1       7.477   4.755  15.622  0.00  0.00    +0.000 A 
ATOM     31  C   UNL     1       6.546   4.376  14.662  0.00  0.00    +0.000 A 
ATOM     32  F   UNL     1       6.922   4.277  13.380  0.00  0.00    +0.000 F 
ATOM     33  C   UNL     1       5.232   4.096  15.014  0.00  0.00    +0.000 A 
ATOM     34  C   UNL     1       4.838   4.194  16.351  0.00  0.00    +0.000 A 
ENDBRANCH  27  28
ENDBRANCH  25  27
ENDBRANCH   3  23
TORSDOF 5
ENDMDL
MODEL 7
REMARK VINA RESULT:      -8.4      1.427      1.772
REMARK  Name = 
REMARK  7 active torsions:
REMARK  status: ('A' for Active; 'I' for Inactive)
REMARK    1  A    between atoms: C_1  and  C_2
REMARK    2  A    between atoms: C_5  and  C_6
REMARK    3  A    between atoms: C_10  and  C_11
REMARK    4  A    between atoms: C_13  and  C_14
REMARK    5  A    between atoms: N_16  and  C_17
REMARK    6  A    between atoms: C_17  and  C_18
REMARK    7  A    between atoms: N_26  and  C_27
REMARK                            x       y       z     vdW  Elec       q    Type
REMARK                         _______ _______ _______ _____ _____    ______ ____
ROOT
ATOM      1  C   UNL     1       0.576   9.576  20.080  0.00  0.00    +0.000 A 
ATOM      2  C   UNL     1       0.443  10.191  21.317  0.00  0.00    +0.000 A 
ATOM      3  C   UNL     1      -0.559  11.180  21.183  0.00  0.00    +0.000 A 
ATOM      4  N   UNL     1      -1.031  11.210  19.923  0.00  0.00    +0.000 NA
ATOM      5  N   UNL     1      -0.351  10.227  19.289  0.00  0.00    +0.000 N 
ATOM      6  C   UNL     1      -0.689   9.958  17.909  0.00  0.00    +0.000 C 
ENDROOT
BRANCH   1  11
ATOM      7  C   UNL     1       4.398   5.997  17.062  0.00  0.00    +0.000 A 
ATOM      8  C   UNL     1       3.853   7.260  16.948  0.00  0.00    +0.000 A 
ATOM      9  C   UNL     1       3.024   7.483  18.080  0.00  0.00    +0.000 A 
ATOM     10  C   UNL     1       2.202   8.551  18.499  0.00  0.00    +0.000 A 
ATOM     11  C   UNL     1       1.456   8.458  19.690  0.00  0.00    +0.000 A 
ATOM     12  C   UNL     1       1.554   7.279  20.441  0.00  0.00    +0.000 A 
ATOM     13  C   UNL     1       2.391   6.215  20.069  0.00  0.00    +0.000 A 
ATOM     14  C   UNL     1       3.103   6.342  18.876  0.00  0.00    +0.000 A 
ATOM     15  N   UNL     1       3.953   5.461  18.244  0.00  0.00    +0.000 N 
ATOM     16  H   UNL     1       4.199   4.540  18.579  0.00  0.00    +0.000 HD
BRANCH   7  21
ATOM     17  C   UNL     1       7.392   4.898  13.406  0.00  0.00    +0.000 C 
ATOM     18  C   UNL     1       6.551   4.773  14.610  0.00  0.00    +0.000 A 
ATOM     19  N   UNL     1       6.468   3.636  15.309  0.00  0.00    +0.000 NA
ATOM     20  O   UNL     1       5.604   3.970  16.352  0.00  0.00    +0.000 OA
ATOM     21  C   UNL     1       5.254   5.284  16.175  0.00  0.00    +0.000 A 
ATOM     22  N   UNL     1       5.813   5.818  15.108  0.00  0.00    +0.000 NA
ENDBRANCH   7  21
ENDBRANCH   1  11
BRANCH   3  23
ATOM     23  C   UNL     1      -1.058  12.082  22.238  0.00  0.00    +0.000 C 
ATOM     24  O   UNL     1      -0.711  11.975  23.414  0.00  0.00    +0.000 OA
ATOM     25  N   UNL     1      -1.935  13.045  21.792  0.00  0.00    +0.000 N 
ATOM     26  H   UNL     1      -2.140  13.029  20.796  0.00  0.00    +0.000 HD
BRANCH  25  27
ATOM     27  C   UNL     1      -2.498  14.051  22.650  0.00  0.00    +0.000 C 
BRANCH  27  28
ATOM     28  C   UNL     1      -3.894  13.694  23.093  0.00  0.00    +0.000 A 
ATOM     29  C   UNL     1      -5.007  14.233  22.426  0.00  0.00    +0.000 A 
ATOM     30  C   UNL     1      -6.303  13.898  22.821  0.00  0.00    +0.000 A 
ATOM     31  C   UNL     1      -6.489  13.030  23.890  0.00  0.00    +0.000 A 
ATOM     32  F   UNL     1      -7.733  12.705  24.267  0.00  0.00    +0.000 F 
ATOM     33  C   UNL     1      -5.405  12.494  24.571  0.00  0.00    +0.000 A 
ATOM     34  C   UNL     1      -4.107  12.828  24.178  0.00  0.00    +0.000 A 
ENDBRANCH  27  28
ENDBRANCH  25  27
ENDBRANCH   3  23
TORSDOF 5
ENDMDL
MODEL 8
REMARK VINA RESULT:      -8.3      4.458     12.249
REMARK  Name = 
REMARK  7 active torsions:
REMARK  status: ('A' for Active; 'I' for Inactive)
REMARK    1  A    between atoms: C_1  and  C_2
REMARK    2  A    between atoms: C_5  and  C_6
REMARK    3  A    between atoms: C_10  and  C_11
REMARK    4  A    between atoms: C_13  and  C_14
REMARK    5  A    between atoms: N_16  and  C_17
REMARK    6  A    between atoms: C_17  and  C_18
REMARK    7  A    between atoms: N_26  and  C_27
REMARK                            x       y       z     vdW  Elec       q    Type
REMARK                         _______ _______ _______ _____ _____    ______ ____
ROOT
ATOM      1  C   UNL     1       3.772   6.064  17.997  0.00  0.00    +0.000 A 
ATOM      2  C   UNL     1       4.787   6.371  17.102  0.00  0.00    +0.000 A 
ATOM      3  C   UNL     1       5.335   5.143  16.660  0.00  0.00    +0.000 A 
ATOM      4  N   UNL     1       4.715   4.107  17.252  0.00  0.00    +0.000 NA
ATOM      5  N   UNL     1       3.770   4.684  18.031  0.00  0.00    +0.000 N 
ATOM      6  C   UNL     1       2.874   3.812  18.758  0.00  0.00    +0.000 C 
ENDROOT
BRANCH   1  11
ATOM      7  C   UNL     1       0.327  10.789  19.524  0.00  0.00    +0.000 A 
ATOM      8  C   UNL     1       1.058  10.349  18.440  0.00  0.00    +0.000 A 
ATOM      9  C   UNL     1       1.610   9.081  18.770  0.00  0.00    +0.000 A 
ATOM     10  C   UNL     1       2.450   8.171  18.093  0.00  0.00    +0.000 A 
ATOM     11  C   UNL     1       2.863   6.977  18.716  0.00  0.00    +0.000 A 
ATOM     12  C   UNL     1       2.416   6.723  20.020  0.00  0.00    +0.000 A 
ATOM     13  C   UNL     1       1.552   7.592  20.705  0.00  0.00    +0.000 A 
ATOM     14  C   UNL     1       1.177   8.769  20.057  0.00  0.00    +0.000 A 
ATOM     15  N   UNL     1       0.389   9.814  20.488  0.00  0.00    +0.000 N 
ATOM     16  H   UNL     1      -0.061   9.878  21.391  0.00  0.00    +0.000 HD
BRANCH   7  21
ATOM     17  C   UNL     1      -3.112  14.010  20.681  0.00  0.00    +0.000 C 
ATOM     18  C   UNL     1      -1.842  13.430  20.209  0.00  0.00    +0.000 A 
ATOM     19  N   UNL     1      -0.814  14.187  19.812  0.00  0.00    +0.000 NA
ATOM     20  O   UNL     1       0.162  13.247  19.482  0.00  0.00    +0.000 OA
ATOM     21  C   UNL     1      -0.381  12.010  19.718  0.00  0.00    +0.000 A 
ATOM     22  N   UNL     1      -1.619  12.076  20.164  0.00  0.00    +0.000 NA
ENDBRANCH   7  21
ENDBRANCH   1  11
BRANCH   3  23
ATOM     23  C   UNL     1       6.430   4.963  15.689  0.00  0.00    +0.000 C 
ATOM     24  O   UNL     1       7.544   4.558  16.020  0.00  0.00    +0.000 OA
ATOM     25  N   UNL     1       6.095   5.282  14.392  0.00  0.00    +0.000 N 
ATOM     26  H   UNL     1       5.141   5.604  14.248  0.00  0.00    +0.000 HD
BRANCH  25  27
ATOM     27  C   UNL     1       7.003   5.131  13.288  0.00  0.00    +0.000 C 
BRANCH  27  28
ATOM     28  C   UNL     1       6.727   3.874  12.502  0.00  0.00    +0.000 A 
ATOM     29  C   UNL     1       7.782   3.184  11.883  0.00  0.00    +0.000 A 
ATOM     30  C   UNL     1       7.538   2.012  11.165  0.00  0.00    +0.000 A 
ATOM     31  C   UNL     1       6.239   1.533  11.056  0.00  0.00    +0.000 A 
ATOM     32  F   UNL     1       6.005   0.406  10.370  0.00  0.00    +0.000 F 
ATOM     33  C   UNL     1       5.179   2.205  11.651  0.00  0.00    +0.000 A 
ATOM     34  C   UNL     1       5.421   3.378  12.370  0.00  0.00    +0.000 A 
ENDBRANCH  27  28
ENDBRANCH  25  27
ENDBRANCH   3  23
TORSDOF 5
ENDMDL
MODEL 9
REMARK VINA RESULT:      -8.3      4.320     12.086
REMARK  Name = 
REMARK  7 active torsions:
REMARK  status: ('A' for Active; 'I' for Inactive)
REMARK    1  A    between atoms: C_1  and  C_2
REMARK    2  A    between atoms: C_5  and  C_6
REMARK    3  A    between atoms: C_10  and  C_11
REMARK    4  A    between atoms: C_13  and  C_14
REMARK    5  A    between atoms: N_16  and  C_17
REMARK    6  A    between atoms: C_17  and  C_18
REMARK    7  A    between atoms: N_26  and  C_27
REMARK                            x       y       z     vdW  Elec       q    Type
REMARK                         _______ _______ _______ _____ _____    ______ ____
ROOT
ATOM      1  C   UNL     1       1.222   8.465  20.315  0.00  0.00    +0.000 A 
ATOM      2  C   UNL     1       1.730   7.210  20.620  0.00  0.00    +0.000 A 
ATOM      3  C   UNL     1       2.510   6.798  19.515  0.00  0.00    +0.000 A 
ATOM      4  N   UNL     1       2.490   7.731  18.546  0.00  0.00    +0.000 NA
ATOM      5  N   UNL     1       1.730   8.727  19.058  0.00  0.00    +0.000 N 
ATOM      6  C   UNL     1       1.573   9.927  18.267  0.00  0.00    +0.000 C 
ENDROOT
BRANCH   1  11
ATOM      7  C   UNL     1      -2.413  12.923  22.169  0.00  0.00    +0.000 A 
ATOM      8  C   UNL     1      -1.888  12.439  20.988  0.00  0.00    +0.000 A 
ATOM      9  C   UNL     1      -1.107  11.291  21.294  0.00  0.00    +0.000 A 
ATOM     10  C   UNL     1      -0.322  10.405  20.526  0.00  0.00    +0.000 A 
ATOM     11  C   UNL     1       0.380   9.350  21.141  0.00  0.00    +0.000 A 
ATOM     12  C   UNL     1       0.274   9.209  22.531  0.00  0.00    +0.000 A 
ATOM     13  C   UNL     1      -0.528  10.051  23.318  0.00  0.00    +0.000 A 
ATOM     14  C   UNL     1      -1.195  11.092  22.671  0.00  0.00    +0.000 A 
ATOM     15  N   UNL     1      -2.004  12.086  23.176  0.00  0.00    +0.000 N 
ATOM     16  H   UNL     1      -2.246  12.208  24.150  0.00  0.00    +0.000 HD
BRANCH   7  21
ATOM     17  C   UNL     1      -4.367  16.854  24.235  0.00  0.00    +0.000 C 
ATOM     18  C   UNL     1      -4.086  15.775  23.271  0.00  0.00    +0.000 A 
ATOM     19  N   UNL     1      -4.692  15.702  22.081  0.00  0.00    +0.000 NA
ATOM     20  O   UNL     1      -4.121  14.569  21.504  0.00  0.00    +0.000 OA
ATOM     21  C   UNL     1      -3.221  14.071  22.410  0.00  0.00    +0.000 A 
ATOM     22  N   UNL     1      -3.170  14.783  23.518  0.00  0.00    +0.000 NA
ENDBRANCH   7  21
ENDBRANCH   1  11
BRANCH   3  23
ATOM     23  C   UNL     1       3.262   5.536  19.384  0.00  0.00    +0.000 C 
ATOM     24  O   UNL     1       2.885   4.488  19.907  0.00  0.00    +0.000 OA
ATOM     25  N   UNL     1       4.410   5.637  18.631  0.00  0.00    +0.000 N 
ATOM     26  H   UNL     1       4.611   6.558  18.252  0.00  0.00    +0.000 HD
BRANCH  25  27
ATOM     27  C   UNL     1       5.260   4.513  18.342  0.00  0.00    +0.000 C 
BRANCH  27  28
ATOM     28  C   UNL     1       5.767   4.543  16.923  0.00  0.00    +0.000 A 
ATOM     29  C   UNL     1       4.929   4.150  15.866  0.00  0.00    +0.000 A 
ATOM     30  C   UNL     1       5.386   4.187  14.547  0.00  0.00    +0.000 A 
ATOM     31  C   UNL     1       6.683   4.608  14.284  0.00  0.00    +0.000 A 
ATOM     32  F   UNL     1       7.121   4.647  13.018  0.00  0.00    +0.000 F 
ATOM     33  C   UNL     1       7.532   4.991  15.314  0.00  0.00    +0.000 A 
ATOM     34  C   UNL     1       7.078   4.954  16.634  0.00  0.00    +0.000 A 
ENDBRANCH  27  28
ENDBRANCH  25  27
ENDBRANCH   3  23
TORSDOF 5
ENDMDL
