MODEL 1
REMARK VINA RESULT:      -7.3      0.000      0.000
REMARK  Name = 
REMARK  8 active torsions:
REMARK  status: ('A' for Active; 'I' for Inactive)
REMARK    1  A    between atoms: N_1  and  C_2
REMARK    2  A    between atoms: C_5  and  C_6
REMARK    3  A    between atoms: C_7  and  C_8
REMARK    4  A    between atoms: N_10  and  C_11
REMARK    5  A    between atoms: C_11  and  C_12
REMARK    6  A    between atoms: C_12  and  C_13
REMARK    7  A    between atoms: C_13  and  N_14
REMARK    8  A    between atoms: C_22  and  C_23
REMARK                            x       y       z     vdW  Elec       q    Type
REMARK                         _______ _______ _______ _____ _____    ______ ____
ROOT
ATOM      1  C   UNL     1      -0.945  12.098  19.677  0.00  0.00    +0.000 A 
ATOM      2  N   UNL     1      -0.320  11.642  18.575  0.00  0.00    +0.000 NA
ATOM      3  C   UNL     1       0.423  10.527  18.637  0.00  0.00    +0.000 A 
ATOM      4  C   UNL     1       0.610   9.758  19.772  0.00  0.00    +0.000 A 
ATOM      5  C   UNL     1      -0.044  10.234  20.933  0.00  0.00    +0.000 A 
ATOM      6  S   UNL     1       0.001   9.536  22.514  0.00  0.00    +0.000 S 
ATOM      7  C   UNL     1      -1.051  10.695  23.155  0.00  0.00    +0.000 A 
ATOM      8  C   UNL     1      -1.459  11.640  22.235  0.00  0.00    +0.000 A 
ATOM      9  C   UNL     1      -0.852  11.395  20.914  0.00  0.00    +0.000 A 
ENDROOT
BRANCH   8  10
ATOM     10  C   UNL     1      -2.417  12.679  22.659  0.00  0.00    +0.000 A 
ATOM     11  C   UNL     1      -2.021  13.729  23.509  0.00  0.00    +0.000 A 
ATOM     12  C   UNL     1      -2.936  14.704  23.928  0.00  0.00    +0.000 A 
ATOM     13  C   UNL     1      -4.249  14.661  23.469  0.00  0.00    +0.000 A 
ATOM     14 BR   UNL     1      -5.480  15.994  24.001  0.00  0.00    +0.000 Br
ATOM     15  C   UNL     1      -4.663  13.633  22.630  0.00  0.00    +0.000 A 
ATOM     16  C   UNL     1      -3.760  12.629  22.264  0.00  0.00    +0.000 A 
ENDBRANCH   8  10
BRANCH   1  17
ATOM     17  N   UNL     1      -1.624  13.290  19.473  0.00  0.00    +0.000 N 
ATOM     18  H   UNL     1      -2.367  13.369  20.159  0.00  0.00    +0.000 HD
ATOM     19  H   UNL     1      -1.905  13.443  18.513  0.00  0.00    +0.000 HD
ENDBRANCH   1  17
BRANCH   4  20
ATOM     20  C   UNL     1       1.468   8.563  19.806  0.00  0.00    +0.000 C 
ATOM     21  C   UNL     1       2.046   8.029  18.717  0.00  0.00    +0.000 C 
BRANCH  21  22
ATOM     22  C   UNL     1       2.912   6.826  18.833  0.00  0.00    +0.000 C 
ATOM     23  O   UNL     1       2.965   6.140  19.843  0.00  0.00    +0.000 OA
ATOM     24  N   UNL     1       3.634   6.579  17.689  0.00  0.00    +0.000 N 
ATOM     25  H   UNL     1       3.557   7.206  16.900  0.00  0.00    +0.000 HD
BRANCH  24  26
ATOM     26  C   UNL     1       4.526   5.441  17.577  0.00  0.00    +0.000 C 
BRANCH  26  27
ATOM     27  C   UNL     1       3.837   4.207  16.996  0.00  0.00    +0.000 C 
BRANCH  27  28
ATOM     28  C   UNL     1       3.911   3.014  17.946  0.00  0.00    +0.000 C 
BRANCH  28  29
ATOM     29  N   UNL     1       2.765   2.925  18.824  0.00  0.00    +0.000 N 
ATOM     30  C   UNL     1       1.470   3.214  18.497  0.00  0.00    +0.000 A 
ATOM     31  C   UNL     1       0.766   3.035  19.663  0.00  0.00    +0.000 A 
ATOM     32  N   UNL     1       1.596   2.652  20.683  0.00  0.00    +0.000 NA
ATOM     33  C   UNL     1       2.795   2.596  20.149  0.00  0.00    +0.000 A 
ENDBRANCH  28  29
ENDBRANCH  27  28
ENDBRANCH  26  27
ENDBRANCH  24  26
ENDBRANCH  21  22
ENDBRANCH   4  20
TORSDOF 8
ENDMDL
MODEL 2
REMARK VINA RESULT:      -7.2      3.371      4.672
REMARK  Name = 
REMARK  8 active torsions:
REMARK  status: ('A' for Active; 'I' for Inactive)
REMARK    1  A    between atoms: N_1  and  C_2
REMARK    2  A    between atoms: C_5  and  C_6
REMARK    3  A    between atoms: C_7  and  C_8
REMARK    4  A    between atoms: N_10  and  C_11
REMARK    5  A    between atoms: C_11  and  C_12
REMARK    6  A    between atoms: C_12  and  C_13
REMARK    7  A    between atoms: C_13  and  N_14
REMARK    8  A    between atoms: C_22  and  C_23
REMARK                            x       y       z     vdW  Elec       q    Type
REMARK                         _______ _______ _______ _____ _____    ______ ____
ROOT
ATOM      1  C   UNL     1       0.489  10.173  21.326  0.00  0.00    +0.000 A 
ATOM      2  N   UNL     1       0.437   9.129  22.175  0.00  0.00    +0.000 NA
ATOM      3  C   UNL     1       0.913   7.934  21.799  0.00  0.00    +0.000 A 
ATOM      4  C   UNL     1       1.490   7.657  20.573  0.00  0.00    +0.000 A 
ATOM      5  C   UNL     1       1.546   8.750  19.676  0.00  0.00    +0.000 A 
ATOM      6  S   UNL     1       2.172   8.745  18.064  0.00  0.00    +0.000 S 
ATOM      7  C   UNL     1       1.878  10.396  17.847  0.00  0.00    +0.000 A 
ATOM      8  C   UNL     1       1.298  11.003  18.944  0.00  0.00    +0.000 A 
ATOM      9  C   UNL     1       1.073  10.034  20.032  0.00  0.00    +0.000 A 
ENDROOT
BRANCH   8  10
ATOM     10  C   UNL     1       1.035  12.454  18.897  0.00  0.00    +0.000 A 
ATOM     11  C   UNL     1      -0.258  12.951  18.641  0.00  0.00    +0.000 A 
ATOM     12  C   UNL     1      -0.503  14.329  18.577  0.00  0.00    +0.000 A 
ATOM     13  C   UNL     1       0.535  15.226  18.807  0.00  0.00    +0.000 A 
ATOM     14 BR   UNL     1       0.204  17.087  18.758  0.00  0.00    +0.000 Br
ATOM     15  C   UNL     1       1.819  14.759  19.060  0.00  0.00    +0.000 A 
ATOM     16  C   UNL     1       2.070  13.382  19.064  0.00  0.00    +0.000 A 
ENDBRANCH   8  10
BRANCH   1  17
ATOM     17  N   UNL     1      -0.095  11.326  21.831  0.00  0.00    +0.000 N 
ATOM     18  H   UNL     1       0.396  11.602  22.675  0.00  0.00    +0.000 HD
ATOM     19  H   UNL     1      -1.102  11.272  21.914  0.00  0.00    +0.000 HD
ENDBRANCH   1  17
BRANCH   4  20
ATOM     20  C   UNL     1       1.962   6.318  20.186  0.00  0.00    +0.000 C 
ATOM     21  C   UNL     1       1.289   5.185  20.447  0.00  0.00    +0.000 C 
BRANCH  21  22
ATOM     22  C   UNL     1       1.825   3.869  20.012  0.00  0.00    +0.000 C 
ATOM     23  O   UNL     1       2.225   3.022  20.796  0.00  0.00    +0.000 OA
ATOM     24  N   UNL     1       1.816   3.717  18.645  0.00  0.00    +0.000 N 
ATOM     25  H   UNL     1       1.492   4.473  18.056  0.00  0.00    +0.000 HD
BRANCH  24  26
ATOM     26  C   UNL     1       2.274   2.499  18.006  0.00  0.00    +0.000 C 
BRANCH  26  27
ATOM     27  C   UNL     1       3.771   2.521  17.701  0.00  0.00    +0.000 C 
BRANCH  27  28
ATOM     28  C   UNL     1       4.217   3.869  17.140  0.00  0.00    +0.000 C 
BRANCH  28  29
ATOM     29  N   UNL     1       5.343   4.429  17.856  0.00  0.00    +0.000 N 
ATOM     30  C   UNL     1       6.565   4.739  17.328  0.00  0.00    +0.000 A 
ATOM     31  C   UNL     1       7.306   5.182  18.398  0.00  0.00    +0.000 A 
ATOM     32  N   UNL     1       6.570   5.144  19.553  0.00  0.00    +0.000 NA
ATOM     33  C   UNL     1       5.393   4.684  19.196  0.00  0.00    +0.000 A 
ENDBRANCH  28  29
ENDBRANCH  27  28
ENDBRANCH  26  27
ENDBRANCH  24  26
ENDBRANCH  21  22
ENDBRANCH   4  20
TORSDOF 8
ENDMDL
MODEL 3
REMARK VINA RESULT:      -7.1      1.356      1.891
REMARK  Name = 
REMARK  8 active torsions:
REMARK  status: ('A' for Active; 'I' for Inactive)
REMARK    1  A    between atoms: N_1  and  C_2
REMARK    2  A    between atoms: C_5  and  C_6
REMARK    3  A    between atoms: C_7  and  C_8
REMARK    4  A    between atoms: N_10  and  C_11
REMARK    5  A    between atoms: C_11  and  C_12
REMARK    6  A    between atoms: C_12  and  C_13
REMARK    7  A    between atoms: C_13  and  N_14
REMARK    8  A    between atoms: C_22  and  C_23
REMARK                            x       y       z     vdW  Elec       q    Type
REMARK                         _______ _______ _______ _____ _____    ______ ____
ROOT
ATOM      1  C   UNL     1       0.705  11.322  18.826  0.00  0.00    +0.000 A 
ATOM      2  N   UNL     1       1.444  10.818  17.820  0.00  0.00    +0.000 NA
ATOM      3  C   UNL     1       1.962   9.586  17.919  0.00  0.00    +0.000 A 
ATOM      4  C   UNL     1       1.796   8.737  18.999  0.00  0.00    +0.000 A 
ATOM      5  C   UNL     1       1.022   9.263  20.060  0.00  0.00    +0.000 A 
ATOM      6  S   UNL     1       0.644   8.487  21.559  0.00  0.00    +0.000 S 
ATOM      7  C   UNL     1      -0.301   9.782  22.096  0.00  0.00    +0.000 A 
ATOM      8  C   UNL     1      -0.360  10.833  21.201  0.00  0.00    +0.000 A 
ATOM      9  C   UNL     1       0.439  10.550  19.995  0.00  0.00    +0.000 A 
ENDROOT
BRANCH   8  10
ATOM     10  C   UNL     1      -1.193  12.004  21.534  0.00  0.00    +0.000 A 
ATOM     11  C   UNL     1      -0.884  12.829  22.633  0.00  0.00    +0.000 A 
ATOM     12  C   UNL     1      -1.686  13.929  22.959  0.00  0.00    +0.000 A 
ATOM     13  C   UNL     1      -2.786  14.241  22.167  0.00  0.00    +0.000 A 
ATOM     14 BR   UNL     1      -3.853  15.746  22.581  0.00  0.00    +0.000 Br
ATOM     15  C   UNL     1      -3.112  13.441  21.078  0.00  0.00    +0.000 A 
ATOM     16  C   UNL     1      -2.341  12.309  20.792  0.00  0.00    +0.000 A 
ENDBRANCH   8  10
BRANCH   1  17
ATOM     17  N   UNL     1       0.288  12.627  18.605  0.00  0.00    +0.000 N 
ATOM     18  H   UNL     1       0.727  13.234  19.290  0.00  0.00    +0.000 HD
ATOM     19  H   UNL     1      -0.715  12.728  18.518  0.00  0.00    +0.000 HD
ENDBRANCH   1  17
BRANCH   4  20
ATOM     20  C   UNL     1       2.419   7.407  19.085  0.00  0.00    +0.000 C 
ATOM     21  C   UNL     1       3.314   6.944  18.196  0.00  0.00    +0.000 C 
BRANCH  21  22
ATOM     22  C   UNL     1       3.909   5.591  18.358  0.00  0.00    +0.000 C 
ATOM     23  O   UNL     1       4.475   5.231  19.379  0.00  0.00    +0.000 OA
ATOM     24  N   UNL     1       3.750   4.804  17.241  0.00  0.00    +0.000 N 
ATOM     25  H   UNL     1       3.291   5.179  16.422  0.00  0.00    +0.000 HD
BRANCH  24  26
ATOM     26  C   UNL     1       4.236   3.439  17.191  0.00  0.00    +0.000 C 
BRANCH  26  27
ATOM     27  C   UNL     1       3.119   2.409  17.358  0.00  0.00    +0.000 C 
BRANCH  27  28
ATOM     28  C   UNL     1       3.162   1.740  18.729  0.00  0.00    +0.000 C 
BRANCH  28  29
ATOM     29  N   UNL     1       2.514   2.527  19.757  0.00  0.00    +0.000 N 
ATOM     30  C   UNL     1       2.909   2.637  21.061  0.00  0.00    +0.000 A 
ATOM     31  C   UNL     1       1.959   3.438  21.647  0.00  0.00    +0.000 A 
ATOM     32  N   UNL     1       1.003   3.810  20.739  0.00  0.00    +0.000 NA
ATOM     33  C   UNL     1       1.363   3.245  19.609  0.00  0.00    +0.000 A 
ENDBRANCH  28  29
ENDBRANCH  27  28
ENDBRANCH  26  27
ENDBRANCH  24  26
ENDBRANCH  21  22
ENDBRANCH   4  20
TORSDOF 8
ENDMDL
MODEL 4
REMARK VINA RESULT:      -7.1      3.395      4.845
REMARK  Name = 
REMARK  8 active torsions:
REMARK  status: ('A' for Active; 'I' for Inactive)
REMARK    1  A    between atoms: N_1  and  C_2
REMARK    2  A    between atoms: C_5  and  C_6
REMARK    3  A    between atoms: C_7  and  C_8
REMARK    4  A    between atoms: N_10  and  C_11
REMARK    5  A    between atoms: C_11  and  C_12
REMARK    6  A    between atoms: C_12  and  C_13
REMARK    7  A    between atoms: C_13  and  N_14
REMARK    8  A    between atoms: C_22  and  C_23
REMARK                            x       y       z     vdW  Elec       q    Type
REMARK                         _______ _______ _______ _____ _____    ______ ____
ROOT
ATOM      1  C   UNL     1       0.498  10.094  21.264  0.00  0.00    +0.000 A 
ATOM      2  N   UNL     1       0.433   9.042  22.101  0.00  0.00    +0.000 NA
ATOM      3  C   UNL     1       0.911   7.849  21.719  0.00  0.00    +0.000 A 
ATOM      4  C   UNL     1       1.503   7.583  20.497  0.00  0.00    +0.000 A 
ATOM      5  C   UNL     1       1.572   8.686  19.613  0.00  0.00    +0.000 A 
ATOM      6  S   UNL     1       2.218   8.696  18.009  0.00  0.00    +0.000 S 
ATOM      7  C   UNL     1       1.930  10.350  17.805  0.00  0.00    +0.000 A 
ATOM      8  C   UNL     1       1.338  10.947  18.901  0.00  0.00    +0.000 A 
ATOM      9  C   UNL     1       1.097   9.967  19.976  0.00  0.00    +0.000 A 
ENDROOT
BRANCH   8  10
ATOM     10  C   UNL     1       1.078  12.398  18.865  0.00  0.00    +0.000 A 
ATOM     11  C   UNL     1       2.116  13.329  19.067  0.00  0.00    +0.000 A 
ATOM     12  C   UNL     1       1.865  14.707  19.053  0.00  0.00    +0.000 A 
ATOM     13  C   UNL     1       0.579  15.172  18.798  0.00  0.00    +0.000 A 
ATOM     14 BR   UNL     1       0.239  17.030  18.741  0.00  0.00    +0.000 Br
ATOM     15  C   UNL     1      -0.462  14.272  18.597  0.00  0.00    +0.000 A 
ATOM     16  C   UNL     1      -0.216  12.897  18.671  0.00  0.00    +0.000 A 
ENDBRANCH   8  10
BRANCH   1  17
ATOM     17  N   UNL     1      -0.090  11.243  21.773  0.00  0.00    +0.000 N 
ATOM     18  H   UNL     1       0.035  11.259  22.780  0.00  0.00    +0.000 HD
ATOM     19  H   UNL     1      -1.038  11.395  21.453  0.00  0.00    +0.000 HD
ENDBRANCH   1  17
BRANCH   4  20
ATOM     20  C   UNL     1       1.977   6.247  20.102  0.00  0.00    +0.000 C 
ATOM     21  C   UNL     1       1.840   5.151  20.867  0.00  0.00    +0.000 C 
BRANCH  21  22
ATOM     22  C   UNL     1       2.334   3.832  20.393  0.00  0.00    +0.000 C 
ATOM     23  O   UNL     1       2.744   2.964  21.150  0.00  0.00    +0.000 OA
ATOM     24  N   UNL     1       2.274   3.702  19.025  0.00  0.00    +0.000 N 
ATOM     25  H   UNL     1       1.945   4.474  18.461  0.00  0.00    +0.000 HD
BRANCH  24  26
ATOM     26  C   UNL     1       2.685   2.486  18.352  0.00  0.00    +0.000 C 
BRANCH  26  27
ATOM     27  C   UNL     1       3.870   2.704  17.412  0.00  0.00    +0.000 C 
BRANCH  27  28
ATOM     28  C   UNL     1       4.139   4.187  17.172  0.00  0.00    +0.000 C 
BRANCH  28  29
ATOM     29  N   UNL     1       5.366   4.423  16.441  0.00  0.00    +0.000 N 
ATOM     30  C   UNL     1       5.513   4.417  15.082  0.00  0.00    +0.000 A 
ATOM     31  C   UNL     1       6.854   4.632  14.874  0.00  0.00    +0.000 A 
ATOM     32  N   UNL     1       7.520   4.762  16.065  0.00  0.00    +0.000 NA
ATOM     33  C   UNL     1       6.598   4.629  16.991  0.00  0.00    +0.000 A 
ENDBRANCH  28  29
ENDBRANCH  27  28
ENDBRANCH  26  27
ENDBRANCH  24  26
ENDBRANCH  21  22
ENDBRANCH   4  20
TORSDOF 8
ENDMDL
MODEL 5
REMARK VINA RESULT:      -7.0      1.373      1.855
REMARK  Name = 
REMARK  8 active torsions:
REMARK  status: ('A' for Active; 'I' for Inactive)
REMARK    1  A    between atoms: N_1  and  C_2
REMARK    2  A    between atoms: C_5  and  C_6
REMARK    3  A    between atoms: C_7  and  C_8
REMARK    4  A    between atoms: N_10  and  C_11
REMARK    5  A    between atoms: C_11  and  C_12
REMARK    6  A    between atoms: C_12  and  C_13
REMARK    7  A    between atoms: C_13  and  N_14
REMARK    8  A    between atoms: C_22  and  C_23
REMARK                            x       y       z     vdW  Elec       q    Type
REMARK                         _______ _______ _______ _____ _____    ______ ____
ROOT
ATOM      1  C   UNL     1      -0.392  11.305  19.343  0.00  0.00    +0.000 A 
ATOM      2  N   UNL     1      -0.041  10.864  18.121  0.00  0.00    +0.000 NA
ATOM      3  C   UNL     1       0.751   9.790  17.996  0.00  0.00    +0.000 A 
ATOM      4  C   UNL     1       1.259   9.049  19.049  0.00  0.00    +0.000 A 
ATOM      5  C   UNL     1       0.894   9.510  20.336  0.00  0.00    +0.000 A 
ATOM      6  S   UNL     1       1.373   8.841  21.857  0.00  0.00    +0.000 S 
ATOM      7  C   UNL     1       0.456   9.955  22.740  0.00  0.00    +0.000 A 
ATOM      8  C   UNL     1      -0.221  10.863  21.949  0.00  0.00    +0.000 A 
ATOM      9  C   UNL     1       0.047  10.628  20.519  0.00  0.00    +0.000 A 
ENDROOT
BRANCH   8  10
ATOM     10  C   UNL     1      -1.094  11.859  22.599  0.00  0.00    +0.000 A 
ATOM     11  C   UNL     1      -2.336  11.488  23.150  0.00  0.00    +0.000 A 
ATOM     12  C   UNL     1      -3.173  12.437  23.749  0.00  0.00    +0.000 A 
ATOM     13  C   UNL     1      -2.761  13.763  23.839  0.00  0.00    +0.000 A 
ATOM     14 BR   UNL     1      -3.871  15.043  24.678  0.00  0.00    +0.000 Br
ATOM     15  C   UNL     1      -1.540  14.153  23.301  0.00  0.00    +0.000 A 
ATOM     16  C   UNL     1      -0.735  13.211  22.651  0.00  0.00    +0.000 A 
ENDBRANCH   8  10
BRANCH   1  17
ATOM     17  N   UNL     1      -1.163  12.459  19.314  0.00  0.00    +0.000 N 
ATOM     18  H   UNL     1      -1.479  12.620  18.363  0.00  0.00    +0.000 HD
ATOM     19  H   UNL     1      -0.729  13.253  19.766  0.00  0.00    +0.000 HD
ENDBRANCH   1  17
BRANCH   4  20
ATOM     20  C   UNL     1       2.160   7.901  18.869  0.00  0.00    +0.000 C 
ATOM     21  C   UNL     1       3.050   7.801  17.867  0.00  0.00    +0.000 C 
BRANCH  21  22
ATOM     22  C   UNL     1       3.937   6.614  17.758  0.00  0.00    +0.000 C 
ATOM     23  O   UNL     1       4.508   6.302  16.724  0.00  0.00    +0.000 OA
ATOM     24  N   UNL     1       4.041   5.919  18.941  0.00  0.00    +0.000 N 
ATOM     25  H   UNL     1       3.519   6.223  19.751  0.00  0.00    +0.000 HD
BRANCH  24  26
ATOM     26  C   UNL     1       4.875   4.739  19.065  0.00  0.00    +0.000 C 
BRANCH  26  27
ATOM     27  C   UNL     1       4.324   3.544  18.288  0.00  0.00    +0.000 C 
BRANCH  27  28
ATOM     28  C   UNL     1       3.943   2.391  19.213  0.00  0.00    +0.000 C 
BRANCH  28  29
ATOM     29  N   UNL     1       2.764   2.672  20.003  0.00  0.00    +0.000 N 
ATOM     30  C   UNL     1       2.671   2.620  21.366  0.00  0.00    +0.000 A 
ATOM     31  C   UNL     1       1.355   2.910  21.638  0.00  0.00    +0.000 A 
ATOM     32  N   UNL     1       0.653   3.131  20.483  0.00  0.00    +0.000 NA
ATOM     33  C   UNL     1       1.527   2.979  19.514  0.00  0.00    +0.000 A 
ENDBRANCH  28  29
ENDBRANCH  27  28
ENDBRANCH  26  27
ENDBRANCH  24  26
ENDBRANCH  21  22
ENDBRANCH   4  20
TORSDOF 8
ENDMDL
MODEL 6
REMARK VINA RESULT:      -7.0      1.408      2.087
REMARK  Name = 
REMARK  8 active torsions:
REMARK  status: ('A' for Active; 'I' for Inactive)
REMARK    1  A    between atoms: N_1  and  C_2
REMARK    2  A    between atoms: C_5  and  C_6
REMARK    3  A    between atoms: C_7  and  C_8
REMARK    4  A    between atoms: N_10  and  C_11
REMARK    5  A    between atoms: C_11  and  C_12
REMARK    6  A    between atoms: C_12  and  C_13
REMARK    7  A    between atoms: C_13  and  N_14
REMARK    8  A    between atoms: C_22  and  C_23
REMARK                            x       y       z     vdW  Elec       q    Type
REMARK                         _______ _______ _______ _____ _____    ______ ____
ROOT
ATOM      1  C   UNL     1       0.708  11.173  19.062  0.00  0.00    +0.000 A 
ATOM      2  N   UNL     1       1.218  10.688  17.914  0.00  0.00    +0.000 NA
ATOM      3  C   UNL     1       1.710   9.442  17.871  0.00  0.00    +0.000 A 
ATOM      4  C   UNL     1       1.736   8.560  18.937  0.00  0.00    +0.000 A 
ATOM      5  C   UNL     1       1.203   9.066  20.146  0.00  0.00    +0.000 A 
ATOM      6  S   UNL     1       1.107   8.246  21.666  0.00  0.00    +0.000 S 
ATOM      7  C   UNL     1       0.324   9.542  22.419  0.00  0.00    +0.000 A 
ATOM      8  C   UNL     1       0.120  10.625  21.585  0.00  0.00    +0.000 A 
ATOM      9  C   UNL     1       0.656  10.367  20.237  0.00  0.00    +0.000 A 
ENDROOT
BRANCH   8  10
ATOM     10  C   UNL     1      -0.597  11.802  22.112  0.00  0.00    +0.000 A 
ATOM     11  C   UNL     1      -1.880  11.680  22.677  0.00  0.00    +0.000 A 
ATOM     12  C   UNL     1      -2.568  12.802  23.159  0.00  0.00    +0.000 A 
ATOM     13  C   UNL     1      -1.963  14.054  23.116  0.00  0.00    +0.000 A 
ATOM     14 BR   UNL     1      -2.870  15.565  23.796  0.00  0.00    +0.000 Br
ATOM     15  C   UNL     1      -0.697  14.198  22.561  0.00  0.00    +0.000 A 
ATOM     16  C   UNL     1      -0.040  13.084  22.027  0.00  0.00    +0.000 A 
ENDBRANCH   8  10
BRANCH   1  17
ATOM     17  N   UNL     1       0.293  12.494  18.967  0.00  0.00    +0.000 N 
ATOM     18  H   UNL     1       0.393  12.937  19.874  0.00  0.00    +0.000 HD
ATOM     19  H   UNL     1      -0.611  12.609  18.527  0.00  0.00    +0.000 HD
ENDBRANCH   1  17
BRANCH   4  20
ATOM     20  C   UNL     1       2.325   7.214  18.858  0.00  0.00    +0.000 C 
ATOM     21  C   UNL     1       3.604   6.978  18.518  0.00  0.00    +0.000 C 
BRANCH  21  22
ATOM     22  C   UNL     1       4.130   5.589  18.473  0.00  0.00    +0.000 C 
ATOM     23  O   UNL     1       4.825   5.111  19.357  0.00  0.00    +0.000 OA
ATOM     24  N   UNL     1       3.747   4.913  17.338  0.00  0.00    +0.000 N 
ATOM     25  H   UNL     1       3.190   5.382  16.636  0.00  0.00    +0.000 HD
BRANCH  24  26
ATOM     26  C   UNL     1       4.131   3.535  17.101  0.00  0.00    +0.000 C 
BRANCH  26  27
ATOM     27  C   UNL     1       2.993   2.551  17.371  0.00  0.00    +0.000 C 
BRANCH  27  28
ATOM     28  C   UNL     1       3.159   1.845  18.714  0.00  0.00    +0.000 C 
BRANCH  28  29
ATOM     29  N   UNL     1       2.524   2.556  19.803  0.00  0.00    +0.000 N 
ATOM     30  C   UNL     1       1.424   3.362  19.711  0.00  0.00    +0.000 A 
ATOM     31  C   UNL     1       1.238   3.846  20.983  0.00  0.00    +0.000 A 
ATOM     32  N   UNL     1       2.193   3.361  21.837  0.00  0.00    +0.000 NA
ATOM     33  C   UNL     1       2.955   2.588  21.098  0.00  0.00    +0.000 A 
ENDBRANCH  28  29
ENDBRANCH  27  28
ENDBRANCH  26  27
ENDBRANCH  24  26
ENDBRANCH  21  22
ENDBRANCH   4  20
TORSDOF 8
ENDMDL
MODEL 7
REMARK VINA RESULT:      -6.9      1.304      1.869
REMARK  Name = 
REMARK  8 active torsions:
REMARK  status: ('A' for Active; 'I' for Inactive)
REMARK    1  A    between atoms: N_1  and  C_2
REMARK    2  A    between atoms: C_5  and  C_6
REMARK    3  A    between atoms: C_7  and  C_8
REMARK    4  A    between atoms: N_10  and  C_11
REMARK    5  A    between atoms: C_11  and  C_12
REMARK    6  A    between atoms: C_12  and  C_13
REMARK    7  A    between atoms: C_13  and  N_14
REMARK    8  A    between atoms: C_22  and  C_23
REMARK                            x       y       z     vdW  Elec       q    Type
REMARK                         _______ _______ _______ _____ _____    ______ ____
ROOT
ATOM      1  C   UNL     1       0.174  11.216  19.222  0.00  0.00    +0.000 A 
ATOM      2  N   UNL     1       0.626  10.785  18.030  0.00  0.00    +0.000 NA
ATOM      3  C   UNL     1       1.275   9.615  17.940  0.00  0.00    +0.000 A 
ATOM      4  C   UNL     1       1.528   8.763  19.000  0.00  0.00    +0.000 A 
ATOM      5  C   UNL     1       1.056   9.212  20.256  0.00  0.00    +0.000 A 
ATOM      6  S   UNL     1       1.226   8.412  21.779  0.00  0.00    +0.000 S 
ATOM      7  C   UNL     1       0.355   9.604  22.606  0.00  0.00    +0.000 A 
ATOM      8  C   UNL     1      -0.077  10.635  21.794  0.00  0.00    +0.000 A 
ATOM      9  C   UNL     1       0.351  10.429  20.399  0.00  0.00    +0.000 A 
ENDROOT
BRANCH   8  10
ATOM     10  C   UNL     1      -0.888  11.714  22.388  0.00  0.00    +0.000 A 
ATOM     11  C   UNL     1      -0.439  13.049  22.385  0.00  0.00    +0.000 A 
ATOM     12  C   UNL     1      -1.202  14.070  22.967  0.00  0.00    +0.000 A 
ATOM     13  C   UNL     1      -2.442  13.774  23.524  0.00  0.00    +0.000 A 
ATOM     14 BR   UNL     1      -3.492  15.152  24.278  0.00  0.00    +0.000 Br
ATOM     15  C   UNL     1      -2.905  12.463  23.540  0.00  0.00    +0.000 A 
ATOM     16  C   UNL     1      -2.113  11.439  23.010  0.00  0.00    +0.000 A 
ENDBRANCH   8  10
BRANCH   1  17
ATOM     17  N   UNL     1      -0.422  12.467  19.167  0.00  0.00    +0.000 N 
ATOM     18  H   UNL     1      -0.038  13.049  19.905  0.00  0.00    +0.000 HD
ATOM     19  H   UNL     1      -1.433  12.438  19.122  0.00  0.00    +0.000 HD
ENDBRANCH   1  17
BRANCH   4  20
ATOM     20  C   UNL     1       2.282   7.506  18.864  0.00  0.00    +0.000 C 
ATOM     21  C   UNL     1       3.383   7.375  18.104  0.00  0.00    +0.000 C 
BRANCH  21  22
ATOM     22  C   UNL     1       4.098   6.075  18.028  0.00  0.00    +0.000 C 
ATOM     23  O   UNL     1       5.149   5.858  18.614  0.00  0.00    +0.000 OA
ATOM     24  N   UNL     1       3.449   5.157  17.236  0.00  0.00    +0.000 N 
ATOM     25  H   UNL     1       2.594   5.417  16.762  0.00  0.00    +0.000 HD
BRANCH  24  26
ATOM     26  C   UNL     1       3.962   3.815  17.041  0.00  0.00    +0.000 C 
BRANCH  26  27
ATOM     27  C   UNL     1       2.925   2.737  17.354  0.00  0.00    +0.000 C 
BRANCH  27  28
ATOM     28  C   UNL     1       1.770   3.285  18.188  0.00  0.00    +0.000 C 
BRANCH  28  29
ATOM     29  N   UNL     1       1.987   3.135  19.611  0.00  0.00    +0.000 N 
ATOM     30  C   UNL     1       3.051   2.519  20.207  0.00  0.00    +0.000 A 
ATOM     31  C   UNL     1       2.783   2.582  21.554  0.00  0.00    +0.000 A 
ATOM     32  N   UNL     1       1.590   3.213  21.787  0.00  0.00    +0.000 NA
ATOM     33  C   UNL     1       1.132   3.534  20.598  0.00  0.00    +0.000 A 
ENDBRANCH  28  29
ENDBRANCH  27  28
ENDBRANCH  26  27
ENDBRANCH  24  26
ENDBRANCH  21  22
ENDBRANCH   4  20
TORSDOF 8
ENDMDL
MODEL 8
REMARK VINA RESULT:      -6.9      0.876      1.147
REMARK  Name = 
REMARK  8 active torsions:
REMARK  status: ('A' for Active; 'I' for Inactive)
REMARK    1  A    between atoms: N_1  and  C_2
REMARK    2  A    between atoms: C_5  and  C_6
REMARK    3  A    between atoms: C_7  and  C_8
REMARK    4  A    between atoms: N_10  and  C_11
REMARK    5  A    between atoms: C_11  and  C_12
REMARK    6  A    between atoms: C_12  and  C_13
REMARK    7  A    between atoms: C_13  and  N_14
REMARK    8  A    between atoms: C_22  and  C_23
REMARK                            x       y       z     vdW  Elec       q    Type
REMARK                         _______ _______ _______ _____ _____    ______ ____
ROOT
ATOM      1  C   UNL     1      -0.790  12.596  19.796  0.00  0.00    +0.000 A 
ATOM      2  N   UNL     1      -0.136  12.230  18.677  0.00  0.00    +0.000 NA
ATOM      3  C   UNL     1       0.550  11.078  18.647  0.00  0.00    +0.000 A 
ATOM      4  C   UNL     1       0.646  10.182  19.696  0.00  0.00    +0.000 A 
ATOM      5  C   UNL     1      -0.039  10.563  20.874  0.00  0.00    +0.000 A 
ATOM      6  S   UNL     1      -0.103   9.696  22.369  0.00  0.00    +0.000 S 
ATOM      7  C   UNL     1      -1.128  10.831  23.089  0.00  0.00    +0.000 A 
ATOM      8  C   UNL     1      -1.447  11.890  22.263  0.00  0.00    +0.000 A 
ATOM      9  C   UNL     1      -0.790  11.759  20.950  0.00  0.00    +0.000 A 
ENDROOT
BRANCH   8  10
ATOM     10  C   UNL     1      -2.374  12.925  22.759  0.00  0.00    +0.000 A 
ATOM     11  C   UNL     1      -1.935  13.936  23.635  0.00  0.00    +0.000 A 
ATOM     12  C   UNL     1      -2.820  14.907  24.121  0.00  0.00    +0.000 A 
ATOM     13  C   UNL     1      -4.148  14.900  23.706  0.00  0.00    +0.000 A 
ATOM     14 BR   UNL     1      -5.339  16.228  24.330  0.00  0.00    +0.000 Br
ATOM     15  C   UNL     1      -4.605  13.911  22.843  0.00  0.00    +0.000 A 
ATOM     16  C   UNL     1      -3.730  12.910  22.408  0.00  0.00    +0.000 A 
ENDBRANCH   8  10
BRANCH   1  17
ATOM     17  N   UNL     1      -1.402  13.837  19.696  0.00  0.00    +0.000 N 
ATOM     18  H   UNL     1      -0.847  14.431  19.089  0.00  0.00    +0.000 HD
ATOM     19  H   UNL     1      -1.651  14.244  20.589  0.00  0.00    +0.000 HD
ENDBRANCH   1  17
BRANCH   4  20
ATOM     20  C   UNL     1       1.445   8.948  19.633  0.00  0.00    +0.000 C 
ATOM     21  C   UNL     1       1.887   8.403  18.488  0.00  0.00    +0.000 C 
BRANCH  21  22
ATOM     22  C   UNL     1       2.701   7.159  18.506  0.00  0.00    +0.000 C 
ATOM     23  O   UNL     1       2.316   6.120  19.021  0.00  0.00    +0.000 OA
ATOM     24  N   UNL     1       3.919   7.312  17.885  0.00  0.00    +0.000 N 
ATOM     25  H   UNL     1       4.180   8.211  17.503  0.00  0.00    +0.000 HD
BRANCH  24  26
ATOM     26  C   UNL     1       4.862   6.217  17.768  0.00  0.00    +0.000 C 
BRANCH  26  27
ATOM     27  C   UNL     1       4.628   5.368  16.519  0.00  0.00    +0.000 C 
BRANCH  27  28
ATOM     28  C   UNL     1       4.857   3.884  16.790  0.00  0.00    +0.000 C 
BRANCH  28  29
ATOM     29  N   UNL     1       3.854   3.312  17.662  0.00  0.00    +0.000 N 
ATOM     30  C   UNL     1       4.059   2.828  18.924  0.00  0.00    +0.000 A 
ATOM     31  C   UNL     1       2.833   2.348  19.317  0.00  0.00    +0.000 A 
ATOM     32  N   UNL     1       1.898   2.523  18.331  0.00  0.00    +0.000 NA
ATOM     33  C   UNL     1       2.542   3.104  17.345  0.00  0.00    +0.000 A 
ENDBRANCH  28  29
ENDBRANCH  27  28
ENDBRANCH  26  27
ENDBRANCH  24  26
ENDBRANCH  21  22
ENDBRANCH   4  20
TORSDOF 8
ENDMDL
MODEL 9
REMARK VINA RESULT:      -6.8      3.144      4.621
REMARK  Name = 
REMARK  8 active torsions:
REMARK  status: ('A' for Active; 'I' for Inactive)
REMARK    1  A    between atoms: N_1  and  C_2
REMARK    2  A    between atoms: C_5  and  C_6
REMARK    3  A    between atoms: C_7  and  C_8
REMARK    4  A    between atoms: N_10  and  C_11
REMARK    5  A    between atoms: C_11  and  C_12
REMARK    6  A    between atoms: C_12  and  C_13
REMARK    7  A    between atoms: C_13  and  N_14
REMARK    8  A    between atoms: C_22  and  C_23
REMARK                            x       y       z     vdW  Elec       q    Type
REMARK                         _______ _______ _______ _____ _____    ______ ____
ROOT
ATOM      1  C   UNL     1       0.111  11.626  21.824  0.00  0.00    +0.000 A 
ATOM      2  N   UNL     1      -0.076  10.700  22.782  0.00  0.00    +0.000 NA
ATOM      3  C   UNL     1       0.152   9.405  22.519  0.00  0.00    +0.000 A 
ATOM      4  C   UNL     1       0.592   8.906  21.306  0.00  0.00    +0.000 A 
ATOM      5  C   UNL     1       0.789   9.876  20.295  0.00  0.00    +0.000 A 
ATOM      6  S   UNL     1       1.301   9.595  18.667  0.00  0.00    +0.000 S 
ATOM      7  C   UNL     1       1.297  11.243  18.285  0.00  0.00    +0.000 A 
ATOM      8  C   UNL     1       0.906  12.052  19.333  0.00  0.00    +0.000 A 
ATOM      9  C   UNL     1       0.578  11.254  20.529  0.00  0.00    +0.000 A 
ENDROOT
BRANCH   8  10
ATOM     10  C   UNL     1       0.907  13.515  19.141  0.00  0.00    +0.000 A 
ATOM     11  C   UNL     1       2.104  14.255  19.188  0.00  0.00    +0.000 A 
ATOM     12  C   UNL     1       2.100  15.646  19.024  0.00  0.00    +0.000 A 
ATOM     13  C   UNL     1       0.904  16.309  18.772  0.00  0.00    +0.000 A 
ATOM     14 BR   UNL     1       0.897  18.181  18.515  0.00  0.00    +0.000 Br
ATOM     15  C   UNL     1      -0.291  15.600  18.722  0.00  0.00    +0.000 A 
ATOM     16  C   UNL     1      -0.289  14.218  18.946  0.00  0.00    +0.000 A 
ENDBRANCH   8  10
BRANCH   1  17
ATOM     17  N   UNL     1      -0.223  12.912  22.226  0.00  0.00    +0.000 N 
ATOM     18  H   UNL     1       0.288  13.136  23.073  0.00  0.00    +0.000 HD
ATOM     19  H   UNL     1      -1.219  13.083  22.264  0.00  0.00    +0.000 HD
ENDBRANCH   1  17
BRANCH   4  20
ATOM     20  C   UNL     1       0.790   7.471  21.046  0.00  0.00    +0.000 C 
ATOM     21  C   UNL     1       1.935   6.949  20.575  0.00  0.00    +0.000 C 
BRANCH  21  22
ATOM     22  C   UNL     1       2.063   5.485  20.350  0.00  0.00    +0.000 C 
ATOM     23  O   UNL     1       2.108   4.674  21.262  0.00  0.00    +0.000 OA
ATOM     24  N   UNL     1       2.121   5.156  19.016  0.00  0.00    +0.000 N 
ATOM     25  H   UNL     1       2.103   5.885  18.316  0.00  0.00    +0.000 HD
BRANCH  24  26
ATOM     26  C   UNL     1       2.224   3.780  18.571  0.00  0.00    +0.000 C 
BRANCH  26  27
ATOM     27  C   UNL     1       3.374   3.563  17.588  0.00  0.00    +0.000 C 
BRANCH  27  28
ATOM     28  C   UNL     1       4.042   4.877  17.195  0.00  0.00    +0.000 C 
BRANCH  28  29
ATOM     29  N   UNL     1       5.486   4.787  17.174  0.00  0.00    +0.000 N 
ATOM     30  C   UNL     1       6.305   4.657  18.261  0.00  0.00    +0.000 A 
ATOM     31  C   UNL     1       7.578   4.670  17.743  0.00  0.00    +0.000 A 
ATOM     32  N   UNL     1       7.551   4.809  16.381  0.00  0.00    +0.000 NA
ATOM     33  C   UNL     1       6.278   4.879  16.066  0.00  0.00    +0.000 A 
ENDBRANCH  28  29
ENDBRANCH  27  28
ENDBRANCH  26  27
ENDBRANCH  24  26
ENDBRANCH  21  22
ENDBRANCH   4  20
TORSDOF 8
ENDMDL
