MODEL 1
REMARK VINA RESULT:      -5.6      0.000      0.000
REMARK  Name = 
REMARK  12 active torsions:
REMARK  status: ('A' for Active; 'I' for Inactive)
REMARK    1  A    between atoms: C_1  and  C_2
REMARK    2  A    between atoms: C_2  and  C_3
REMARK    3  A    between atoms: C_3  and  C_4
REMARK    4  A    between atoms: C_5  and  C_6
REMARK    5  A    between atoms: C_6  and  C_7
REMARK    6  A    between atoms: C_7  and  C_8
REMARK    7  A    between atoms: C_8  and  O_9
REMARK    8  A    between atoms: O_9  and  C_10
REMARK    9  A    between atoms: C_10  and  C_12
REMARK   10  A    between atoms: C_12  and  O_13
REMARK   11  A    between atoms: C_12  and  C_14
REMARK   12  A    between atoms: C_14  and  C_15
REMARK                            x       y       z     vdW  Elec       q    Type
REMARK                         _______ _______ _______ _____ _____    ______ ____
ROOT
ATOM      1  C   UNL     1       4.703   5.333  16.770  0.00  0.00    +0.000 C 
ENDROOT
BRANCH   1   2
ATOM      2  C   UNL     1       4.501   6.007  18.124  0.00  0.00    +0.000 C 
BRANCH   2   3
ATOM      3  C   UNL     1       3.073   6.531  18.275  0.00  0.00    +0.000 C 
BRANCH   3   5
ATOM      4  C   UNL     1       1.692   4.562  18.972  0.00  0.00    +0.000 C 
ATOM      5  C   UNL     1       2.302   5.719  19.273  0.00  0.00    +0.000 C 
BRANCH   4   6
ATOM      6  C   UNL     1       0.924   3.751  19.970  0.00  0.00    +0.000 C 
BRANCH   6   8
ATOM      7  C   UNL     1       2.274   2.717  21.813  0.00  0.00    +0.000 C 
ATOM      8  C   UNL     1       1.715   2.522  20.413  0.00  0.00    +0.000 C 
ENDBRANCH   6   8
ENDBRANCH   4   6
ENDBRANCH   3   5
ENDBRANCH   2   3
ENDBRANCH   1   2
BRANCH   1   9
ATOM      9  O   UNL     1       5.665   4.270  16.873  0.00  0.00    +0.000 OA
BRANCH   9  10
ATOM     10  C   UNL     1       6.853   4.493  16.249  0.00  0.00    +0.000 C 
ATOM     11  O   UNL     1       7.961   4.364  16.761  0.00  0.00    +0.000 OA
BRANCH  10  12
ATOM     12  C   UNL     1       6.641   4.909  14.793  0.00  0.00    +0.000 C 
BRANCH  12  13
ATOM     13  O   UNL     1       7.860   5.418  14.247  0.00  0.00    +0.000 OA
ATOM     14  H   UNL     1       8.575   5.146  14.854  0.00  0.00    +0.000 HD
ENDBRANCH  12  13
BRANCH  12  15
ATOM     15  C   UNL     1       6.201   3.713  13.944  0.00  0.00    +0.000 C 
ATOM     16  C   UNL     1       6.602   3.835  12.483  0.00  0.00    +0.000 C 
ENDBRANCH  12  15
ENDBRANCH  10  12
ENDBRANCH   9  10
ENDBRANCH   1   9
TORSDOF 10
ENDMDL
MODEL 2
REMARK VINA RESULT:      -5.5      1.081      1.300
REMARK  Name = 
REMARK  12 active torsions:
REMARK  status: ('A' for Active; 'I' for Inactive)
REMARK    1  A    between atoms: C_1  and  C_2
REMARK    2  A    between atoms: C_2  and  C_3
REMARK    3  A    between atoms: C_3  and  C_4
REMARK    4  A    between atoms: C_5  and  C_6
REMARK    5  A    between atoms: C_6  and  C_7
REMARK    6  A    between atoms: C_7  and  C_8
REMARK    7  A    between atoms: C_8  and  O_9
REMARK    8  A    between atoms: O_9  and  C_10
REMARK    9  A    between atoms: C_10  and  C_12
REMARK   10  A    between atoms: C_12  and  O_13
REMARK   11  A    between atoms: C_12  and  C_14
REMARK   12  A    between atoms: C_14  and  C_15
REMARK                            x       y       z     vdW  Elec       q    Type
REMARK                         _______ _______ _______ _____ _____    ______ ____
ROOT
ATOM      1  C   UNL     1       5.260   5.384  18.299  0.00  0.00    +0.000 C 
ENDROOT
BRANCH   1   2
ATOM      2  C   UNL     1       3.999   6.069  17.779  0.00  0.00    +0.000 C 
BRANCH   2   3
ATOM      3  C   UNL     1       3.109   6.539  18.930  0.00  0.00    +0.000 C 
BRANCH   3   5
ATOM      4  C   UNL     1       1.847   4.389  18.699  0.00  0.00    +0.000 C 
ATOM      5  C   UNL     1       2.268   5.415  19.456  0.00  0.00    +0.000 C 
BRANCH   4   6
ATOM      6  C   UNL     1       1.008   3.266  19.227  0.00  0.00    +0.000 C 
BRANCH   6   8
ATOM      7  C   UNL     1       2.864   2.060  18.048  0.00  0.00    +0.000 C 
ATOM      8  C   UNL     1       1.674   1.913  18.982  0.00  0.00    +0.000 C 
ENDBRANCH   6   8
ENDBRANCH   4   6
ENDBRANCH   3   5
ENDBRANCH   2   3
ENDBRANCH   1   2
BRANCH   1   9
ATOM      9  O   UNL     1       5.674   4.340  17.402  0.00  0.00    +0.000 OA
BRANCH   9  10
ATOM     10  C   UNL     1       6.836   4.570  16.732  0.00  0.00    +0.000 C 
ATOM     11  O   UNL     1       7.960   4.299  17.144  0.00  0.00    +0.000 OA
BRANCH  10  12
ATOM     12  C   UNL     1       6.568   5.198  15.364  0.00  0.00    +0.000 C 
BRANCH  12  13
ATOM     13  O   UNL     1       7.778   5.251  14.606  0.00  0.00    +0.000 OA
ATOM     14  H   UNL     1       8.259   4.421  14.784  0.00  0.00    +0.000 HD
ENDBRANCH  12  13
BRANCH  12  15
ATOM     15  C   UNL     1       5.548   4.372  14.576  0.00  0.00    +0.000 C 
ATOM     16  C   UNL     1       6.134   3.719  13.335  0.00  0.00    +0.000 C 
ENDBRANCH  12  15
ENDBRANCH  10  12
ENDBRANCH   9  10
ENDBRANCH   1   9
TORSDOF 10
ENDMDL
MODEL 3
REMARK VINA RESULT:      -5.5      2.266      3.055
REMARK  Name = 
REMARK  12 active torsions:
REMARK  status: ('A' for Active; 'I' for Inactive)
REMARK    1  A    between atoms: C_1  and  C_2
REMARK    2  A    between atoms: C_2  and  C_3
REMARK    3  A    between atoms: C_3  and  C_4
REMARK    4  A    between atoms: C_5  and  C_6
REMARK    5  A    between atoms: C_6  and  C_7
REMARK    6  A    between atoms: C_7  and  C_8
REMARK    7  A    between atoms: C_8  and  O_9
REMARK    8  A    between atoms: O_9  and  C_10
REMARK    9  A    between atoms: C_10  and  C_12
REMARK   10  A    between atoms: C_12  and  O_13
REMARK   11  A    between atoms: C_12  and  C_14
REMARK   12  A    between atoms: C_14  and  C_15
REMARK                            x       y       z     vdW  Elec       q    Type
REMARK                         _______ _______ _______ _____ _____    ______ ____
ROOT
ATOM      1  C   UNL     1       4.886   4.303  16.779  0.00  0.00    +0.000 C 
ENDROOT
BRANCH   1   2
ATOM      2  C   UNL     1       3.931   3.287  17.400  0.00  0.00    +0.000 C 
BRANCH   2   3
ATOM      3  C   UNL     1       2.487   3.552  16.975  0.00  0.00    +0.000 C 
BRANCH   3   5
ATOM      4  C   UNL     1       1.878   4.021  19.358  0.00  0.00    +0.000 C 
ATOM      5  C   UNL     1       1.562   3.516  18.155  0.00  0.00    +0.000 C 
BRANCH   4   6
ATOM      6  C   UNL     1       0.952   3.986  20.535  0.00  0.00    +0.000 C 
BRANCH   6   8
ATOM      7  C   UNL     1       2.835   2.593  21.430  0.00  0.00    +0.000 C 
ATOM      8  C   UNL     1       1.347   2.888  21.520  0.00  0.00    +0.000 C 
ENDBRANCH   6   8
ENDBRANCH   4   6
ENDBRANCH   3   5
ENDBRANCH   2   3
ENDBRANCH   1   2
BRANCH   1   9
ATOM      9  O   UNL     1       5.179   5.356  17.713  0.00  0.00    +0.000 OA
BRANCH   9  10
ATOM     10  C   UNL     1       6.138   5.072  18.634  0.00  0.00    +0.000 C 
ATOM     11  O   UNL     1       5.936   4.606  19.752  0.00  0.00    +0.000 OA
BRANCH  10  12
ATOM     12  C   UNL     1       7.533   5.383  18.092  0.00  0.00    +0.000 C 
BRANCH  12  13
ATOM     13  O   UNL     1       8.058   4.243  17.407  0.00  0.00    +0.000 OA
ATOM     14  H   UNL     1       7.674   3.456  17.838  0.00  0.00    +0.000 HD
ENDBRANCH  12  13
BRANCH  12  15
ATOM     15  C   UNL     1       7.484   6.551  17.103  0.00  0.00    +0.000 C 
ATOM     16  C   UNL     1       7.823   7.890  17.737  0.00  0.00    +0.000 C 
ENDBRANCH  12  15
ENDBRANCH  10  12
ENDBRANCH   9  10
ENDBRANCH   1   9
TORSDOF 10
ENDMDL
MODEL 4
REMARK VINA RESULT:      -5.5      2.723      7.067
REMARK  Name = 
REMARK  12 active torsions:
REMARK  status: ('A' for Active; 'I' for Inactive)
REMARK    1  A    between atoms: C_1  and  C_2
REMARK    2  A    between atoms: C_2  and  C_3
REMARK    3  A    between atoms: C_3  and  C_4
REMARK    4  A    between atoms: C_5  and  C_6
REMARK    5  A    between atoms: C_6  and  C_7
REMARK    6  A    between atoms: C_7  and  C_8
REMARK    7  A    between atoms: C_8  and  O_9
REMARK    8  A    between atoms: O_9  and  C_10
REMARK    9  A    between atoms: C_10  and  C_12
REMARK   10  A    between atoms: C_12  and  O_13
REMARK   11  A    between atoms: C_12  and  C_14
REMARK   12  A    between atoms: C_14  and  C_15
REMARK                            x       y       z     vdW  Elec       q    Type
REMARK                         _______ _______ _______ _____ _____    ______ ____
ROOT
ATOM      1  C   UNL     1       4.949   4.245  18.715  0.00  0.00    +0.000 C 
ENDROOT
BRANCH   1   2
ATOM      2  C   UNL     1       4.649   4.094  17.226  0.00  0.00    +0.000 C 
BRANCH   2   3
ATOM      3  C   UNL     1       5.929   4.165  16.393  0.00  0.00    +0.000 C 
BRANCH   3   5
ATOM      4  C   UNL     1       6.531   3.999  13.969  0.00  0.00    +0.000 C 
ATOM      5  C   UNL     1       5.617   4.217  14.927  0.00  0.00    +0.000 C 
BRANCH   4   6
ATOM      6  C   UNL     1       6.218   4.050  12.504  0.00  0.00    +0.000 C 
BRANCH   6   8
ATOM      7  C   UNL     1       4.168   3.230  11.315  0.00  0.00    +0.000 C 
ATOM      8  C   UNL     1       5.426   2.820  12.063  0.00  0.00    +0.000 C 
ENDBRANCH   6   8
ENDBRANCH   4   6
ENDBRANCH   3   5
ENDBRANCH   2   3
ENDBRANCH   1   2
BRANCH   1   9
ATOM      9  O   UNL     1       3.750   4.079  19.491  0.00  0.00    +0.000 OA
BRANCH   9  10
ATOM     10  C   UNL     1       3.595   2.861  20.076  0.00  0.00    +0.000 C 
ATOM     11  O   UNL     1       4.417   1.950  20.050  0.00  0.00    +0.000 OA
BRANCH  10  12
ATOM     12  C   UNL     1       2.256   2.768  20.808  0.00  0.00    +0.000 C 
BRANCH  12  13
ATOM     13  O   UNL     1       2.314   3.510  22.029  0.00  0.00    +0.000 OA
ATOM     14  H   UNL     1       3.103   3.197  22.511  0.00  0.00    +0.000 HD
ENDBRANCH  12  13
BRANCH  12  15
ATOM     15  C   UNL     1       1.126   3.347  19.953  0.00  0.00    +0.000 C 
ATOM     16  C   UNL     1       0.771   2.477  18.758  0.00  0.00    +0.000 C 
ENDBRANCH  12  15
ENDBRANCH  10  12
ENDBRANCH   9  10
ENDBRANCH   1   9
TORSDOF 10
ENDMDL
MODEL 5
REMARK VINA RESULT:      -5.4      2.554      6.997
REMARK  Name = 
REMARK  12 active torsions:
REMARK  status: ('A' for Active; 'I' for Inactive)
REMARK    1  A    between atoms: C_1  and  C_2
REMARK    2  A    between atoms: C_2  and  C_3
REMARK    3  A    between atoms: C_3  and  C_4
REMARK    4  A    between atoms: C_5  and  C_6
REMARK    5  A    between atoms: C_6  and  C_7
REMARK    6  A    between atoms: C_7  and  C_8
REMARK    7  A    between atoms: C_8  and  O_9
REMARK    8  A    between atoms: O_9  and  C_10
REMARK    9  A    between atoms: C_10  and  C_12
REMARK   10  A    between atoms: C_12  and  O_13
REMARK   11  A    between atoms: C_12  and  C_14
REMARK   12  A    between atoms: C_14  and  C_15
REMARK                            x       y       z     vdW  Elec       q    Type
REMARK                         _______ _______ _______ _____ _____    ______ ____
ROOT
ATOM      1  C   UNL     1       4.879   4.903  18.275  0.00  0.00    +0.000 C 
ENDROOT
BRANCH   1   2
ATOM      2  C   UNL     1       4.544   4.621  16.813  0.00  0.00    +0.000 C 
BRANCH   2   3
ATOM      3  C   UNL     1       5.686   5.049  15.890  0.00  0.00    +0.000 C 
BRANCH   3   5
ATOM      4  C   UNL     1       6.226   3.758  13.814  0.00  0.00    +0.000 C 
ATOM      5  C   UNL     1       5.432   4.612  14.479  0.00  0.00    +0.000 C 
BRANCH   4   6
ATOM      6  C   UNL     1       5.970   3.322  12.404  0.00  0.00    +0.000 C 
BRANCH   6   8
ATOM      7  C   UNL     1       3.926   2.840  11.033  0.00  0.00    +0.000 C 
ATOM      8  C   UNL     1       4.645   3.875  11.883  0.00  0.00    +0.000 C 
ENDBRANCH   6   8
ENDBRANCH   4   6
ENDBRANCH   3   5
ENDBRANCH   2   3
ENDBRANCH   1   2
BRANCH   1   9
ATOM      9  O   UNL     1       3.755   4.598  19.118  0.00  0.00    +0.000 OA
BRANCH   9  10
ATOM     10  C   UNL     1       3.533   3.274  19.339  0.00  0.00    +0.000 C 
ATOM     11  O   UNL     1       4.371   2.468  19.732  0.00  0.00    +0.000 OA
BRANCH  10  12
ATOM     12  C   UNL     1       2.076   2.906  19.059  0.00  0.00    +0.000 C 
BRANCH  12  13
ATOM     13  O   UNL     1       1.933   1.485  19.004  0.00  0.00    +0.000 OA
ATOM     14  H   UNL     1       1.606   1.200  19.878  0.00  0.00    +0.000 HD
ENDBRANCH  12  13
BRANCH  12  15
ATOM     15  C   UNL     1       1.158   3.434  20.165  0.00  0.00    +0.000 C 
ATOM     16  C   UNL     1       1.354   2.728  21.496  0.00  0.00    +0.000 C 
ENDBRANCH  12  15
ENDBRANCH  10  12
ENDBRANCH   9  10
ENDBRANCH   1   9
TORSDOF 10
ENDMDL
MODEL 6
REMARK VINA RESULT:      -5.4      1.579      2.753
REMARK  Name = 
REMARK  12 active torsions:
REMARK  status: ('A' for Active; 'I' for Inactive)
REMARK    1  A    between atoms: C_1  and  C_2
REMARK    2  A    between atoms: C_2  and  C_3
REMARK    3  A    between atoms: C_3  and  C_4
REMARK    4  A    between atoms: C_5  and  C_6
REMARK    5  A    between atoms: C_6  and  C_7
REMARK    6  A    between atoms: C_7  and  C_8
REMARK    7  A    between atoms: C_8  and  O_9
REMARK    8  A    between atoms: O_9  and  C_10
REMARK    9  A    between atoms: C_10  and  C_12
REMARK   10  A    between atoms: C_12  and  O_13
REMARK   11  A    between atoms: C_12  and  C_14
REMARK   12  A    between atoms: C_14  and  C_15
REMARK                            x       y       z     vdW  Elec       q    Type
REMARK                         _______ _______ _______ _____ _____    ______ ____
ROOT
ATOM      1  C   UNL     1       4.832   4.045  16.021  0.00  0.00    +0.000 C 
ENDROOT
BRANCH   1   2
ATOM      2  C   UNL     1       3.955   4.125  17.267  0.00  0.00    +0.000 C 
BRANCH   2   3
ATOM      3  C   UNL     1       3.533   5.566  17.557  0.00  0.00    +0.000 C 
BRANCH   3   5
ATOM      4  C   UNL     1       2.753   4.643  19.749  0.00  0.00    +0.000 C 
ATOM      5  C   UNL     1       2.902   5.681  18.912  0.00  0.00    +0.000 C 
BRANCH   4   6
ATOM      6  C   UNL     1       2.124   4.760  21.104  0.00  0.00    +0.000 C 
BRANCH   6   8
ATOM      7  C   UNL     1       1.545   2.376  20.585  0.00  0.00    +0.000 C 
ATOM      8  C   UNL     1       1.807   3.386  21.690  0.00  0.00    +0.000 C 
ENDBRANCH   6   8
ENDBRANCH   4   6
ENDBRANCH   3   5
ENDBRANCH   2   3
ENDBRANCH   1   2
BRANCH   1   9
ATOM      9  O   UNL     1       5.527   5.287  15.813  0.00  0.00    +0.000 OA
BRANCH   9  10
ATOM     10  C   UNL     1       6.871   5.246  16.015  0.00  0.00    +0.000 C 
ATOM     11  O   UNL     1       7.726   5.347  15.140  0.00  0.00    +0.000 OA
BRANCH  10  12
ATOM     12  C   UNL     1       7.200   5.081  17.499  0.00  0.00    +0.000 C 
BRANCH  12  13
ATOM     13  O   UNL     1       8.187   4.061  17.671  0.00  0.00    +0.000 OA
ATOM     14  H   UNL     1       8.578   4.194  18.555  0.00  0.00    +0.000 HD
ENDBRANCH  12  13
BRANCH  12  15
ATOM     15  C   UNL     1       7.756   6.383  18.081  0.00  0.00    +0.000 C 
ATOM     16  C   UNL     1       7.062   7.625  17.547  0.00  0.00    +0.000 C 
ENDBRANCH  12  15
ENDBRANCH  10  12
ENDBRANCH   9  10
ENDBRANCH   1   9
TORSDOF 10
ENDMDL
MODEL 7
REMARK VINA RESULT:      -5.4      4.711      6.958
REMARK  Name = 
REMARK  12 active torsions:
REMARK  status: ('A' for Active; 'I' for Inactive)
REMARK    1  A    between atoms: C_1  and  C_2
REMARK    2  A    between atoms: C_2  and  C_3
REMARK    3  A    between atoms: C_3  and  C_4
REMARK    4  A    between atoms: C_5  and  C_6
REMARK    5  A    between atoms: C_6  and  C_7
REMARK    6  A    between atoms: C_7  and  C_8
REMARK    7  A    between atoms: C_8  and  O_9
REMARK    8  A    between atoms: O_9  and  C_10
REMARK    9  A    between atoms: C_10  and  C_12
REMARK   10  A    between atoms: C_12  and  O_13
REMARK   11  A    between atoms: C_12  and  C_14
REMARK   12  A    between atoms: C_14  and  C_15
REMARK                            x       y       z     vdW  Elec       q    Type
REMARK                         _______ _______ _______ _____ _____    ______ ____
ROOT
ATOM      1  C   UNL     1       6.455   6.673  17.283  0.00  0.00    +0.000 C 
ENDROOT
BRANCH   1   2
ATOM      2  C   UNL     1       6.987   8.103  17.239  0.00  0.00    +0.000 C 
BRANCH   2   3
ATOM      3  C   UNL     1       8.188   8.276  18.169  0.00  0.00    +0.000 C 
BRANCH   3   5
ATOM      4  C   UNL     1       9.346  10.238  19.207  0.00  0.00    +0.000 C 
ATOM      5  C   UNL     1       8.656   9.700  18.188  0.00  0.00    +0.000 C 
BRANCH   4   6
ATOM      6  C   UNL     1       9.815  11.661  19.224  0.00  0.00    +0.000 C 
BRANCH   6   8
ATOM      7  C   UNL     1      10.837  12.975  17.348  0.00  0.00    +0.000 C 
ATOM      8  C   UNL     1       9.560  12.346  17.882  0.00  0.00    +0.000 C 
ENDBRANCH   6   8
ENDBRANCH   4   6
ENDBRANCH   3   5
ENDBRANCH   2   3
ENDBRANCH   1   2
BRANCH   1   9
ATOM      9  O   UNL     1       6.976   5.907  16.184  0.00  0.00    +0.000 OA
BRANCH   9  10
ATOM     10  C   UNL     1       7.217   4.595  16.448  0.00  0.00    +0.000 C 
ATOM     11  O   UNL     1       8.127   4.167  17.152  0.00  0.00    +0.000 OA
BRANCH  10  12
ATOM     12  C   UNL     1       6.183   3.697  15.769  0.00  0.00    +0.000 C 
BRANCH  12  13
ATOM     13  O   UNL     1       5.093   3.447  16.660  0.00  0.00    +0.000 OA
ATOM     14  H   UNL     1       5.482   3.255  17.534  0.00  0.00    +0.000 HD
ENDBRANCH  12  13
BRANCH  12  15
ATOM     15  C   UNL     1       5.626   4.363  14.509  0.00  0.00    +0.000 C 
ATOM     16  C   UNL     1       6.198   3.791  13.223  0.00  0.00    +0.000 C 
ENDBRANCH  12  15
ENDBRANCH  10  12
ENDBRANCH   9  10
ENDBRANCH   1   9
TORSDOF 10
ENDMDL
MODEL 8
REMARK VINA RESULT:      -5.4      2.244      6.999
REMARK  Name = 
REMARK  12 active torsions:
REMARK  status: ('A' for Active; 'I' for Inactive)
REMARK    1  A    between atoms: C_1  and  C_2
REMARK    2  A    between atoms: C_2  and  C_3
REMARK    3  A    between atoms: C_3  and  C_4
REMARK    4  A    between atoms: C_5  and  C_6
REMARK    5  A    between atoms: C_6  and  C_7
REMARK    6  A    between atoms: C_7  and  C_8
REMARK    7  A    between atoms: C_8  and  O_9
REMARK    8  A    between atoms: O_9  and  C_10
REMARK    9  A    between atoms: C_10  and  C_12
REMARK   10  A    between atoms: C_12  and  O_13
REMARK   11  A    between atoms: C_12  and  C_14
REMARK   12  A    between atoms: C_14  and  C_15
REMARK                            x       y       z     vdW  Elec       q    Type
REMARK                         _______ _______ _______ _____ _____    ______ ____
ROOT
ATOM      1  C   UNL     1       4.511   4.027  17.393  0.00  0.00    +0.000 C 
ENDROOT
BRANCH   1   2
ATOM      2  C   UNL     1       5.359   5.078  16.680  0.00  0.00    +0.000 C 
BRANCH   2   3
ATOM      3  C   UNL     1       6.505   4.431  15.902  0.00  0.00    +0.000 C 
BRANCH   3   5
ATOM      4  C   UNL     1       6.263   4.044  13.440  0.00  0.00    +0.000 C 
ATOM      5  C   UNL     1       5.993   3.686  14.706  0.00  0.00    +0.000 C 
BRANCH   4   6
ATOM      6  C   UNL     1       5.752   3.298  12.246  0.00  0.00    +0.000 C 
BRANCH   6   8
ATOM      7  C   UNL     1       6.446   1.174  11.106  0.00  0.00    +0.000 C 
ATOM      8  C   UNL     1       6.882   2.570  11.520  0.00  0.00    +0.000 C 
ENDBRANCH   6   8
ENDBRANCH   4   6
ENDBRANCH   3   5
ENDBRANCH   2   3
ENDBRANCH   1   2
BRANCH   1   9
ATOM      9  O   UNL     1       5.015   3.786  18.717  0.00  0.00    +0.000 OA
BRANCH   9  10
ATOM     10  C   UNL     1       4.373   2.815  19.420  0.00  0.00    +0.000 C 
ATOM     11  O   UNL     1       4.876   2.123  20.300  0.00  0.00    +0.000 OA
BRANCH  10  12
ATOM     12  C   UNL     1       2.910   2.701  18.992  0.00  0.00    +0.000 C 
BRANCH  12  13
ATOM     13  O   UNL     1       2.642   1.381  18.513  0.00  0.00    +0.000 OA
ATOM     14  H   UNL     1       3.045   0.763  19.152  0.00  0.00    +0.000 HD
ENDBRANCH  12  13
BRANCH  12  15
ATOM     15  C   UNL     1       1.974   2.979  20.171  0.00  0.00    +0.000 C 
ATOM     16  C   UNL     1       2.008   4.425  20.637  0.00  0.00    +0.000 C 
ENDBRANCH  12  15
ENDBRANCH  10  12
ENDBRANCH   9  10
ENDBRANCH   1   9
TORSDOF 10
ENDMDL
MODEL 9
REMARK VINA RESULT:      -5.3      2.656      6.867
REMARK  Name = 
REMARK  12 active torsions:
REMARK  status: ('A' for Active; 'I' for Inactive)
REMARK    1  A    between atoms: C_1  and  C_2
REMARK    2  A    between atoms: C_2  and  C_3
REMARK    3  A    between atoms: C_3  and  C_4
REMARK    4  A    between atoms: C_5  and  C_6
REMARK    5  A    between atoms: C_6  and  C_7
REMARK    6  A    between atoms: C_7  and  C_8
REMARK    7  A    between atoms: C_8  and  O_9
REMARK    8  A    between atoms: O_9  and  C_10
REMARK    9  A    between atoms: C_10  and  C_12
REMARK   10  A    between atoms: C_12  and  O_13
REMARK   11  A    between atoms: C_12  and  C_14
REMARK   12  A    between atoms: C_14  and  C_15
REMARK                            x       y       z     vdW  Elec       q    Type
REMARK                         _______ _______ _______ _____ _____    ______ ____
ROOT
ATOM      1  C   UNL     1       6.976   4.490  15.201  0.00  0.00    +0.000 C 
ENDROOT
BRANCH   1   2
ATOM      2  C   UNL     1       5.801   3.944  14.394  0.00  0.00    +0.000 C 
BRANCH   2   3
ATOM      3  C   UNL     1       6.189   3.719  12.933  0.00  0.00    +0.000 C 
BRANCH   3   5
ATOM      4  C   UNL     1       4.309   2.873  11.512  0.00  0.00    +0.000 C 
ATOM      5  C   UNL     1       5.007   3.897  12.027  0.00  0.00    +0.000 C 
BRANCH   4   6
ATOM      6  C   UNL     1       3.127   3.052  10.609  0.00  0.00    +0.000 C 
BRANCH   6   8
ATOM      7  C   UNL     1       2.240   4.868   9.123  0.00  0.00    +0.000 C 
ATOM      8  C   UNL     1       3.446   4.006   9.459  0.00  0.00    +0.000 C 
ENDBRANCH   6   8
ENDBRANCH   4   6
ENDBRANCH   3   5
ENDBRANCH   2   3
ENDBRANCH   1   2
BRANCH   1   9
ATOM      9  O   UNL     1       6.811   4.194  16.598  0.00  0.00    +0.000 OA
BRANCH   9  10
ATOM     10  C   UNL     1       6.104   5.112  17.311  0.00  0.00    +0.000 C 
ATOM     11  O   UNL     1       6.040   6.311  17.059  0.00  0.00    +0.000 OA
BRANCH  10  12
ATOM     12  C   UNL     1       5.362   4.454  18.474  0.00  0.00    +0.000 C 
BRANCH  12  13
ATOM     13  O   UNL     1       4.648   5.442  19.220  0.00  0.00    +0.000 OA
ATOM     14  H   UNL     1       3.712   5.375  18.951  0.00  0.00    +0.000 HD
ENDBRANCH  12  13
BRANCH  12  15
ATOM     15  C   UNL     1       4.353   3.422  17.963  0.00  0.00    +0.000 C 
ATOM     16  C   UNL     1       2.999   4.022  17.625  0.00  0.00    +0.000 C 
ENDBRANCH  12  15
ENDBRANCH  10  12
ENDBRANCH   9  10
ENDBRANCH   1   9
TORSDOF 10
ENDMDL
