MODEL 1
REMARK VINA RESULT:      -7.0      0.000      0.000
REMARK  Name = 
REMARK  10 active torsions:
REMARK  status: ('A' for Active; 'I' for Inactive)
REMARK    1  A    between atoms: C_1  and  O_2
REMARK    2  A    between atoms: O_2  and  C_3
REMARK    3  A    between atoms: C_3  and  C_4
REMARK    4  A    between atoms: C_4  and  N_5
REMARK    5  A    between atoms: C_6  and  S_7
REMARK    6  A    between atoms: S_7  and  C_8
REMARK    7  A    between atoms: C_8  and  C_9
REMARK    8  A    between atoms: C_9  and  C_11
REMARK    9  A    between atoms: C_12  and  N_13
REMARK   10  A    between atoms: N_14  and  C_15
REMARK                            x       y       z     vdW  Elec       q    Type
REMARK                         _______ _______ _______ _____ _____    ______ ____
ROOT
ATOM      1  C   UNL     1       1.108  10.532  18.753  0.00  0.00    +0.000 C 
ATOM      2  O   UNL     1       1.936  11.236  18.160  0.00  0.00    +0.000 OA
ENDROOT
BRANCH   1   3
ATOM      3  C   UNL     1      -0.284  11.084  18.998  0.00  0.00    +0.000 A 
ATOM      4  C   UNL     1      -1.326  10.704  18.209  0.00  0.00    +0.000 A 
ATOM      5  N   UNL     1      -2.606  11.251  18.420  0.00  0.00    +0.000 N 
ATOM      6  C   UNL     1      -2.889  12.112  19.476  0.00  0.00    +0.000 A 
ATOM      7  O   UNL     1      -4.003  12.543  19.773  0.00  0.00    +0.000 OA
ATOM      8  N   UNL     1      -1.823  12.485  20.237  0.00  0.00    +0.000 N 
ATOM      9  C   UNL     1      -0.553  12.023  20.112  0.00  0.00    +0.000 A 
ATOM     10  O   UNL     1       0.307  12.370  20.915  0.00  0.00    +0.000 OA
ATOM     11  H   UNL     1      -2.021  13.103  21.010  0.00  0.00    +0.000 HD
BRANCH   4  12
ATOM     12  N   UNL     1      -1.165   9.753  17.201  0.00  0.00    +0.000 N 
ATOM     13  H   UNL     1      -2.048   9.280  16.964  0.00  0.00    +0.000 HD
ATOM     14  H   UNL     1      -0.448   9.068  17.416  0.00  0.00    +0.000 HD
ENDBRANCH   4  12
BRANCH   5  15
ATOM     15  C   UNL     1      -3.689  10.803  17.553  0.00  0.00    +0.000 C 
ATOM     16  C   UNL     1      -4.863  11.646  17.112  0.00  0.00    +0.000 C 
ATOM     17  C   UNL     1      -3.781  11.330  16.133  0.00  0.00    +0.000 C 
ENDBRANCH   5  15
ENDBRANCH   1   3
BRANCH   1  18
ATOM     18  C   UNL     1       1.419   9.107  19.205  0.00  0.00    +0.000 C 
BRANCH  18  19
ATOM     19  S   UNL     1       2.508   8.211  18.053  0.00  0.00    +0.000 S 
BRANCH  19  21
ATOM     20  N   UNL     1       3.463   5.658  18.363  0.00  0.00    +0.000 N 
ATOM     21  C   UNL     1       2.647   6.663  18.828  0.00  0.00    +0.000 A 
ATOM     22  N   UNL     1       1.998   6.308  19.915  0.00  0.00    +0.000 NA
ATOM     23  C   UNL     1       2.428   5.032  20.191  0.00  0.00    +0.000 A 
ATOM     24  C   UNL     1       2.089   4.185  21.257  0.00  0.00    +0.000 A 
ATOM     25  C   UNL     1       2.663   2.907  21.321  0.00  0.00    +0.000 A 
ATOM     26  C   UNL     1       3.558   2.481  20.341  0.00  0.00    +0.000 A 
ATOM     27  C   UNL     1       3.921   3.316  19.281  0.00  0.00    +0.000 A 
ATOM     28  C   UNL     1       3.335   4.590  19.231  0.00  0.00    +0.000 A 
BRANCH  20  29
ATOM     29  C   UNL     1       4.406   5.711  17.263  0.00  0.00    +0.000 C 
BRANCH  29  30
ATOM     30  C   UNL     1       5.803   6.186  17.654  0.00  0.00    +0.000 C 
BRANCH  30  32
ATOM     31  C   UNL     1       7.093   4.540  16.554  0.00  0.00    +0.000 C 
ATOM     32  O   UNL     1       6.645   5.039  17.808  0.00  0.00    +0.000 OA
ENDBRANCH  30  32
ENDBRANCH  29  30
ENDBRANCH  20  29
ENDBRANCH  19  21
ENDBRANCH  18  19
ENDBRANCH   1  18
TORSDOF 9
ENDMDL
MODEL 2
REMARK VINA RESULT:      -7.0      2.638      3.172
REMARK  Name = 
REMARK  10 active torsions:
REMARK  status: ('A' for Active; 'I' for Inactive)
REMARK    1  A    between atoms: C_1  and  O_2
REMARK    2  A    between atoms: O_2  and  C_3
REMARK    3  A    between atoms: C_3  and  C_4
REMARK    4  A    between atoms: C_4  and  N_5
REMARK    5  A    between atoms: C_6  and  S_7
REMARK    6  A    between atoms: S_7  and  C_8
REMARK    7  A    between atoms: C_8  and  C_9
REMARK    8  A    between atoms: C_9  and  C_11
REMARK    9  A    between atoms: C_12  and  N_13
REMARK   10  A    between atoms: N_14  and  C_15
REMARK                            x       y       z     vdW  Elec       q    Type
REMARK                         _______ _______ _______ _____ _____    ______ ____
ROOT
ATOM      1  C   UNL     1       1.625   9.941  18.569  0.00  0.00    +0.000 C 
ATOM      2  O   UNL     1       2.170  10.950  18.103  0.00  0.00    +0.000 OA
ENDROOT
BRANCH   1   3
ATOM      3  C   UNL     1       0.889  10.049  19.891  0.00  0.00    +0.000 A 
ATOM      4  C   UNL     1       0.065  11.104  20.138  0.00  0.00    +0.000 A 
ATOM      5  N   UNL     1      -0.583  11.216  21.383  0.00  0.00    +0.000 N 
ATOM      6  C   UNL     1      -0.497  10.233  22.364  0.00  0.00    +0.000 A 
ATOM      7  O   UNL     1      -1.116  10.224  23.428  0.00  0.00    +0.000 OA
ATOM      8  N   UNL     1       0.347   9.200  22.093  0.00  0.00    +0.000 N 
ATOM      9  C   UNL     1       1.022   9.004  20.932  0.00  0.00    +0.000 A 
ATOM     10  O   UNL     1       1.686   7.985  20.774  0.00  0.00    +0.000 OA
ATOM     11  H   UNL     1       0.409   8.479  22.797  0.00  0.00    +0.000 HD
BRANCH   4  12
ATOM     12  N   UNL     1      -0.180  12.077  19.169  0.00  0.00    +0.000 N 
ATOM     13  H   UNL     1      -0.750  11.719  18.389  0.00  0.00    +0.000 HD
ATOM     14  H   UNL     1       0.670  12.503  18.814  0.00  0.00    +0.000 HD
ENDBRANCH   4  12
BRANCH   5  15
ATOM     15  C   UNL     1      -1.462  12.361  21.593  0.00  0.00    +0.000 C 
ATOM     16  C   UNL     1      -1.942  12.861  22.935  0.00  0.00    +0.000 C 
ATOM     17  C   UNL     1      -0.903  13.637  22.194  0.00  0.00    +0.000 C 
ENDBRANCH   5  15
ENDBRANCH   1   3
BRANCH   1  18
ATOM     18  C   UNL     1       1.623   8.600  17.839  0.00  0.00    +0.000 C 
BRANCH  18  19
ATOM     19  S   UNL     1       3.291   7.905  17.613  0.00  0.00    +0.000 S 
BRANCH  19  21
ATOM     20  N   UNL     1       4.014   5.272  17.876  0.00  0.00    +0.000 N 
ATOM     21  C   UNL     1       3.011   6.212  17.882  0.00  0.00    +0.000 A 
ATOM     22  N   UNL     1       1.833   5.676  18.116  0.00  0.00    +0.000 NA
ATOM     23  C   UNL     1       2.077   4.337  18.300  0.00  0.00    +0.000 A 
ATOM     24  C   UNL     1       1.185   3.299  18.613  0.00  0.00    +0.000 A 
ATOM     25  C   UNL     1       1.679   1.993  18.746  0.00  0.00    +0.000 A 
ATOM     26  C   UNL     1       3.036   1.726  18.570  0.00  0.00    +0.000 A 
ATOM     27  C   UNL     1       3.942   2.748  18.275  0.00  0.00    +0.000 A 
ATOM     28  C   UNL     1       3.430   4.047  18.142  0.00  0.00    +0.000 A 
BRANCH  20  29
ATOM     29  C   UNL     1       5.443   5.491  17.762  0.00  0.00    +0.000 C 
BRANCH  29  30
ATOM     30  C   UNL     1       6.195   5.435  19.089  0.00  0.00    +0.000 C 
BRANCH  30  32
ATOM     31  C   UNL     1       7.678   4.512  17.499  0.00  0.00    +0.000 C 
ATOM     32  O   UNL     1       7.432   4.746  18.880  0.00  0.00    +0.000 OA
ENDBRANCH  30  32
ENDBRANCH  29  30
ENDBRANCH  20  29
ENDBRANCH  19  21
ENDBRANCH  18  19
ENDBRANCH   1  18
TORSDOF 9
ENDMDL
MODEL 3
REMARK VINA RESULT:      -6.9      2.851      4.402
REMARK  Name = 
REMARK  10 active torsions:
REMARK  status: ('A' for Active; 'I' for Inactive)
REMARK    1  A    between atoms: C_1  and  O_2
REMARK    2  A    between atoms: O_2  and  C_3
REMARK    3  A    between atoms: C_3  and  C_4
REMARK    4  A    between atoms: C_4  and  N_5
REMARK    5  A    between atoms: C_6  and  S_7
REMARK    6  A    between atoms: S_7  and  C_8
REMARK    7  A    between atoms: C_8  and  C_9
REMARK    8  A    between atoms: C_9  and  C_11
REMARK    9  A    between atoms: C_12  and  N_13
REMARK   10  A    between atoms: N_14  and  C_15
REMARK                            x       y       z     vdW  Elec       q    Type
REMARK                         _______ _______ _______ _____ _____    ______ ____
ROOT
ATOM      1  C   UNL     1       0.869   9.798  18.125  0.00  0.00    +0.000 C 
ATOM      2  O   UNL     1      -0.211   9.514  17.591  0.00  0.00    +0.000 OA
ENDROOT
BRANCH   1   3
ATOM      3  C   UNL     1       0.913  10.930  19.134  0.00  0.00    +0.000 A 
ATOM      4  C   UNL     1       0.171  10.869  20.274  0.00  0.00    +0.000 A 
ATOM      5  N   UNL     1       0.189  11.942  21.185  0.00  0.00    +0.000 N 
ATOM      6  C   UNL     1       1.017  13.049  21.025  0.00  0.00    +0.000 A 
ATOM      7  O   UNL     1       1.152  13.967  21.832  0.00  0.00    +0.000 OA
ATOM      8  N   UNL     1       1.734  13.088  19.868  0.00  0.00    +0.000 N 
ATOM      9  C   UNL     1       1.781  12.113  18.925  0.00  0.00    +0.000 A 
ATOM     10  O   UNL     1       2.535  12.226  17.965  0.00  0.00    +0.000 OA
ATOM     11  H   UNL     1       2.343  13.883  19.748  0.00  0.00    +0.000 HD
BRANCH   4  12
ATOM     12  N   UNL     1      -0.597   9.746  20.581  0.00  0.00    +0.000 N 
ATOM     13  H   UNL     1      -0.630   9.069  19.805  0.00  0.00    +0.000 HD
ATOM     14  H   UNL     1      -1.538   9.981  20.879  0.00  0.00    +0.000 HD
ENDBRANCH   4  12
BRANCH   5  15
ATOM     15  C   UNL     1      -0.618  11.822  22.394  0.00  0.00    +0.000 C 
ATOM     16  C   UNL     1      -1.234  12.974  23.153  0.00  0.00    +0.000 C 
ATOM     17  C   UNL     1      -2.111  12.087  22.331  0.00  0.00    +0.000 C 
ENDBRANCH   5  15
ENDBRANCH   1   3
BRANCH   1  18
ATOM     18  C   UNL     1       2.152   9.020  17.844  0.00  0.00    +0.000 C 
BRANCH  18  19
ATOM     19  S   UNL     1       2.321   7.523  18.867  0.00  0.00    +0.000 S 
BRANCH  19  21
ATOM     20  N   UNL     1       3.319   5.313  17.585  0.00  0.00    +0.000 N 
ATOM     21  C   UNL     1       3.507   6.617  17.978  0.00  0.00    +0.000 A 
ATOM     22  N   UNL     1       4.677   7.083  17.600  0.00  0.00    +0.000 NA
ATOM     23  C   UNL     1       5.267   6.054  16.906  0.00  0.00    +0.000 A 
ATOM     24  C   UNL     1       6.508   6.013  16.251  0.00  0.00    +0.000 A 
ATOM     25  C   UNL     1       6.900   4.830  15.609  0.00  0.00    +0.000 A 
ATOM     26  C   UNL     1       6.071   3.709  15.617  0.00  0.00    +0.000 A 
ATOM     27  C   UNL     1       4.824   3.736  16.249  0.00  0.00    +0.000 A 
ATOM     28  C   UNL     1       4.450   4.926  16.890  0.00  0.00    +0.000 A 
BRANCH  20  29
ATOM     29  C   UNL     1       2.125   4.501  17.722  0.00  0.00    +0.000 C 
BRANCH  29  30
ATOM     30  C   UNL     1       2.240   3.384  18.756  0.00  0.00    +0.000 C 
BRANCH  30  32
ATOM     31  C   UNL     1       1.320   4.119  20.804  0.00  0.00    +0.000 C 
ATOM     32  O   UNL     1       1.078   3.419  19.590  0.00  0.00    +0.000 OA
ENDBRANCH  30  32
ENDBRANCH  29  30
ENDBRANCH  20  29
ENDBRANCH  19  21
ENDBRANCH  18  19
ENDBRANCH   1  18
TORSDOF 9
ENDMDL
MODEL 4
REMARK VINA RESULT:      -6.9      3.505      5.807
REMARK  Name = 
REMARK  10 active torsions:
REMARK  status: ('A' for Active; 'I' for Inactive)
REMARK    1  A    between atoms: C_1  and  O_2
REMARK    2  A    between atoms: O_2  and  C_3
REMARK    3  A    between atoms: C_3  and  C_4
REMARK    4  A    between atoms: C_4  and  N_5
REMARK    5  A    between atoms: C_6  and  S_7
REMARK    6  A    between atoms: S_7  and  C_8
REMARK    7  A    between atoms: C_8  and  C_9
REMARK    8  A    between atoms: C_9  and  C_11
REMARK    9  A    between atoms: C_12  and  N_13
REMARK   10  A    between atoms: N_14  and  C_15
REMARK                            x       y       z     vdW  Elec       q    Type
REMARK                         _______ _______ _______ _____ _____    ______ ____
ROOT
ATOM      1  C   UNL     1       2.892   5.922  18.543  0.00  0.00    +0.000 C 
ATOM      2  O   UNL     1       2.130   5.063  18.080  0.00  0.00    +0.000 OA
ENDROOT
BRANCH   1   3
ATOM      3  C   UNL     1       2.330   7.284  18.906  0.00  0.00    +0.000 A 
ATOM      4  C   UNL     1       1.844   7.519  20.155  0.00  0.00    +0.000 A 
ATOM      5  N   UNL     1       1.289   8.774  20.470  0.00  0.00    +0.000 N 
ATOM      6  C   UNL     1       1.296   9.843  19.580  0.00  0.00    +0.000 A 
ATOM      7  O   UNL     1       0.920  10.987  19.828  0.00  0.00    +0.000 OA
ATOM      8  N   UNL     1       1.775   9.571  18.334  0.00  0.00    +0.000 N 
ATOM      9  C   UNL     1       2.323   8.397  17.928  0.00  0.00    +0.000 A 
ATOM     10  O   UNL     1       2.801   8.301  16.803  0.00  0.00    +0.000 OA
ATOM     11  H   UNL     1       1.791  10.343  17.684  0.00  0.00    +0.000 HD
BRANCH   4  12
ATOM     12  N   UNL     1       1.904   6.546  21.153  0.00  0.00    +0.000 N 
ATOM     13  H   UNL     1       1.514   5.644  20.846  0.00  0.00    +0.000 HD
ATOM     14  H   UNL     1       1.464   6.842  22.018  0.00  0.00    +0.000 HD
ENDBRANCH   4  12
BRANCH   5  15
ATOM     15  C   UNL     1       0.790   8.976  21.826  0.00  0.00    +0.000 C 
ATOM     16  C   UNL     1      -0.181  10.054  22.249  0.00  0.00    +0.000 C 
ATOM     17  C   UNL     1      -0.654   8.640  22.152  0.00  0.00    +0.000 C 
ENDBRANCH   5  15
ENDBRANCH   1   3
BRANCH   1  18
ATOM     18  C   UNL     1       4.370   5.647  18.809  0.00  0.00    +0.000 C 
BRANCH  18  19
ATOM     19  S   UNL     1       4.868   3.945  18.394  0.00  0.00    +0.000 S 
BRANCH  19  21
ATOM     20  N   UNL     1       6.608   4.866  16.483  0.00  0.00    +0.000 N 
ATOM     21  C   UNL     1       5.480   4.137  16.780  0.00  0.00    +0.000 A 
ATOM     22  N   UNL     1       4.935   3.612  15.704  0.00  0.00    +0.000 NA
ATOM     23  C   UNL     1       5.754   3.986  14.666  0.00  0.00    +0.000 A 
ATOM     24  C   UNL     1       5.666   3.675  13.300  0.00  0.00    +0.000 A 
ATOM     25  C   UNL     1       6.632   4.187  12.421  0.00  0.00    +0.000 A 
ATOM     26  C   UNL     1       7.665   4.994  12.894  0.00  0.00    +0.000 A 
ATOM     27  C   UNL     1       7.779   5.301  14.253  0.00  0.00    +0.000 A 
ATOM     28  C   UNL     1       6.803   4.784  15.117  0.00  0.00    +0.000 A 
BRANCH  20  29
ATOM     29  C   UNL     1       7.532   5.496  17.406  0.00  0.00    +0.000 C 
BRANCH  29  30
ATOM     30  C   UNL     1       7.123   6.901  17.842  0.00  0.00    +0.000 C 
BRANCH  30  32
ATOM     31  C   UNL     1       8.181   9.013  17.805  0.00  0.00    +0.000 C 
ATOM     32  O   UNL     1       7.851   7.849  17.057  0.00  0.00    +0.000 OA
ENDBRANCH  30  32
ENDBRANCH  29  30
ENDBRANCH  20  29
ENDBRANCH  19  21
ENDBRANCH  18  19
ENDBRANCH   1  18
TORSDOF 9
ENDMDL
MODEL 5
REMARK VINA RESULT:      -6.9      2.191      8.418
REMARK  Name = 
REMARK  10 active torsions:
REMARK  status: ('A' for Active; 'I' for Inactive)
REMARK    1  A    between atoms: C_1  and  O_2
REMARK    2  A    between atoms: O_2  and  C_3
REMARK    3  A    between atoms: C_3  and  C_4
REMARK    4  A    between atoms: C_4  and  N_5
REMARK    5  A    between atoms: C_6  and  S_7
REMARK    6  A    between atoms: S_7  and  C_8
REMARK    7  A    between atoms: C_8  and  C_9
REMARK    8  A    between atoms: C_9  and  C_11
REMARK    9  A    between atoms: C_12  and  N_13
REMARK   10  A    between atoms: N_14  and  C_15
REMARK                            x       y       z     vdW  Elec       q    Type
REMARK                         _______ _______ _______ _____ _____    ______ ____
ROOT
ATOM      1  C   UNL     1       4.193   6.694  17.387  0.00  0.00    +0.000 C 
ATOM      2  O   UNL     1       4.477   6.681  16.182  0.00  0.00    +0.000 OA
ENDROOT
BRANCH   1   3
ATOM      3  C   UNL     1       4.318   5.409  18.184  0.00  0.00    +0.000 A 
ATOM      4  C   UNL     1       3.206   4.732  18.582  0.00  0.00    +0.000 A 
ATOM      5  N   UNL     1       3.333   3.562  19.354  0.00  0.00    +0.000 N 
ATOM      6  C   UNL     1       4.565   2.996  19.663  0.00  0.00    +0.000 A 
ATOM      7  O   UNL     1       4.739   1.926  20.246  0.00  0.00    +0.000 OA
ATOM      8  N   UNL     1       5.658   3.705  19.265  0.00  0.00    +0.000 N 
ATOM      9  C   UNL     1       5.644   4.843  18.526  0.00  0.00    +0.000 A 
ATOM     10  O   UNL     1       6.700   5.344  18.154  0.00  0.00    +0.000 OA
ATOM     11  H   UNL     1       6.556   3.297  19.478  0.00  0.00    +0.000 HD
BRANCH   4  12
ATOM     12  N   UNL     1       1.928   5.157  18.217  0.00  0.00    +0.000 N 
ATOM     13  H   UNL     1       1.887   5.484  17.242  0.00  0.00    +0.000 HD
ATOM     14  H   UNL     1       1.556   5.865  18.840  0.00  0.00    +0.000 HD
ENDBRANCH   4  12
BRANCH   5  15
ATOM     15  C   UNL     1       2.110   2.870  19.747  0.00  0.00    +0.000 C 
ATOM     16  C   UNL     1       1.785   2.391  21.142  0.00  0.00    +0.000 C 
ATOM     17  C   UNL     1       1.080   3.590  20.598  0.00  0.00    +0.000 C 
ENDBRANCH   5  15
ENDBRANCH   1   3
BRANCH   1  18
ATOM     18  C   UNL     1       3.765   7.966  18.114  0.00  0.00    +0.000 C 
BRANCH  18  19
ATOM     19  S   UNL     1       2.108   8.547  17.629  0.00  0.00    +0.000 S 
BRANCH  19  21
ATOM     20  N   UNL     1       0.742  10.183  19.356  0.00  0.00    +0.000 N 
ATOM     21  C   UNL     1       1.431   9.009  19.160  0.00  0.00    +0.000 A 
ATOM     22  N   UNL     1       1.508   8.292  20.260  0.00  0.00    +0.000 NA
ATOM     23  C   UNL     1       0.818   9.010  21.206  0.00  0.00    +0.000 A 
ATOM     24  C   UNL     1       0.553   8.697  22.549  0.00  0.00    +0.000 A 
ATOM     25  C   UNL     1      -0.179   9.605  23.328  0.00  0.00    +0.000 A 
ATOM     26  C   UNL     1      -0.638  10.802  22.780  0.00  0.00    +0.000 A 
ATOM     27  C   UNL     1      -0.399  11.123  21.441  0.00  0.00    +0.000 A 
ATOM     28  C   UNL     1       0.337  10.205  20.678  0.00  0.00    +0.000 A 
BRANCH  20  29
ATOM     29  C   UNL     1       0.361  11.171  18.366  0.00  0.00    +0.000 C 
BRANCH  29  30
ATOM     30  C   UNL     1      -1.136  11.219  18.070  0.00  0.00    +0.000 C 
BRANCH  30  32
ATOM     31  C   UNL     1      -0.576  13.474  18.494  0.00  0.00    +0.000 C 
ATOM     32  O   UNL     1      -1.625  12.516  18.421  0.00  0.00    +0.000 OA
ENDBRANCH  30  32
ENDBRANCH  29  30
ENDBRANCH  20  29
ENDBRANCH  19  21
ENDBRANCH  18  19
ENDBRANCH   1  18
TORSDOF 9
ENDMDL
MODEL 6
REMARK VINA RESULT:      -6.9      2.991      8.629
REMARK  Name = 
REMARK  10 active torsions:
REMARK  status: ('A' for Active; 'I' for Inactive)
REMARK    1  A    between atoms: C_1  and  O_2
REMARK    2  A    between atoms: O_2  and  C_3
REMARK    3  A    between atoms: C_3  and  C_4
REMARK    4  A    between atoms: C_4  and  N_5
REMARK    5  A    between atoms: C_6  and  S_7
REMARK    6  A    between atoms: S_7  and  C_8
REMARK    7  A    between atoms: C_8  and  C_9
REMARK    8  A    between atoms: C_9  and  C_11
REMARK    9  A    between atoms: C_12  and  N_13
REMARK   10  A    between atoms: N_14  and  C_15
REMARK                            x       y       z     vdW  Elec       q    Type
REMARK                         _______ _______ _______ _____ _____    ______ ____
ROOT
ATOM      1  C   UNL     1       3.959   4.443  19.387  0.00  0.00    +0.000 C 
ATOM      2  O   UNL     1       3.791   3.243  19.645  0.00  0.00    +0.000 OA
ENDROOT
BRANCH   1   3
ATOM      3  C   UNL     1       4.995   4.832  18.349  0.00  0.00    +0.000 A 
ATOM      4  C   UNL     1       4.758   4.620  17.025  0.00  0.00    +0.000 A 
ATOM      5  N   UNL     1       5.741   4.949  16.073  0.00  0.00    +0.000 N 
ATOM      6  C   UNL     1       6.934   5.579  16.412  0.00  0.00    +0.000 A 
ATOM      7  O   UNL     1       7.785   5.981  15.619  0.00  0.00    +0.000 OA
ATOM      8  N   UNL     1       7.147   5.763  17.744  0.00  0.00    +0.000 N 
ATOM      9  C   UNL     1       6.270   5.475  18.740  0.00  0.00    +0.000 A 
ATOM     10  O   UNL     1       6.543   5.767  19.899  0.00  0.00    +0.000 OA
ATOM     11  H   UNL     1       8.006   6.227  17.999  0.00  0.00    +0.000 HD
BRANCH   4  12
ATOM     12  N   UNL     1       3.541   4.104  16.578  0.00  0.00    +0.000 N 
ATOM     13  H   UNL     1       2.791   4.810  16.582  0.00  0.00    +0.000 HD
ATOM     14  H   UNL     1       3.250   3.280  17.093  0.00  0.00    +0.000 HD
ENDBRANCH   4  12
BRANCH   5  15
ATOM     15  C   UNL     1       5.433   4.710  14.667  0.00  0.00    +0.000 C 
ATOM     16  C   UNL     1       6.440   4.699  13.540  0.00  0.00    +0.000 C 
ATOM     17  C   UNL     1       5.860   3.407  14.016  0.00  0.00    +0.000 C 
ENDBRANCH   5  15
ENDBRANCH   1   3
BRANCH   1  18
ATOM     18  C   UNL     1       3.129   5.545  20.040  0.00  0.00    +0.000 C 
BRANCH  18  19
ATOM     19  S   UNL     1       2.633   6.854  18.874  0.00  0.00    +0.000 S 
BRANCH  19  21
ATOM     20  N   UNL     1       1.255   9.145  19.491  0.00  0.00    +0.000 N 
ATOM     21  C   UNL     1       1.719   7.916  19.900  0.00  0.00    +0.000 A 
ATOM     22  N   UNL     1       1.385   7.652  21.144  0.00  0.00    +0.000 NA
ATOM     23  C   UNL     1       0.649   8.736  21.558  0.00  0.00    +0.000 A 
ATOM     24  C   UNL     1       0.015   8.971  22.788  0.00  0.00    +0.000 A 
ATOM     25  C   UNL     1      -0.682  10.173  22.977  0.00  0.00    +0.000 A 
ATOM     26  C   UNL     1      -0.746  11.124  21.960  0.00  0.00    +0.000 A 
ATOM     27  C   UNL     1      -0.135  10.902  20.722  0.00  0.00    +0.000 A 
ATOM     28  C   UNL     1       0.560   9.696  20.552  0.00  0.00    +0.000 A 
BRANCH  20  29
ATOM     29  C   UNL     1       1.329   9.732  18.168  0.00  0.00    +0.000 C 
BRANCH  29  30
ATOM     30  C   UNL     1       2.363  10.847  18.031  0.00  0.00    +0.000 C 
BRANCH  30  32
ATOM     31  C   UNL     1       2.566  13.113  18.667  0.00  0.00    +0.000 C 
ATOM     32  O   UNL     1       1.694  12.104  18.174  0.00  0.00    +0.000 OA
ENDBRANCH  30  32
ENDBRANCH  29  30
ENDBRANCH  20  29
ENDBRANCH  19  21
ENDBRANCH  18  19
ENDBRANCH   1  18
TORSDOF 9
ENDMDL
MODEL 7
REMARK VINA RESULT:      -6.8      1.327      2.564
REMARK  Name = 
REMARK  10 active torsions:
REMARK  status: ('A' for Active; 'I' for Inactive)
REMARK    1  A    between atoms: C_1  and  O_2
REMARK    2  A    between atoms: O_2  and  C_3
REMARK    3  A    between atoms: C_3  and  C_4
REMARK    4  A    between atoms: C_4  and  N_5
REMARK    5  A    between atoms: C_6  and  S_7
REMARK    6  A    between atoms: S_7  and  C_8
REMARK    7  A    between atoms: C_8  and  C_9
REMARK    8  A    between atoms: C_9  and  C_11
REMARK    9  A    between atoms: C_12  and  N_13
REMARK   10  A    between atoms: N_14  and  C_15
REMARK                            x       y       z     vdW  Elec       q    Type
REMARK                         _______ _______ _______ _____ _____    ______ ____
ROOT
ATOM      1  C   UNL     1       1.224  10.387  18.714  0.00  0.00    +0.000 C 
ATOM      2  O   UNL     1       2.048  11.063  18.084  0.00  0.00    +0.000 OA
ENDROOT
BRANCH   1   3
ATOM      3  C   UNL     1      -0.107  11.013  19.085  0.00  0.00    +0.000 A 
ATOM      4  C   UNL     1      -0.194  11.883  20.128  0.00  0.00    +0.000 A 
ATOM      5  N   UNL     1      -1.441  12.428  20.489  0.00  0.00    +0.000 N 
ATOM      6  C   UNL     1      -2.603  12.192  19.761  0.00  0.00    +0.000 A 
ATOM      7  O   UNL     1      -3.697  12.716  19.964  0.00  0.00    +0.000 OA
ATOM      8  N   UNL     1      -2.486  11.306  18.733  0.00  0.00    +0.000 N 
ATOM      9  C   UNL     1      -1.336  10.721  18.311  0.00  0.00    +0.000 A 
ATOM     10  O   UNL     1      -1.343  10.005  17.316  0.00  0.00    +0.000 OA
ATOM     11  H   UNL     1      -3.322  11.134  18.195  0.00  0.00    +0.000 HD
BRANCH   4  12
ATOM     12  N   UNL     1       0.937  12.275  20.843  0.00  0.00    +0.000 N 
ATOM     13  H   UNL     1       1.672  11.553  20.843  0.00  0.00    +0.000 HD
ATOM     14  H   UNL     1       0.725  12.558  21.795  0.00  0.00    +0.000 HD
ENDBRANCH   4  12
BRANCH   5  15
ATOM     15  C   UNL     1      -1.477  13.362  21.609  0.00  0.00    +0.000 C 
ATOM     16  C   UNL     1      -2.669  13.607  22.506  0.00  0.00    +0.000 C 
ATOM     17  C   UNL     1      -1.506  12.830  23.030  0.00  0.00    +0.000 C 
ENDBRANCH   5  15
ENDBRANCH   1   3
BRANCH   1  18
ATOM     18  C   UNL     1       1.477   8.930  19.093  0.00  0.00    +0.000 C 
BRANCH  18  19
ATOM     19  S   UNL     1       2.667   8.100  17.992  0.00  0.00    +0.000 S 
BRANCH  19  21
ATOM     20  N   UNL     1       3.738   5.599  18.341  0.00  0.00    +0.000 N 
ATOM     21  C   UNL     1       2.829   6.546  18.751  0.00  0.00    +0.000 A 
ATOM     22  N   UNL     1       2.113   6.133  19.773  0.00  0.00    +0.000 NA
ATOM     23  C   UNL     1       2.591   4.878  20.064  0.00  0.00    +0.000 A 
ATOM     24  C   UNL     1       2.212   3.991  21.084  0.00  0.00    +0.000 A 
ATOM     25  C   UNL     1       2.851   2.746  21.176  0.00  0.00    +0.000 A 
ATOM     26  C   UNL     1       3.849   2.391  20.269  0.00  0.00    +0.000 A 
ATOM     27  C   UNL     1       4.251   3.268  19.258  0.00  0.00    +0.000 A 
ATOM     28  C   UNL     1       3.599   4.507  19.178  0.00  0.00    +0.000 A 
BRANCH  20  29
ATOM     29  C   UNL     1       4.765   5.726  17.326  0.00  0.00    +0.000 C 
BRANCH  29  30
ATOM     30  C   UNL     1       6.131   6.148  17.864  0.00  0.00    +0.000 C 
BRANCH  30  32
ATOM     31  C   UNL     1       7.047   4.491  16.451  0.00  0.00    +0.000 C 
ATOM     32  O   UNL     1       7.020   5.031  17.766  0.00  0.00    +0.000 OA
ENDBRANCH  30  32
ENDBRANCH  29  30
ENDBRANCH  20  29
ENDBRANCH  19  21
ENDBRANCH  18  19
ENDBRANCH   1  18
TORSDOF 9
ENDMDL
MODEL 8
REMARK VINA RESULT:      -6.8      2.052      8.866
REMARK  Name = 
REMARK  10 active torsions:
REMARK  status: ('A' for Active; 'I' for Inactive)
REMARK    1  A    between atoms: C_1  and  O_2
REMARK    2  A    between atoms: O_2  and  C_3
REMARK    3  A    between atoms: C_3  and  C_4
REMARK    4  A    between atoms: C_4  and  N_5
REMARK    5  A    between atoms: C_6  and  S_7
REMARK    6  A    between atoms: S_7  and  C_8
REMARK    7  A    between atoms: C_8  and  C_9
REMARK    8  A    between atoms: C_9  and  C_11
REMARK    9  A    between atoms: C_12  and  N_13
REMARK   10  A    between atoms: N_14  and  C_15
REMARK                            x       y       z     vdW  Elec       q    Type
REMARK                         _______ _______ _______ _____ _____    ______ ____
ROOT
ATOM      1  C   UNL     1       2.406   7.507  18.695  0.00  0.00    +0.000 C 
ATOM      2  O   UNL     1       2.232   7.541  19.921  0.00  0.00    +0.000 OA
ENDROOT
BRANCH   1   3
ATOM      3  C   UNL     1       3.173   6.344  18.095  0.00  0.00    +0.000 A 
ATOM      4  C   UNL     1       2.679   5.078  18.173  0.00  0.00    +0.000 A 
ATOM      5  N   UNL     1       3.417   4.000  17.647  0.00  0.00    +0.000 N 
ATOM      6  C   UNL     1       4.609   4.175  16.952  0.00  0.00    +0.000 A 
ATOM      7  O   UNL     1       5.247   3.289  16.384  0.00  0.00    +0.000 OA
ATOM      8  N   UNL     1       5.084   5.451  16.905  0.00  0.00    +0.000 N 
ATOM      9  C   UNL     1       4.457   6.554  17.386  0.00  0.00    +0.000 A 
ATOM     10  O   UNL     1       4.946   7.664  17.206  0.00  0.00    +0.000 OA
ATOM     11  H   UNL     1       5.945   5.588  16.397  0.00  0.00    +0.000 HD
BRANCH   4  12
ATOM     12  N   UNL     1       1.433   4.818  18.743  0.00  0.00    +0.000 N 
ATOM     13  H   UNL     1       1.443   4.914  19.769  0.00  0.00    +0.000 HD
ATOM     14  H   UNL     1       1.060   3.911  18.480  0.00  0.00    +0.000 HD
ENDBRANCH   4  12
BRANCH   5  15
ATOM     15  C   UNL     1       2.838   2.665  17.748  0.00  0.00    +0.000 C 
ATOM     16  C   UNL     1       3.582   1.419  18.170  0.00  0.00    +0.000 C 
ATOM     17  C   UNL     1       2.611   2.047  19.116  0.00  0.00    +0.000 C 
ENDBRANCH   5  15
ENDBRANCH   1   3
BRANCH   1  18
ATOM     18  C   UNL     1       1.836   8.568  17.758  0.00  0.00    +0.000 C 
BRANCH  18  19
ATOM     19  S   UNL     1       1.688  10.208  18.537  0.00  0.00    +0.000 S 
BRANCH  19  21
ATOM     20  N   UNL     1      -0.668  11.442  19.209  0.00  0.00    +0.000 N 
ATOM     21  C   UNL     1      -0.025  10.485  18.459  0.00  0.00    +0.000 A 
ATOM     22  N   UNL     1      -0.857   9.820  17.688  0.00  0.00    +0.000 NA
ATOM     23  C   UNL     1      -2.089  10.382  17.920  0.00  0.00    +0.000 A 
ATOM     24  C   UNL     1      -3.332  10.084  17.339  0.00  0.00    +0.000 A 
ATOM     25  C   UNL     1      -4.465  10.802  17.749  0.00  0.00    +0.000 A 
ATOM     26  C   UNL     1      -4.362  11.798  18.719  0.00  0.00    +0.000 A 
ATOM     27  C   UNL     1      -3.131  12.121  19.296  0.00  0.00    +0.000 A 
ATOM     28  C   UNL     1      -2.009  11.391  18.877  0.00  0.00    +0.000 A 
BRANCH  20  29
ATOM     29  C   UNL     1      -0.079  12.435  20.086  0.00  0.00    +0.000 C 
BRANCH  29  30
ATOM     30  C   UNL     1      -0.253  12.142  21.574  0.00  0.00    +0.000 C 
BRANCH  30  32
ATOM     31  C   UNL     1      -0.145   9.978  22.515  0.00  0.00    +0.000 C 
ATOM     32  O   UNL     1       0.591  11.040  21.920  0.00  0.00    +0.000 OA
ENDBRANCH  30  32
ENDBRANCH  29  30
ENDBRANCH  20  29
ENDBRANCH  19  21
ENDBRANCH  18  19
ENDBRANCH   1  18
TORSDOF 9
ENDMDL
MODEL 9
REMARK VINA RESULT:      -6.8      1.874      2.903
REMARK  Name = 
REMARK  10 active torsions:
REMARK  status: ('A' for Active; 'I' for Inactive)
REMARK    1  A    between atoms: C_1  and  O_2
REMARK    2  A    between atoms: O_2  and  C_3
REMARK    3  A    between atoms: C_3  and  C_4
REMARK    4  A    between atoms: C_4  and  N_5
REMARK    5  A    between atoms: C_6  and  S_7
REMARK    6  A    between atoms: S_7  and  C_8
REMARK    7  A    between atoms: C_8  and  C_9
REMARK    8  A    between atoms: C_9  and  C_11
REMARK    9  A    between atoms: C_12  and  N_13
REMARK   10  A    between atoms: N_14  and  C_15
REMARK                            x       y       z     vdW  Elec       q    Type
REMARK                         _______ _______ _______ _____ _____    ______ ____
ROOT
ATOM      1  C   UNL     1       1.318  10.186  18.295  0.00  0.00    +0.000 C 
ATOM      2  O   UNL     1       2.222  10.934  17.902  0.00  0.00    +0.000 OA
ENDROOT
BRANCH   1   3
ATOM      3  C   UNL     1       0.029  10.799  18.808  0.00  0.00    +0.000 A 
ATOM      4  C   UNL     1       0.032  11.581  19.922  0.00  0.00    +0.000 A 
ATOM      5  N   UNL     1      -1.176  12.114  20.412  0.00  0.00    +0.000 N 
ATOM      6  C   UNL     1      -2.389  11.957  19.750  0.00  0.00    +0.000 A 
ATOM      7  O   UNL     1      -3.456  12.479  20.071  0.00  0.00    +0.000 OA
ATOM      8  N   UNL     1      -2.362  11.157  18.648  0.00  0.00    +0.000 N 
ATOM      9  C   UNL     1      -1.256  10.591  18.100  0.00  0.00    +0.000 A 
ATOM     10  O   UNL     1      -1.346   9.960  17.053  0.00  0.00    +0.000 OA
ATOM     11  H   UNL     1      -3.236  11.044  18.157  0.00  0.00    +0.000 HD
BRANCH   4  12
ATOM     12  N   UNL     1       1.218  11.895  20.586  0.00  0.00    +0.000 N 
ATOM     13  H   UNL     1       2.034  11.880  19.958  0.00  0.00    +0.000 HD
ATOM     14  H   UNL     1       1.386  11.304  21.394  0.00  0.00    +0.000 HD
ENDBRANCH   4  12
BRANCH   5  15
ATOM     15  C   UNL     1      -1.116  12.952  21.605  0.00  0.00    +0.000 C 
ATOM     16  C   UNL     1      -2.267  13.219  22.546  0.00  0.00    +0.000 C 
ATOM     17  C   UNL     1      -1.165  12.309  22.978  0.00  0.00    +0.000 C 
ENDBRANCH   5  15
ENDBRANCH   1   3
BRANCH   1  18
ATOM     18  C   UNL     1       1.432   8.664  18.239  0.00  0.00    +0.000 C 
BRANCH  18  19
ATOM     19  S   UNL     1       3.107   8.086  17.820  0.00  0.00    +0.000 S 
BRANCH  19  21
ATOM     20  N   UNL     1       3.947   5.478  17.668  0.00  0.00    +0.000 N 
ATOM     21  C   UNL     1       2.927   6.362  17.935  0.00  0.00    +0.000 A 
ATOM     22  N   UNL     1       1.819   5.746  18.284  0.00  0.00    +0.000 NA
ATOM     23  C   UNL     1       2.132   4.408  18.274  0.00  0.00    +0.000 A 
ATOM     24  C   UNL     1       1.334   3.300  18.600  0.00  0.00    +0.000 A 
ATOM     25  C   UNL     1       1.884   2.014  18.506  0.00  0.00    +0.000 A 
ATOM     26  C   UNL     1       3.204   1.834  18.095  0.00  0.00    +0.000 A 
ATOM     27  C   UNL     1       4.019   2.925  17.783  0.00  0.00    +0.000 A 
ATOM     28  C   UNL     1       3.452   4.205  17.879  0.00  0.00    +0.000 A 
BRANCH  20  29
ATOM     29  C   UNL     1       5.331   5.779  17.362  0.00  0.00    +0.000 C 
BRANCH  29  30
ATOM     30  C   UNL     1       5.667   5.747  15.872  0.00  0.00    +0.000 C 
BRANCH  30  32
ATOM     31  C   UNL     1       6.168   3.938  14.439  0.00  0.00    +0.000 C 
ATOM     32  O   UNL     1       6.529   4.632  15.626  0.00  0.00    +0.000 OA
ENDBRANCH  30  32
ENDBRANCH  29  30
ENDBRANCH  20  29
ENDBRANCH  19  21
ENDBRANCH  18  19
ENDBRANCH   1  18
TORSDOF 9
ENDMDL
