MODEL 1
REMARK VINA RESULT:      -5.7      0.000      0.000
REMARK  Name = 
REMARK  10 active torsions:
REMARK  status: ('A' for Active; 'I' for Inactive)
REMARK    1  A    between atoms: C_1  and  N_2
REMARK    2  A    between atoms: N_2  and  C_3
REMARK    3  A    between atoms: N_2  and  C_4
REMARK    4  A    between atoms: N_2  and  C_5
REMARK    5  A    between atoms: C_5  and  C_6
REMARK    6  A    between atoms: C_6  and  O_7
REMARK    7  A    between atoms: O_7  and  P_8
REMARK    8  A    between atoms: P_8  and  O_10
REMARK    9  A    between atoms: P_8  and  C_11
REMARK   10  A    between atoms: C_11  and  C_12
REMARK                            x       y       z     vdW  Elec       q    Type
REMARK                         _______ _______ _______ _____ _____    ______ ____
ROOT
ATOM      1  P   UNL     1       7.248   7.101  17.749  0.00  0.00    +0.000 P 
ATOM      2  O   UNL     1       7.949   6.889  16.400  0.00  0.00    +0.000 OA
ENDROOT
BRANCH   1   3
ATOM      3  O   UNL     1       8.448   7.097  18.862  0.00  0.00    +0.000 OA
ATOM      4  H   UNL     1       8.312   7.809  19.518  0.00  0.00    +0.000 HD
ENDBRANCH   1   3
BRANCH   1   5
ATOM      5  O   UNL     1       7.536   8.801  17.610  0.00  0.00    +0.000 OA
BRANCH   5   6
ATOM      6  C   UNL     1       8.579   9.230  18.475  0.00  0.00    +0.000 C 
BRANCH   6   7
ATOM      7  C   UNL     1       9.093  10.608  18.058  0.00  0.00    +0.000 C 
BRANCH   7   9
ATOM      8  C   UNL     1       9.096  12.852  19.111  0.00  0.00    +0.000 C 
ATOM      9  N   UNL     1       9.699  11.452  19.202  0.00  0.00    +0.000 N 
ATOM     10  C   UNL     1      11.212  11.549  19.084  0.00  0.00    +0.000 C 
ATOM     11  C   UNL     1       9.347  10.865  20.572  0.00  0.00    +0.000 C 
ENDBRANCH   7   9
ENDBRANCH   6   7
ENDBRANCH   5   6
ENDBRANCH   1   5
BRANCH   1  12
ATOM     12  C   UNL     1       6.943   5.303  17.896  0.00  0.00    +0.000 C 
BRANCH  12  13
ATOM     13  C   UNL     1       5.560   4.824  18.284  0.00  0.00    +0.000 A 
ATOM     14  C   UNL     1       4.886   3.878  17.496  0.00  0.00    +0.000 A 
ATOM     15  C   UNL     1       3.575   3.508  17.803  0.00  0.00    +0.000 A 
ATOM     16  C   UNL     1       2.933   4.080  18.897  0.00  0.00    +0.000 A 
ATOM     17 BR   UNL     1       1.158   3.580  19.311  0.00  0.00    +0.000 Br
ATOM     18  C   UNL     1       3.588   5.024  19.687  0.00  0.00    +0.000 A 
ATOM     19  C   UNL     1       4.898   5.397  19.379  0.00  0.00    +0.000 A 
ENDBRANCH  12  13
ENDBRANCH   1  12
TORSDOF 7
ENDMDL
MODEL 2
REMARK VINA RESULT:      -5.7      1.366      1.964
REMARK  Name = 
REMARK  10 active torsions:
REMARK  status: ('A' for Active; 'I' for Inactive)
REMARK    1  A    between atoms: C_1  and  N_2
REMARK    2  A    between atoms: N_2  and  C_3
REMARK    3  A    between atoms: N_2  and  C_4
REMARK    4  A    between atoms: N_2  and  C_5
REMARK    5  A    between atoms: C_5  and  C_6
REMARK    6  A    between atoms: C_6  and  O_7
REMARK    7  A    between atoms: O_7  and  P_8
REMARK    8  A    between atoms: P_8  and  O_10
REMARK    9  A    between atoms: P_8  and  C_11
REMARK   10  A    between atoms: C_11  and  C_12
REMARK                            x       y       z     vdW  Elec       q    Type
REMARK                         _______ _______ _______ _____ _____    ______ ____
ROOT
ATOM      1  P   UNL     1       6.716   7.130  17.271  0.00  0.00    +0.000 P 
ATOM      2  O   UNL     1       7.672   6.518  16.238  0.00  0.00    +0.000 OA
ENDROOT
BRANCH   1   3
ATOM      3  O   UNL     1       6.692   6.067  18.515  0.00  0.00    +0.000 OA
ATOM      4  H   UNL     1       5.795   6.008  18.900  0.00  0.00    +0.000 HD
ENDBRANCH   1   3
BRANCH   1   5
ATOM      5  O   UNL     1       8.071   7.856  18.066  0.00  0.00    +0.000 OA
BRANCH   5   6
ATOM      6  C   UNL     1       8.087   9.266  17.894  0.00  0.00    +0.000 C 
BRANCH   6   7
ATOM      7  C   UNL     1       9.027   9.922  18.906  0.00  0.00    +0.000 C 
BRANCH   7   9
ATOM      8  C   UNL     1      10.742  11.369  17.854  0.00  0.00    +0.000 C 
ATOM      9  N   UNL     1       9.405  11.386  18.590  0.00  0.00    +0.000 N 
ATOM     10  C   UNL     1       9.543  12.215  19.859  0.00  0.00    +0.000 C 
ATOM     11  C   UNL     1       8.364  12.046  17.681  0.00  0.00    +0.000 C 
ENDBRANCH   7   9
ENDBRANCH   6   7
ENDBRANCH   5   6
ENDBRANCH   1   5
BRANCH   1  12
ATOM     12  C   UNL     1       5.284   6.362  16.430  0.00  0.00    +0.000 C 
BRANCH  12  13
ATOM     13  C   UNL     1       4.192   5.733  17.271  0.00  0.00    +0.000 A 
ATOM     14  C   UNL     1       3.409   6.523  18.128  0.00  0.00    +0.000 A 
ATOM     15  C   UNL     1       2.467   5.930  18.970  0.00  0.00    +0.000 A 
ATOM     16  C   UNL     1       2.303   4.547  18.960  0.00  0.00    +0.000 A 
ATOM     17 BR   UNL     1       1.029   3.745  20.103  0.00  0.00    +0.000 Br
ATOM     18  C   UNL     1       3.077   3.749  18.118  0.00  0.00    +0.000 A 
ATOM     19  C   UNL     1       4.021   4.342  17.277  0.00  0.00    +0.000 A 
ENDBRANCH  12  13
ENDBRANCH   1  12
TORSDOF 7
ENDMDL
MODEL 3
REMARK VINA RESULT:      -5.6      0.589      1.593
REMARK  Name = 
REMARK  10 active torsions:
REMARK  status: ('A' for Active; 'I' for Inactive)
REMARK    1  A    between atoms: C_1  and  N_2
REMARK    2  A    between atoms: N_2  and  C_3
REMARK    3  A    between atoms: N_2  and  C_4
REMARK    4  A    between atoms: N_2  and  C_5
REMARK    5  A    between atoms: C_5  and  C_6
REMARK    6  A    between atoms: C_6  and  O_7
REMARK    7  A    between atoms: O_7  and  P_8
REMARK    8  A    between atoms: P_8  and  O_10
REMARK    9  A    between atoms: P_8  and  C_11
REMARK   10  A    between atoms: C_11  and  C_12
REMARK                            x       y       z     vdW  Elec       q    Type
REMARK                         _______ _______ _______ _____ _____    ______ ____
ROOT
ATOM      1  P   UNL     1       7.111   6.935  17.781  0.00  0.00    +0.000 P 
ATOM      2  O   UNL     1       7.695   6.457  16.445  0.00  0.00    +0.000 OA
ENDROOT
BRANCH   1   3
ATOM      3  O   UNL     1       8.392   7.048  18.794  0.00  0.00    +0.000 OA
ATOM      4  H   UNL     1       8.393   6.308  19.432  0.00  0.00    +0.000 HD
ENDBRANCH   1   3
BRANCH   1   5
ATOM      5  O   UNL     1       7.466   8.567  17.330  0.00  0.00    +0.000 OA
BRANCH   5   6
ATOM      6  C   UNL     1       8.404   9.164  18.215  0.00  0.00    +0.000 C 
BRANCH   6   7
ATOM      7  C   UNL     1       8.629  10.632  17.851  0.00  0.00    +0.000 C 
BRANCH   7   9
ATOM      8  C   UNL     1       9.409  10.715  20.203  0.00  0.00    +0.000 C 
ATOM      9  N   UNL     1       9.495  11.427  18.854  0.00  0.00    +0.000 N 
ATOM     10  C   UNL     1       9.001  12.857  19.010  0.00  0.00    +0.000 C 
ATOM     11  C   UNL     1      10.963  11.456  18.419  0.00  0.00    +0.000 C 
ENDBRANCH   7   9
ENDBRANCH   6   7
ENDBRANCH   5   6
ENDBRANCH   1   5
BRANCH   1  12
ATOM     12  C   UNL     1       6.736   5.208  18.258  0.00  0.00    +0.000 C 
BRANCH  12  13
ATOM     13  C   UNL     1       5.319   4.851  18.658  0.00  0.00    +0.000 A 
ATOM     14  C   UNL     1       4.508   5.786  19.320  0.00  0.00    +0.000 A 
ATOM     15  C   UNL     1       3.237   5.425  19.770  0.00  0.00    +0.000 A 
ATOM     16  C   UNL     1       2.772   4.130  19.562  0.00  0.00    +0.000 A 
ATOM     17 BR   UNL     1       1.052   3.641  20.175  0.00  0.00    +0.000 Br
ATOM     18  C   UNL     1       3.567   3.188  18.910  0.00  0.00    +0.000 A 
ATOM     19  C   UNL     1       4.839   3.548  18.461  0.00  0.00    +0.000 A 
ENDBRANCH  12  13
ENDBRANCH   1  12
TORSDOF 7
ENDMDL
MODEL 4
REMARK VINA RESULT:      -5.6      4.527      6.482
REMARK  Name = 
REMARK  10 active torsions:
REMARK  status: ('A' for Active; 'I' for Inactive)
REMARK    1  A    between atoms: C_1  and  N_2
REMARK    2  A    between atoms: N_2  and  C_3
REMARK    3  A    between atoms: N_2  and  C_4
REMARK    4  A    between atoms: N_2  and  C_5
REMARK    5  A    between atoms: C_5  and  C_6
REMARK    6  A    between atoms: C_6  and  O_7
REMARK    7  A    between atoms: O_7  and  P_8
REMARK    8  A    between atoms: P_8  and  O_10
REMARK    9  A    between atoms: P_8  and  C_11
REMARK   10  A    between atoms: C_11  and  C_12
REMARK                            x       y       z     vdW  Elec       q    Type
REMARK                         _______ _______ _______ _____ _____    ______ ____
ROOT
ATOM      1  P   UNL     1       6.938   5.314  16.770  0.00  0.00    +0.000 P 
ATOM      2  O   UNL     1       8.045   4.338  17.194  0.00  0.00    +0.000 OA
ENDROOT
BRANCH   1   3
ATOM      3  O   UNL     1       7.656   6.784  16.723  0.00  0.00    +0.000 OA
ATOM      4  H   UNL     1       7.853   7.041  15.800  0.00  0.00    +0.000 HD
ENDBRANCH   1   3
BRANCH   1   5
ATOM      5  O   UNL     1       7.441   5.140  15.124  0.00  0.00    +0.000 OA
BRANCH   5   6
ATOM      6  C   UNL     1       6.332   4.996  14.248  0.00  0.00    +0.000 C 
BRANCH   6   7
ATOM      7  C   UNL     1       6.221   3.554  13.750  0.00  0.00    +0.000 C 
BRANCH   7   9
ATOM      8  C   UNL     1       4.747   3.658  11.761  0.00  0.00    +0.000 C 
ATOM      9  N   UNL     1       6.181   3.396  12.214  0.00  0.00    +0.000 N 
ATOM     10  C   UNL     1       6.594   1.996  11.785  0.00  0.00    +0.000 C 
ATOM     11  C   UNL     1       7.096   4.413  11.526  0.00  0.00    +0.000 C 
ENDBRANCH   7   9
ENDBRANCH   6   7
ENDBRANCH   5   6
ENDBRANCH   1   5
BRANCH   1  12
ATOM     12  C   UNL     1       6.405   5.498  18.511  0.00  0.00    +0.000 C 
BRANCH  12  13
ATOM     13  C   UNL     1       5.045   4.971  18.920  0.00  0.00    +0.000 A 
ATOM     14  C   UNL     1       3.948   5.839  19.027  0.00  0.00    +0.000 A 
ATOM     15  C   UNL     1       2.718   5.369  19.494  0.00  0.00    +0.000 A 
ATOM     16  C   UNL     1       2.582   4.032  19.856  0.00  0.00    +0.000 A 
ATOM     17 BR   UNL     1       0.918   3.398  20.490  0.00  0.00    +0.000 Br
ATOM     18  C   UNL     1       3.664   3.158  19.760  0.00  0.00    +0.000 A 
ATOM     19  C   UNL     1       4.894   3.628  19.295  0.00  0.00    +0.000 A 
ENDBRANCH  12  13
ENDBRANCH   1  12
TORSDOF 7
ENDMDL
MODEL 5
REMARK VINA RESULT:      -5.6      0.770      1.569
REMARK  Name = 
REMARK  10 active torsions:
REMARK  status: ('A' for Active; 'I' for Inactive)
REMARK    1  A    between atoms: C_1  and  N_2
REMARK    2  A    between atoms: N_2  and  C_3
REMARK    3  A    between atoms: N_2  and  C_4
REMARK    4  A    between atoms: N_2  and  C_5
REMARK    5  A    between atoms: C_5  and  C_6
REMARK    6  A    between atoms: C_6  and  O_7
REMARK    7  A    between atoms: O_7  and  P_8
REMARK    8  A    between atoms: P_8  and  O_10
REMARK    9  A    between atoms: P_8  and  C_11
REMARK   10  A    between atoms: C_11  and  C_12
REMARK                            x       y       z     vdW  Elec       q    Type
REMARK                         _______ _______ _______ _____ _____    ______ ____
ROOT
ATOM      1  P   UNL     1       7.110   6.748  17.677  0.00  0.00    +0.000 P 
ATOM      2  O   UNL     1       7.781   6.205  16.408  0.00  0.00    +0.000 OA
ENDROOT
BRANCH   1   3
ATOM      3  O   UNL     1       8.318   6.899  18.771  0.00  0.00    +0.000 OA
ATOM      4  H   UNL     1       9.183   6.712  18.357  0.00  0.00    +0.000 HD
ENDBRANCH   1   3
BRANCH   1   5
ATOM      5  O   UNL     1       7.512   8.355  17.178  0.00  0.00    +0.000 OA
BRANCH   5   6
ATOM      6  C   UNL     1       8.243   9.049  18.180  0.00  0.00    +0.000 C 
BRANCH   6   7
ATOM      7  C   UNL     1       8.316  10.541  17.858  0.00  0.00    +0.000 C 
BRANCH   7   9
ATOM      8  C   UNL     1      10.659  11.349  17.817  0.00  0.00    +0.000 C 
ATOM      9  N   UNL     1       9.382  11.328  18.653  0.00  0.00    +0.000 N 
ATOM     10  C   UNL     1       9.674  10.676  19.996  0.00  0.00    +0.000 C 
ATOM     11  C   UNL     1       8.941  12.775  18.893  0.00  0.00    +0.000 C 
ENDBRANCH   7   9
ENDBRANCH   6   7
ENDBRANCH   5   6
ENDBRANCH   1   5
BRANCH   1  12
ATOM     12  C   UNL     1       6.684   5.048  18.204  0.00  0.00    +0.000 C 
BRANCH  12  13
ATOM     13  C   UNL     1       5.267   4.753  18.650  0.00  0.00    +0.000 A 
ATOM     14  C   UNL     1       4.487   5.752  19.251  0.00  0.00    +0.000 A 
ATOM     15  C   UNL     1       3.215   5.454  19.745  0.00  0.00    +0.000 A 
ATOM     16  C   UNL     1       2.720   4.157  19.641  0.00  0.00    +0.000 A 
ATOM     17 BR   UNL     1       0.999   3.754  20.312  0.00  0.00    +0.000 Br
ATOM     18  C   UNL     1       3.485   3.152  19.050  0.00  0.00    +0.000 A 
ATOM     19  C   UNL     1       4.757   3.450  18.558  0.00  0.00    +0.000 A 
ENDBRANCH  12  13
ENDBRANCH   1  12
TORSDOF 7
ENDMDL
MODEL 6
REMARK VINA RESULT:      -5.6      4.941      7.200
REMARK  Name = 
REMARK  10 active torsions:
REMARK  status: ('A' for Active; 'I' for Inactive)
REMARK    1  A    between atoms: C_1  and  N_2
REMARK    2  A    between atoms: N_2  and  C_3
REMARK    3  A    between atoms: N_2  and  C_4
REMARK    4  A    between atoms: N_2  and  C_5
REMARK    5  A    between atoms: C_5  and  C_6
REMARK    6  A    between atoms: C_6  and  O_7
REMARK    7  A    between atoms: O_7  and  P_8
REMARK    8  A    between atoms: P_8  and  O_10
REMARK    9  A    between atoms: P_8  and  C_11
REMARK   10  A    between atoms: C_11  and  C_12
REMARK                            x       y       z     vdW  Elec       q    Type
REMARK                         _______ _______ _______ _____ _____    ______ ____
ROOT
ATOM      1  P   UNL     1       6.668   5.268  17.922  0.00  0.00    +0.000 P 
ATOM      2  O   UNL     1       7.461   6.399  18.590  0.00  0.00    +0.000 OA
ENDROOT
BRANCH   1   3
ATOM      3  O   UNL     1       7.691   3.991  17.881  0.00  0.00    +0.000 OA
ATOM      4  H   UNL     1       8.527   4.206  18.340  0.00  0.00    +0.000 HD
ENDBRANCH   1   3
BRANCH   1   5
ATOM      5  O   UNL     1       6.200   4.698  19.488  0.00  0.00    +0.000 OA
BRANCH   5   6
ATOM      6  C   UNL     1       5.095   3.808  19.414  0.00  0.00    +0.000 C 
BRANCH   6   7
ATOM      7  C   UNL     1       3.946   4.437  18.626  0.00  0.00    +0.000 C 
BRANCH   7   9
ATOM      8  C   UNL     1       2.179   3.302  19.942  0.00  0.00    +0.000 C 
ATOM      9  N   UNL     1       2.674   3.567  18.522  0.00  0.00    +0.000 N 
ATOM     10  C   UNL     1       2.957   2.240  17.834  0.00  0.00    +0.000 C 
ATOM     11  C   UNL     1       1.565   4.294  17.755  0.00  0.00    +0.000 C 
ENDBRANCH   7   9
ENDBRANCH   6   7
ENDBRANCH   5   6
ENDBRANCH   1   5
BRANCH   1  12
ATOM     12  C   UNL     1       7.162   5.870  16.267  0.00  0.00    +0.000 C 
BRANCH  12  13
ATOM     13  C   UNL     1       6.687   5.117  15.041  0.00  0.00    +0.000 A 
ATOM     14  C   UNL     1       5.493   4.380  15.077  0.00  0.00    +0.000 A 
ATOM     15  C   UNL     1       5.104   3.612  13.978  0.00  0.00    +0.000 A 
ATOM     16  C   UNL     1       5.906   3.576  12.841  0.00  0.00    +0.000 A 
ATOM     17 BR   UNL     1       5.380   2.534  11.354  0.00  0.00    +0.000 Br
ATOM     18  C   UNL     1       7.097   4.299  12.792  0.00  0.00    +0.000 A 
ATOM     19  C   UNL     1       7.487   5.066  13.891  0.00  0.00    +0.000 A 
ENDBRANCH  12  13
ENDBRANCH   1  12
TORSDOF 7
ENDMDL
MODEL 7
REMARK VINA RESULT:      -5.5      5.324      7.441
REMARK  Name = 
REMARK  10 active torsions:
REMARK  status: ('A' for Active; 'I' for Inactive)
REMARK    1  A    between atoms: C_1  and  N_2
REMARK    2  A    between atoms: N_2  and  C_3
REMARK    3  A    between atoms: N_2  and  C_4
REMARK    4  A    between atoms: N_2  and  C_5
REMARK    5  A    between atoms: C_5  and  C_6
REMARK    6  A    between atoms: C_6  and  O_7
REMARK    7  A    between atoms: O_7  and  P_8
REMARK    8  A    between atoms: P_8  and  O_10
REMARK    9  A    between atoms: P_8  and  C_11
REMARK   10  A    between atoms: C_11  and  C_12
REMARK                            x       y       z     vdW  Elec       q    Type
REMARK                         _______ _______ _______ _____ _____    ______ ____
ROOT
ATOM      1  P   UNL     1       4.962   4.788  18.585  0.00  0.00    +0.000 P 
ATOM      2  O   UNL     1       6.064   5.568  19.316  0.00  0.00    +0.000 OA
ENDROOT
BRANCH   1   3
ATOM      3  O   UNL     1       5.702   4.108  17.294  0.00  0.00    +0.000 OA
ATOM      4  H   UNL     1       5.079   3.539  16.801  0.00  0.00    +0.000 HD
ENDBRANCH   1   3
BRANCH   1   5
ATOM      5  O   UNL     1       5.419   3.365  19.456  0.00  0.00    +0.000 OA
BRANCH   5   6
ATOM      6  C   UNL     1       4.285   2.638  19.906  0.00  0.00    +0.000 C 
BRANCH   6   7
ATOM      7  C   UNL     1       3.063   3.551  20.007  0.00  0.00    +0.000 C 
BRANCH   7   9
ATOM      8  C   UNL     1       2.100   1.625  18.780  0.00  0.00    +0.000 C 
ATOM      9  N   UNL     1       1.804   3.040  19.273  0.00  0.00    +0.000 N 
ATOM     10  C   UNL     1       1.453   3.921  18.083  0.00  0.00    +0.000 C 
ATOM     11  C   UNL     1       0.598   2.978  20.214  0.00  0.00    +0.000 C 
ENDBRANCH   7   9
ENDBRANCH   6   7
ENDBRANCH   5   6
ENDBRANCH   1   5
BRANCH   1  12
ATOM     12  C   UNL     1       4.479   6.294  17.665  0.00  0.00    +0.000 C 
BRANCH  12  13
ATOM     13  C   UNL     1       3.353   7.152  18.204  0.00  0.00    +0.000 A 
ATOM     14  C   UNL     1       2.900   8.269  17.483  0.00  0.00    +0.000 A 
ATOM     15  C   UNL     1       1.928   9.112  18.024  0.00  0.00    +0.000 A 
ATOM     16  C   UNL     1       1.404   8.843  19.286  0.00  0.00    +0.000 A 
ATOM     17 BR   UNL     1       0.089   9.986  20.019  0.00  0.00    +0.000 Br
ATOM     18  C   UNL     1       1.847   7.741  20.016  0.00  0.00    +0.000 A 
ATOM     19  C   UNL     1       2.821   6.899  19.476  0.00  0.00    +0.000 A 
ENDBRANCH  12  13
ENDBRANCH   1  12
TORSDOF 7
ENDMDL
MODEL 8
REMARK VINA RESULT:      -5.5      4.845      7.066
REMARK  Name = 
REMARK  10 active torsions:
REMARK  status: ('A' for Active; 'I' for Inactive)
REMARK    1  A    between atoms: C_1  and  N_2
REMARK    2  A    between atoms: N_2  and  C_3
REMARK    3  A    between atoms: N_2  and  C_4
REMARK    4  A    between atoms: N_2  and  C_5
REMARK    5  A    between atoms: C_5  and  C_6
REMARK    6  A    between atoms: C_6  and  O_7
REMARK    7  A    between atoms: O_7  and  P_8
REMARK    8  A    between atoms: P_8  and  O_10
REMARK    9  A    between atoms: P_8  and  C_11
REMARK   10  A    between atoms: C_11  and  C_12
REMARK                            x       y       z     vdW  Elec       q    Type
REMARK                         _______ _______ _______ _____ _____    ______ ____
ROOT
ATOM      1  P   UNL     1       6.574   5.546  18.029  0.00  0.00    +0.000 P 
ATOM      2  O   UNL     1       7.521   6.558  18.688  0.00  0.00    +0.000 OA
ENDROOT
BRANCH   1   3
ATOM      3  O   UNL     1       7.304   4.093  18.211  0.00  0.00    +0.000 OA
ATOM      4  H   UNL     1       8.227   4.207  18.512  0.00  0.00    +0.000 HD
ENDBRANCH   1   3
BRANCH   1   5
ATOM      5  O   UNL     1       5.850   5.249  19.572  0.00  0.00    +0.000 OA
BRANCH   5   6
ATOM      6  C   UNL     1       4.436   5.388  19.524  0.00  0.00    +0.000 C 
BRANCH   6   7
ATOM      7  C   UNL     1       3.865   4.678  18.297  0.00  0.00    +0.000 C 
BRANCH   7   9
ATOM      8  C   UNL     1       3.402   2.272  17.919  0.00  0.00    +0.000 C 
ATOM      9  N   UNL     1       2.878   3.531  18.608  0.00  0.00    +0.000 N 
ATOM     10  C   UNL     1       1.481   3.839  18.091  0.00  0.00    +0.000 C 
ATOM     11  C   UNL     1       2.799   3.257  20.112  0.00  0.00    +0.000 C 
ENDBRANCH   7   9
ENDBRANCH   6   7
ENDBRANCH   5   6
ENDBRANCH   1   5
BRANCH   1  12
ATOM     12  C   UNL     1       7.340   5.861  16.397  0.00  0.00    +0.000 C 
BRANCH  12  13
ATOM     13  C   UNL     1       6.797   5.137  15.182  0.00  0.00    +0.000 A 
ATOM     14  C   UNL     1       5.612   4.391  15.268  0.00  0.00    +0.000 A 
ATOM     15  C   UNL     1       5.163   3.649  14.173  0.00  0.00    +0.000 A 
ATOM     16  C   UNL     1       5.897   3.650  12.990  0.00  0.00    +0.000 A 
ATOM     17 BR   UNL     1       5.290   2.644  11.509  0.00  0.00    +0.000 Br
ATOM     18  C   UNL     1       7.079   4.383  12.890  0.00  0.00    +0.000 A 
ATOM     19  C   UNL     1       7.529   5.123  13.986  0.00  0.00    +0.000 A 
ENDBRANCH  12  13
ENDBRANCH   1  12
TORSDOF 7
ENDMDL
MODEL 9
REMARK VINA RESULT:      -5.5      4.955      6.486
REMARK  Name = 
REMARK  10 active torsions:
REMARK  status: ('A' for Active; 'I' for Inactive)
REMARK    1  A    between atoms: C_1  and  N_2
REMARK    2  A    between atoms: N_2  and  C_3
REMARK    3  A    between atoms: N_2  and  C_4
REMARK    4  A    between atoms: N_2  and  C_5
REMARK    5  A    between atoms: C_5  and  C_6
REMARK    6  A    between atoms: C_6  and  O_7
REMARK    7  A    between atoms: O_7  and  P_8
REMARK    8  A    between atoms: P_8  and  O_10
REMARK    9  A    between atoms: P_8  and  C_11
REMARK   10  A    between atoms: C_11  and  C_12
REMARK                            x       y       z     vdW  Elec       q    Type
REMARK                         _______ _______ _______ _____ _____    ______ ____
ROOT
ATOM      1  P   UNL     1       2.948   4.084  19.149  0.00  0.00    +0.000 P 
ATOM      2  O   UNL     1       1.514   3.710  18.747  0.00  0.00    +0.000 OA
ENDROOT
BRANCH   1   3
ATOM      3  O   UNL     1       3.395   2.955  20.246  0.00  0.00    +0.000 OA
ATOM      4  H   UNL     1       3.207   3.263  21.154  0.00  0.00    +0.000 HD
ENDBRANCH   1   3
BRANCH   1   5
ATOM      5  O   UNL     1       3.548   2.993  17.948  0.00  0.00    +0.000 OA
BRANCH   5   6
ATOM      6  C   UNL     1       4.483   3.626  17.084  0.00  0.00    +0.000 C 
BRANCH   6   7
ATOM      7  C   UNL     1       5.195   4.771  17.805  0.00  0.00    +0.000 C 
BRANCH   7   9
ATOM      8  C   UNL     1       7.671   4.667  17.785  0.00  0.00    +0.000 C 
ATOM      9  N   UNL     1       6.462   5.298  17.097  0.00  0.00    +0.000 N 
ATOM     10  C   UNL     1       6.567   6.813  17.192  0.00  0.00    +0.000 C 
ATOM     11  C   UNL     1       6.484   4.894  15.621  0.00  0.00    +0.000 C 
ENDBRANCH   7   9
ENDBRANCH   6   7
ENDBRANCH   5   6
ENDBRANCH   1   5
BRANCH   1  12
ATOM     12  C   UNL     1       2.312   5.238  20.419  0.00  0.00    +0.000 C 
BRANCH  12  13
ATOM     13  C   UNL     1       2.061   6.682  20.037  0.00  0.00    +0.000 A 
ATOM     14  C   UNL     1       1.393   7.547  20.918  0.00  0.00    +0.000 A 
ATOM     15  C   UNL     1       1.080   8.850  20.527  0.00  0.00    +0.000 A 
ATOM     16  C   UNL     1       1.432   9.294  19.255  0.00  0.00    +0.000 A 
ATOM     17 BR   UNL     1       1.005  11.058  18.726  0.00  0.00    +0.000 Br
ATOM     18  C   UNL     1       2.091   8.446  18.367  0.00  0.00    +0.000 A 
ATOM     19  C   UNL     1       2.403   7.141  18.757  0.00  0.00    +0.000 A 
ENDBRANCH  12  13
ENDBRANCH   1  12
TORSDOF 7
ENDMDL
