MODEL 1
REMARK VINA RESULT:      -8.3      0.000      0.000
REMARK  Name = 
REMARK  5 active torsions:
REMARK  status: ('A' for Active; 'I' for Inactive)
REMARK    1  A    between atoms: C_2  and  C_3
REMARK    2  A    between atoms: C_3  and  O_4
REMARK    3  A    between atoms: O_4  and  C_5
REMARK    4  A    between atoms: C_8  and  N_9
REMARK    5  A    between atoms: N_16  and  C_17
REMARK                            x       y       z     vdW  Elec       q    Type
REMARK                         _______ _______ _______ _____ _____    ______ ____
ROOT
ATOM      1  O   UNL     1       0.712   4.849  20.381  0.00  0.00    +0.000 OA
ATOM      2  C   UNL     1       1.913   5.048  20.570  0.00  0.00    +0.000 C 
ATOM      3  N   UNL     1       2.556   6.258  20.406  0.00  0.00    +0.000 N 
ATOM      4  H   UNL     1       3.574   6.237  20.375  0.00  0.00    +0.000 HD
ENDROOT
BRANCH   3   5
ATOM      5  C   UNL     1       1.927   7.504  20.173  0.00  0.00    +0.000 A 
ATOM      6  C   UNL     1       1.239   8.203  21.174  0.00  0.00    +0.000 A 
ATOM      7  C   UNL     1       0.664   9.449  20.910  0.00  0.00    +0.000 A 
ATOM      8  C   UNL     1       0.771  10.000  19.639  0.00  0.00    +0.000 A 
ATOM      9  F   UNL     1       0.221  11.197  19.397  0.00  0.00    +0.000 F 
ATOM     10  C   UNL     1       1.446   9.320  18.634  0.00  0.00    +0.000 A 
ATOM     11  F   UNL     1       1.538   9.856  17.409  0.00  0.00    +0.000 F 
ATOM     12  C   UNL     1       2.028   8.084  18.904  0.00  0.00    +0.000 A 
ATOM     13  F   UNL     1       2.677   7.431  17.925  0.00  0.00    +0.000 F 
ENDBRANCH   3   5
BRANCH   2  14
ATOM     14  C   UNL     1       2.798   3.897  21.039  0.00  0.00    +0.000 C 
BRANCH  14  15
ATOM     15  O   UNL     1       3.092   2.930  20.039  0.00  0.00    +0.000 OA
BRANCH  15  16
ATOM     16  C   UNL     1       3.911   3.393  19.038  0.00  0.00    +0.000 A 
ATOM     17  C   UNL     1       3.388   3.313  17.748  0.00  0.00    +0.000 A 
ATOM     18  C   UNL     1       4.145   3.720  16.645  0.00  0.00    +0.000 A 
ATOM     19  C   UNL     1       5.437   4.226  16.830  0.00  0.00    +0.000 A 
ATOM     20  C   UNL     1       5.946   4.351  18.129  0.00  0.00    +0.000 A 
ATOM     21  C   UNL     1       5.183   3.939  19.226  0.00  0.00    +0.000 A 
BRANCH  19  22
ATOM     22  N   UNL     1       6.243   4.598  15.727  0.00  0.00    +0.000 N 
ATOM     23  C   UNL     1       6.188   4.171  14.424  0.00  0.00    +0.000 A 
ATOM     24  N   UNL     1       7.153   4.739  13.738  0.00  0.00    +0.000 NA
ATOM     25  N   UNL     1       7.817   5.542  14.627  0.00  0.00    +0.000 NA
ATOM     26  N   UNL     1       7.271   5.471  15.834  0.00  0.00    +0.000 NA
ENDBRANCH  19  22
ENDBRANCH  15  16
ENDBRANCH  14  15
ENDBRANCH   2  14
TORSDOF 5
ENDMDL
MODEL 2
REMARK VINA RESULT:      -8.1      1.057      1.621
REMARK  Name = 
REMARK  5 active torsions:
REMARK  status: ('A' for Active; 'I' for Inactive)
REMARK    1  A    between atoms: C_2  and  C_3
REMARK    2  A    between atoms: C_3  and  O_4
REMARK    3  A    between atoms: O_4  and  C_5
REMARK    4  A    between atoms: C_8  and  N_9
REMARK    5  A    between atoms: N_16  and  C_17
REMARK                            x       y       z     vdW  Elec       q    Type
REMARK                         _______ _______ _______ _____ _____    ______ ____
ROOT
ATOM      1  O   UNL     1       1.597   4.702  18.655  0.00  0.00    +0.000 OA
ATOM      2  C   UNL     1       2.594   4.910  19.350  0.00  0.00    +0.000 C 
ATOM      3  N   UNL     1       2.968   6.137  19.860  0.00  0.00    +0.000 N 
ATOM      4  H   UNL     1       3.916   6.213  20.221  0.00  0.00    +0.000 HD
ENDROOT
BRANCH   3   5
ATOM      5  C   UNL     1       2.189   7.317  19.829  0.00  0.00    +0.000 A 
ATOM      6  C   UNL     1       1.439   7.758  20.928  0.00  0.00    +0.000 A 
ATOM      7  C   UNL     1       0.713   8.950  20.866  0.00  0.00    +0.000 A 
ATOM      8  C   UNL     1       0.731   9.706  19.701  0.00  0.00    +0.000 A 
ATOM      9  F   UNL     1       0.037  10.851  19.653  0.00  0.00    +0.000 F 
ATOM     10  C   UNL     1       1.466   9.284  18.601  0.00  0.00    +0.000 A 
ATOM     11  F   UNL     1       1.472  10.017  17.479  0.00  0.00    +0.000 F 
ATOM     12  C   UNL     1       2.198   8.101  18.670  0.00  0.00    +0.000 A 
ATOM     13  F   UNL     1       2.905   7.697  17.601  0.00  0.00    +0.000 F 
ENDBRANCH   3   5
BRANCH   2  14
ATOM     14  C   UNL     1       3.508   3.744  19.714  0.00  0.00    +0.000 C 
BRANCH  14  15
ATOM     15  O   UNL     1       4.898   4.018  19.584  0.00  0.00    +0.000 OA
BRANCH  15  16
ATOM     16  C   UNL     1       5.331   4.101  18.284  0.00  0.00    +0.000 A 
ATOM     17  C   UNL     1       6.571   4.713  18.100  0.00  0.00    +0.000 A 
ATOM     18  C   UNL     1       7.098   4.887  16.817  0.00  0.00    +0.000 A 
ATOM     19  C   UNL     1       6.385   4.434  15.700  0.00  0.00    +0.000 A 
ATOM     20  C   UNL     1       5.162   3.777  15.885  0.00  0.00    +0.000 A 
ATOM     21  C   UNL     1       4.642   3.610  17.172  0.00  0.00    +0.000 A 
BRANCH  19  22
ATOM     22  N   UNL     1       6.873   4.643  14.387  0.00  0.00    +0.000 N 
ATOM     23  C   UNL     1       6.520   4.019  13.217  0.00  0.00    +0.000 A 
ATOM     24  N   UNL     1       7.253   4.488  12.234  0.00  0.00    +0.000 NA
ATOM     25  N   UNL     1       8.073   5.429  12.799  0.00  0.00    +0.000 NA
ATOM     26  N   UNL     1       7.848   5.537  14.102  0.00  0.00    +0.000 NA
ENDBRANCH  19  22
ENDBRANCH  15  16
ENDBRANCH  14  15
ENDBRANCH   2  14
TORSDOF 5
ENDMDL
MODEL 3
REMARK VINA RESULT:      -7.8      0.881      1.383
REMARK  Name = 
REMARK  5 active torsions:
REMARK  status: ('A' for Active; 'I' for Inactive)
REMARK    1  A    between atoms: C_2  and  C_3
REMARK    2  A    between atoms: C_3  and  O_4
REMARK    3  A    between atoms: O_4  and  C_5
REMARK    4  A    between atoms: C_8  and  N_9
REMARK    5  A    between atoms: N_16  and  C_17
REMARK                            x       y       z     vdW  Elec       q    Type
REMARK                         _______ _______ _______ _____ _____    ______ ____
ROOT
ATOM      1  O   UNL     1       0.728   4.446  19.865  0.00  0.00    +0.000 OA
ATOM      2  C   UNL     1       1.684   4.639  20.619  0.00  0.00    +0.000 C 
ATOM      3  N   UNL     1       2.323   5.849  20.800  0.00  0.00    +0.000 N 
ATOM      4  H   UNL     1       3.226   5.825  21.270  0.00  0.00    +0.000 HD
ENDROOT
BRANCH   3   5
ATOM      5  C   UNL     1       1.885   7.099  20.302  0.00  0.00    +0.000 A 
ATOM      6  C   UNL     1       1.154   8.009  21.077  0.00  0.00    +0.000 A 
ATOM      7  C   UNL     1       0.774   9.248  20.556  0.00  0.00    +0.000 A 
ATOM      8  C   UNL     1       1.121   9.581  19.253  0.00  0.00    +0.000 A 
ATOM      9  F   UNL     1       0.757  10.774  18.763  0.00  0.00    +0.000 F 
ATOM     10  C   UNL     1       1.842   8.691  18.469  0.00  0.00    +0.000 A 
ATOM     11  F   UNL     1       2.166   9.018  17.210  0.00  0.00    +0.000 F 
ATOM     12  C   UNL     1       2.229   7.461  18.995  0.00  0.00    +0.000 A 
ATOM     13  F   UNL     1       2.925   6.603  18.229  0.00  0.00    +0.000 F 
ENDBRANCH   3   5
BRANCH   2  14
ATOM     14  C   UNL     1       2.229   3.481  21.449  0.00  0.00    +0.000 C 
BRANCH  14  15
ATOM     15  O   UNL     1       2.866   2.458  20.694  0.00  0.00    +0.000 OA
BRANCH  15  16
ATOM     16  C   UNL     1       3.564   2.921  19.607  0.00  0.00    +0.000 A 
ATOM     17  C   UNL     1       4.712   3.658  19.899  0.00  0.00    +0.000 A 
ATOM     18  C   UNL     1       5.484   4.212  18.873  0.00  0.00    +0.000 A 
ATOM     19  C   UNL     1       5.116   4.020  17.537  0.00  0.00    +0.000 A 
ATOM     20  C   UNL     1       3.990   3.240  17.239  0.00  0.00    +0.000 A 
ATOM     21  C   UNL     1       3.222   2.692  18.272  0.00  0.00    +0.000 A 
BRANCH  19  22
ATOM     22  N   UNL     1       5.851   4.611  16.481  0.00  0.00    +0.000 N 
ATOM     23  C   UNL     1       7.187   4.506  16.183  0.00  0.00    +0.000 A 
ATOM     24  N   UNL     1       7.462   5.257  15.142  0.00  0.00    +0.000 NA
ATOM     25  N   UNL     1       6.275   5.835  14.778  0.00  0.00    +0.000 NA
ATOM     26  N   UNL     1       5.290   5.447  15.577  0.00  0.00    +0.000 NA
ENDBRANCH  19  22
ENDBRANCH  15  16
ENDBRANCH  14  15
ENDBRANCH   2  14
TORSDOF 5
ENDMDL
MODEL 4
REMARK VINA RESULT:      -7.8      6.568      7.447
REMARK  Name = 
REMARK  5 active torsions:
REMARK  status: ('A' for Active; 'I' for Inactive)
REMARK    1  A    between atoms: C_2  and  C_3
REMARK    2  A    between atoms: C_3  and  O_4
REMARK    3  A    between atoms: O_4  and  C_5
REMARK    4  A    between atoms: C_8  and  N_9
REMARK    5  A    between atoms: N_16  and  C_17
REMARK                            x       y       z     vdW  Elec       q    Type
REMARK                         _______ _______ _______ _____ _____    ______ ____
ROOT
ATOM      1  O   UNL     1       7.739   9.952  17.605  0.00  0.00    +0.000 OA
ATOM      2  C   UNL     1       8.393   9.139  18.260  0.00  0.00    +0.000 C 
ATOM      3  N   UNL     1       9.378   9.458  19.173  0.00  0.00    +0.000 N 
ATOM      4  H   UNL     1       9.988   8.700  19.474  0.00  0.00    +0.000 HD
ENDROOT
BRANCH   3   5
ATOM      5  C   UNL     1       9.678  10.758  19.645  0.00  0.00    +0.000 A 
ATOM      6  C   UNL     1       9.325  11.198  20.928  0.00  0.00    +0.000 A 
ATOM      7  C   UNL     1       9.674  12.478  21.366  0.00  0.00    +0.000 A 
ATOM      8  C   UNL     1      10.377  13.326  20.519  0.00  0.00    +0.000 A 
ATOM      9  F   UNL     1      10.712  14.549  20.950  0.00  0.00    +0.000 F 
ATOM     10  C   UNL     1      10.733  12.909  19.244  0.00  0.00    +0.000 A 
ATOM     11  F   UNL     1      11.405  13.737  18.432  0.00  0.00    +0.000 F 
ATOM     12  C   UNL     1      10.393  11.628  18.814  0.00  0.00    +0.000 A 
ATOM     13  F   UNL     1      10.739  11.232  17.578  0.00  0.00    +0.000 F 
ENDBRANCH   3   5
BRANCH   2  14
ATOM     14  C   UNL     1       8.116   7.647  18.093  0.00  0.00    +0.000 C 
BRANCH  14  15
ATOM     15  O   UNL     1       7.503   7.293  16.860  0.00  0.00    +0.000 OA
BRANCH  15  16
ATOM     16  C   UNL     1       6.453   6.419  16.990  0.00  0.00    +0.000 A 
ATOM     17  C   UNL     1       5.220   7.000  17.285  0.00  0.00    +0.000 A 
ATOM     18  C   UNL     1       4.085   6.205  17.477  0.00  0.00    +0.000 A 
ATOM     19  C   UNL     1       4.176   4.814  17.362  0.00  0.00    +0.000 A 
ATOM     20  C   UNL     1       5.404   4.231  17.019  0.00  0.00    +0.000 A 
ATOM     21  C   UNL     1       6.534   5.033  16.832  0.00  0.00    +0.000 A 
BRANCH  19  22
ATOM     22  N   UNL     1       3.054   3.983  17.601  0.00  0.00    +0.000 N 
ATOM     23  C   UNL     1       2.985   2.616  17.692  0.00  0.00    +0.000 A 
ATOM     24  N   UNL     1       1.737   2.254  17.878  0.00  0.00    +0.000 NA
ATOM     25  N   UNL     1       1.015   3.417  17.913  0.00  0.00    +0.000 NA
ATOM     26  N   UNL     1       1.802   4.472  17.753  0.00  0.00    +0.000 NA
ENDBRANCH  19  22
ENDBRANCH  15  16
ENDBRANCH  14  15
ENDBRANCH   2  14
TORSDOF 5
ENDMDL
MODEL 5
REMARK VINA RESULT:      -7.6      7.559      9.064
REMARK  Name = 
REMARK  5 active torsions:
REMARK  status: ('A' for Active; 'I' for Inactive)
REMARK    1  A    between atoms: C_2  and  C_3
REMARK    2  A    between atoms: C_3  and  O_4
REMARK    3  A    between atoms: O_4  and  C_5
REMARK    4  A    between atoms: C_8  and  N_9
REMARK    5  A    between atoms: N_16  and  C_17
REMARK                            x       y       z     vdW  Elec       q    Type
REMARK                         _______ _______ _______ _____ _____    ______ ____
ROOT
ATOM      1  O   UNL     1       8.209   6.891  18.612  0.00  0.00    +0.000 OA
ATOM      2  C   UNL     1       7.699   7.752  17.892  0.00  0.00    +0.000 C 
ATOM      3  N   UNL     1       6.608   7.559  17.069  0.00  0.00    +0.000 N 
ATOM      4  H   UNL     1       6.429   8.275  16.368  0.00  0.00    +0.000 HD
ENDROOT
BRANCH   3   5
ATOM      5  C   UNL     1       5.783   6.409  17.046  0.00  0.00    +0.000 A 
ATOM      6  C   UNL     1       4.546   6.352  17.703  0.00  0.00    +0.000 A 
ATOM      7  C   UNL     1       3.747   5.209  17.622  0.00  0.00    +0.000 A 
ATOM      8  C   UNL     1       4.183   4.115  16.886  0.00  0.00    +0.000 A 
ATOM      9  F   UNL     1       3.407   3.026  16.810  0.00  0.00    +0.000 F 
ATOM     10  C   UNL     1       5.406   4.153  16.230  0.00  0.00    +0.000 A 
ATOM     11  F   UNL     1       5.823   3.089  15.528  0.00  0.00    +0.000 F 
ATOM     12  C   UNL     1       6.196   5.297  16.303  0.00  0.00    +0.000 A 
ATOM     13  F   UNL     1       7.380   5.326  15.669  0.00  0.00    +0.000 F 
ENDBRANCH   3   5
BRANCH   2  14
ATOM     14  C   UNL     1       8.278   9.163  17.889  0.00  0.00    +0.000 C 
BRANCH  14  15
ATOM     15  O   UNL     1       9.015   9.504  19.056  0.00  0.00    +0.000 OA
BRANCH  15  16
ATOM     16  C   UNL     1       9.549  10.769  19.029  0.00  0.00    +0.000 A 
ATOM     17  C   UNL     1       9.142  11.571  17.963  0.00  0.00    +0.000 A 
ATOM     18  C   UNL     1       9.649  12.866  17.811  0.00  0.00    +0.000 A 
ATOM     19  C   UNL     1      10.565  13.373  18.739  0.00  0.00    +0.000 A 
ATOM     20  C   UNL     1      10.939  12.586  19.836  0.00  0.00    +0.000 A 
ATOM     21  C   UNL     1      10.429  11.292  19.980  0.00  0.00    +0.000 A 
BRANCH  19  22
ATOM     22  N   UNL     1      11.132  14.661  18.580  0.00  0.00    +0.000 N 
ATOM     23  C   UNL     1      12.045  15.104  17.657  0.00  0.00    +0.000 A 
ATOM     24  N   UNL     1      12.333  16.362  17.897  0.00  0.00    +0.000 NA
ATOM     25  N   UNL     1      11.579  16.714  18.985  0.00  0.00    +0.000 NA
ATOM     26  N   UNL     1      10.842  15.695  19.404  0.00  0.00    +0.000 NA
ENDBRANCH  19  22
ENDBRANCH  15  16
ENDBRANCH  14  15
ENDBRANCH   2  14
TORSDOF 5
ENDMDL
MODEL 6
REMARK VINA RESULT:      -7.5      1.217      1.706
REMARK  Name = 
REMARK  5 active torsions:
REMARK  status: ('A' for Active; 'I' for Inactive)
REMARK    1  A    between atoms: C_2  and  C_3
REMARK    2  A    between atoms: C_3  and  O_4
REMARK    3  A    between atoms: O_4  and  C_5
REMARK    4  A    between atoms: C_8  and  N_9
REMARK    5  A    between atoms: N_16  and  C_17
REMARK                            x       y       z     vdW  Elec       q    Type
REMARK                         _______ _______ _______ _____ _____    ______ ____
ROOT
ATOM      1  O   UNL     1       1.389   4.734  18.614  0.00  0.00    +0.000 OA
ATOM      2  C   UNL     1       2.220   4.901  19.508  0.00  0.00    +0.000 C 
ATOM      3  N   UNL     1       2.729   6.121  19.905  0.00  0.00    +0.000 N 
ATOM      4  H   UNL     1       3.563   6.102  20.489  0.00  0.00    +0.000 HD
ENDROOT
BRANCH   3   5
ATOM      5  C   UNL     1       2.257   7.389  19.490  0.00  0.00    +0.000 A 
ATOM      6  C   UNL     1       2.511   7.910  18.215  0.00  0.00    +0.000 A 
ATOM      7  C   UNL     1       1.993   9.151  17.834  0.00  0.00    +0.000 A 
ATOM      8  C   UNL     1       1.222   9.879  18.731  0.00  0.00    +0.000 A 
ATOM      9  F   UNL     1       0.726  11.065  18.355  0.00  0.00    +0.000 F 
ATOM     10  C   UNL     1       0.963   9.379  20.000  0.00  0.00    +0.000 A 
ATOM     11  F   UNL     1       0.223  10.092  20.862  0.00  0.00    +0.000 F 
ATOM     12  C   UNL     1       1.471   8.137  20.373  0.00  0.00    +0.000 A 
ATOM     13  F   UNL     1       1.218   7.661  21.604  0.00  0.00    +0.000 F 
ENDBRANCH   3   5
BRANCH   2  14
ATOM     14  C   UNL     1       2.747   3.692  20.275  0.00  0.00    +0.000 C 
BRANCH  14  15
ATOM     15  O   UNL     1       4.164   3.568  20.284  0.00  0.00    +0.000 OA
BRANCH  15  16
ATOM     16  C   UNL     1       4.764   3.928  19.103  0.00  0.00    +0.000 A 
ATOM     17  C   UNL     1       4.269   3.298  17.961  0.00  0.00    +0.000 A 
ATOM     18  C   UNL     1       4.827   3.558  16.705  0.00  0.00    +0.000 A 
ATOM     19  C   UNL     1       5.885   4.466  16.583  0.00  0.00    +0.000 A 
ATOM     20  C   UNL     1       6.352   5.135  17.722  0.00  0.00    +0.000 A 
ATOM     21  C   UNL     1       5.790   4.868  18.974  0.00  0.00    +0.000 A 
BRANCH  19  22
ATOM     22  N   UNL     1       6.501   4.709  15.331  0.00  0.00    +0.000 N 
ATOM     23  C   UNL     1       6.232   4.154  14.105  0.00  0.00    +0.000 A 
ATOM     24  N   UNL     1       7.073   4.630  13.217  0.00  0.00    +0.000 NA
ATOM     25  N   UNL     1       7.877   5.505  13.899  0.00  0.00    +0.000 NA
ATOM     26  N   UNL     1       7.536   5.566  15.179  0.00  0.00    +0.000 NA
ENDBRANCH  19  22
ENDBRANCH  15  16
ENDBRANCH  14  15
ENDBRANCH   2  14
TORSDOF 5
ENDMDL
MODEL 7
REMARK VINA RESULT:      -7.4      1.248      1.614
REMARK  Name = 
REMARK  5 active torsions:
REMARK  status: ('A' for Active; 'I' for Inactive)
REMARK    1  A    between atoms: C_2  and  C_3
REMARK    2  A    between atoms: C_3  and  O_4
REMARK    3  A    between atoms: O_4  and  C_5
REMARK    4  A    between atoms: C_8  and  N_9
REMARK    5  A    between atoms: N_16  and  C_17
REMARK                            x       y       z     vdW  Elec       q    Type
REMARK                         _______ _______ _______ _____ _____    ______ ____
ROOT
ATOM      1  O   UNL     1       1.679   4.741  20.516  0.00  0.00    +0.000 OA
ATOM      2  C   UNL     1       2.697   5.207  20.001  0.00  0.00    +0.000 C 
ATOM      3  N   UNL     1       2.868   6.524  19.623  0.00  0.00    +0.000 N 
ATOM      4  H   UNL     1       3.656   6.728  19.013  0.00  0.00    +0.000 HD
ENDROOT
BRANCH   3   5
ATOM      5  C   UNL     1       1.989   7.591  19.925  0.00  0.00    +0.000 A 
ATOM      6  C   UNL     1       1.429   7.775  21.196  0.00  0.00    +0.000 A 
ATOM      7  C   UNL     1       0.595   8.865  21.459  0.00  0.00    +0.000 A 
ATOM      8  C   UNL     1       0.314   9.775  20.447  0.00  0.00    +0.000 A 
ATOM      9  F   UNL     1      -0.482  10.820  20.711  0.00  0.00    +0.000 F 
ATOM     10  C   UNL     1       0.858   9.608  19.181  0.00  0.00    +0.000 A 
ATOM     11  F   UNL     1       0.576  10.488  18.210  0.00  0.00    +0.000 F 
ATOM     12  C   UNL     1       1.698   8.527  18.925  0.00  0.00    +0.000 A 
ATOM     13  F   UNL     1       2.218   8.370  17.696  0.00  0.00    +0.000 F 
ENDBRANCH   3   5
BRANCH   2  14
ATOM     14  C   UNL     1       3.896   4.297  19.755  0.00  0.00    +0.000 C 
BRANCH  14  15
ATOM     15  O   UNL     1       5.132   4.978  19.584  0.00  0.00    +0.000 OA
BRANCH  15  16
ATOM     16  C   UNL     1       5.589   4.987  18.289  0.00  0.00    +0.000 A 
ATOM     17  C   UNL     1       4.738   4.409  17.347  0.00  0.00    +0.000 A 
ATOM     18  C   UNL     1       5.114   4.327  16.002  0.00  0.00    +0.000 A 
ATOM     19  C   UNL     1       6.349   4.837  15.588  0.00  0.00    +0.000 A 
ATOM     20  C   UNL     1       7.185   5.460  16.524  0.00  0.00    +0.000 A 
ATOM     21  C   UNL     1       6.803   5.535  17.867  0.00  0.00    +0.000 A 
BRANCH  19  22
ATOM     22  N   UNL     1       6.775   4.721  14.242  0.00  0.00    +0.000 N 
ATOM     23  C   UNL     1       6.374   3.836  13.274  0.00  0.00    +0.000 A 
ATOM     24  N   UNL     1       7.058   4.051  12.175  0.00  0.00    +0.000 NA
ATOM     25  N   UNL     1       7.898   5.096  12.459  0.00  0.00    +0.000 NA
ATOM     26  N   UNL     1       7.731   5.515  13.706  0.00  0.00    +0.000 NA
ENDBRANCH  19  22
ENDBRANCH  15  16
ENDBRANCH  14  15
ENDBRANCH   2  14
TORSDOF 5
ENDMDL
MODEL 8
REMARK VINA RESULT:      -7.4      1.174      1.993
REMARK  Name = 
REMARK  5 active torsions:
REMARK  status: ('A' for Active; 'I' for Inactive)
REMARK    1  A    between atoms: C_2  and  C_3
REMARK    2  A    between atoms: C_3  and  O_4
REMARK    3  A    between atoms: O_4  and  C_5
REMARK    4  A    between atoms: C_8  and  N_9
REMARK    5  A    between atoms: N_16  and  C_17
REMARK                            x       y       z     vdW  Elec       q    Type
REMARK                         _______ _______ _______ _____ _____    ______ ____
ROOT
ATOM      1  O   UNL     1       1.047   4.890  19.474  0.00  0.00    +0.000 OA
ATOM      2  C   UNL     1       2.004   5.165  20.201  0.00  0.00    +0.000 C 
ATOM      3  N   UNL     1       2.582   6.413  20.319  0.00  0.00    +0.000 N 
ATOM      4  H   UNL     1       3.492   6.456  20.773  0.00  0.00    +0.000 HD
ENDROOT
BRANCH   3   5
ATOM      5  C   UNL     1       2.072   7.616  19.775  0.00  0.00    +0.000 A 
ATOM      6  C   UNL     1       2.232   7.965  18.428  0.00  0.00    +0.000 A 
ATOM      7  C   UNL     1       1.679   9.145  17.925  0.00  0.00    +0.000 A 
ATOM      8  C   UNL     1       0.966   9.985  18.771  0.00  0.00    +0.000 A 
ATOM      9  F   UNL     1       0.435  11.112  18.278  0.00  0.00    +0.000 F 
ATOM     10  C   UNL     1       0.799   9.657  20.110  0.00  0.00    +0.000 A 
ATOM     11  F   UNL     1       0.116  10.478  20.920  0.00  0.00    +0.000 F 
ATOM     12  C   UNL     1       1.342   8.474  20.605  0.00  0.00    +0.000 A 
ATOM     13  F   UNL     1       1.180   8.165  21.903  0.00  0.00    +0.000 F 
ENDBRANCH   3   5
BRANCH   2  14
ATOM     14  C   UNL     1       2.621   4.074  21.071  0.00  0.00    +0.000 C 
BRANCH  14  15
ATOM     15  O   UNL     1       3.065   2.928  20.357  0.00  0.00    +0.000 OA
BRANCH  15  16
ATOM     16  C   UNL     1       3.782   3.219  19.224  0.00  0.00    +0.000 A 
ATOM     17  C   UNL     1       4.954   3.949  19.425  0.00  0.00    +0.000 A 
ATOM     18  C   UNL     1       5.748   4.337  18.340  0.00  0.00    +0.000 A 
ATOM     19  C   UNL     1       5.376   3.983  17.039  0.00  0.00    +0.000 A 
ATOM     20  C   UNL     1       4.225   3.209  16.838  0.00  0.00    +0.000 A 
ATOM     21  C   UNL     1       3.436   2.828  17.928  0.00  0.00    +0.000 A 
BRANCH  19  22
ATOM     22  N   UNL     1       6.135   4.405  15.920  0.00  0.00    +0.000 N 
ATOM     23  C   UNL     1       7.126   5.352  15.846  0.00  0.00    +0.000 A 
ATOM     24  N   UNL     1       7.533   5.461  14.603  0.00  0.00    +0.000 NA
ATOM     25  N   UNL     1       6.788   4.560  13.888  0.00  0.00    +0.000 NA
ATOM     26  N   UNL     1       5.942   3.910  14.676  0.00  0.00    +0.000 NA
ENDBRANCH  19  22
ENDBRANCH  15  16
ENDBRANCH  14  15
ENDBRANCH   2  14
TORSDOF 5
ENDMDL
MODEL 9
REMARK VINA RESULT:      -7.4      7.442      9.135
REMARK  Name = 
REMARK  5 active torsions:
REMARK  status: ('A' for Active; 'I' for Inactive)
REMARK    1  A    between atoms: C_2  and  C_3
REMARK    2  A    between atoms: C_3  and  O_4
REMARK    3  A    between atoms: O_4  and  C_5
REMARK    4  A    between atoms: C_8  and  N_9
REMARK    5  A    between atoms: N_16  and  C_17
REMARK                            x       y       z     vdW  Elec       q    Type
REMARK                         _______ _______ _______ _____ _____    ______ ____
ROOT
ATOM      1  O   UNL     1       8.260   7.162  18.743  0.00  0.00    +0.000 OA
ATOM      2  C   UNL     1       7.801   7.948  17.912  0.00  0.00    +0.000 C 
ATOM      3  N   UNL     1       6.865   7.631  16.948  0.00  0.00    +0.000 N 
ATOM      4  H   UNL     1       6.740   8.302  16.193  0.00  0.00    +0.000 HD
ENDROOT
BRANCH   3   5
ATOM      5  C   UNL     1       6.144   6.417  16.862  0.00  0.00    +0.000 A 
ATOM      6  C   UNL     1       6.727   5.220  16.426  0.00  0.00    +0.000 A 
ATOM      7  C   UNL     1       5.987   4.035  16.393  0.00  0.00    +0.000 A 
ATOM      8  C   UNL     1       4.657   4.044  16.793  0.00  0.00    +0.000 A 
ATOM      9  F   UNL     1       3.957   2.902  16.763  0.00  0.00    +0.000 F 
ATOM     10  C   UNL     1       4.062   5.221  17.226  0.00  0.00    +0.000 A 
ATOM     11  F   UNL     1       2.775   5.222  17.604  0.00  0.00    +0.000 F 
ATOM     12  C   UNL     1       4.805   6.398  17.269  0.00  0.00    +0.000 A 
ATOM     13  F   UNL     1       4.222   7.535  17.687  0.00  0.00    +0.000 F 
ENDBRANCH   3   5
BRANCH   2  14
ATOM     14  C   UNL     1       8.263   9.402  17.922  0.00  0.00    +0.000 C 
BRANCH  14  15
ATOM     15  O   UNL     1       9.256   9.701  18.895  0.00  0.00    +0.000 OA
BRANCH  15  16
ATOM     16  C   UNL     1       9.755  10.978  18.809  0.00  0.00    +0.000 A 
ATOM     17  C   UNL     1       9.071  11.834  17.945  0.00  0.00    +0.000 A 
ATOM     18  C   UNL     1       9.509  13.147  17.747  0.00  0.00    +0.000 A 
ATOM     19  C   UNL     1      10.637  13.618  18.427  0.00  0.00    +0.000 A 
ATOM     20  C   UNL     1      11.298  12.776  19.331  0.00  0.00    +0.000 A 
ATOM     21  C   UNL     1      10.854  11.463  19.521  0.00  0.00    +0.000 A 
BRANCH  19  22
ATOM     22  N   UNL     1      11.132  14.927  18.207  0.00  0.00    +0.000 N 
ATOM     23  C   UNL     1      10.676  16.125  18.697  0.00  0.00    +0.000 A 
ATOM     24  N   UNL     1      11.401  17.102  18.203  0.00  0.00    +0.000 NA
ATOM     25  N   UNL     1      12.331  16.503  17.396  0.00  0.00    +0.000 NA
ATOM     26  N   UNL     1      12.184  15.185  17.396  0.00  0.00    +0.000 NA
ENDBRANCH  19  22
ENDBRANCH  15  16
ENDBRANCH  14  15
ENDBRANCH   2  14
TORSDOF 5
ENDMDL
