MODEL 1
REMARK VINA RESULT:      -8.2      0.000      0.000
REMARK  Name = 
REMARK  6 active torsions:
REMARK  status: ('A' for Active; 'I' for Inactive)
REMARK    1  A    between atoms: C_2  and  C_31
REMARK    2  A    between atoms: N_3  and  C_4
REMARK    3  A    between atoms: C_4  and  C_23
REMARK    4  A    between atoms: C_5  and  C_6
REMARK    5  A    between atoms: N_8  and  C_9
REMARK    6  A    between atoms: C_16  and  C_17
REMARK                            x       y       z     vdW  Elec       q    Type
REMARK                         _______ _______ _______ _____ _____    ______ ____
ROOT
ATOM      1  C   UNL     1       1.256  13.601  20.598  0.00  0.00    +0.000 C 
ATOM      2  C   UNL     1       1.119  12.816  19.510  0.00  0.00    +0.000 C 
ENDROOT
BRANCH   1   3
ATOM      3  C   UNL     1       2.652  14.159  20.824  0.00  0.00    +0.000 C 
ATOM      4  O   UNL     1       3.434  13.516  21.531  0.00  0.00    +0.000 OA
ATOM      5  N   UNL     1       3.065  15.334  20.203  0.00  0.00    +0.000 N 
ATOM      6  C   UNL     1       2.306  16.216  19.309  0.00  0.00    +0.000 C 
ATOM      7  C   UNL     1       3.095  16.566  18.043  0.00  0.00    +0.000 C 
ATOM      8  O   UNL     1       4.371  17.126  18.372  0.00  0.00    +0.000 OA
ATOM      9  C   UNL     1       5.144  16.181  19.128  0.00  0.00    +0.000 C 
ATOM     10  C   UNL     1       4.437  15.813  20.441  0.00  0.00    +0.000 C 
ENDBRANCH   1   3
BRANCH   2  11
ATOM     11  C   UNL     1      -0.045  12.122  19.068  0.00  0.00    +0.000 A 
ATOM     12  C   UNL     1      -1.257  12.708  18.797  0.00  0.00    +0.000 A 
ATOM     13  N   UNL     1      -2.132  11.684  18.515  0.00  0.00    +0.000 N 
ATOM     14  N   UNL     1      -1.503  10.480  18.495  0.00  0.00    +0.000 NA
ATOM     15  C   UNL     1      -0.230  10.723  18.855  0.00  0.00    +0.000 A 
BRANCH  13  16
ATOM     16  C   UNL     1      -3.542  11.776  18.311  0.00  0.00    +0.000 A 
ATOM     17  C   UNL     1      -4.407  12.149  19.350  0.00  0.00    +0.000 A 
ATOM     18  C   UNL     1      -5.790  12.170  19.139  0.00  0.00    +0.000 A 
ATOM     19  C   UNL     1      -6.317  11.818  17.898  0.00  0.00    +0.000 A 
ATOM     20  C   UNL     1      -5.463  11.458  16.857  0.00  0.00    +0.000 A 
ATOM     21  C   UNL     1      -4.080  11.442  17.058  0.00  0.00    +0.000 A 
ENDBRANCH  13  16
BRANCH  15  22
ATOM     22  C   UNL     1       0.763   9.638  18.948  0.00  0.00    +0.000 A 
ATOM     23  C   UNL     1       0.951   8.955  20.158  0.00  0.00    +0.000 A 
ATOM     24  C   UNL     1       1.815   7.856  20.233  0.00  0.00    +0.000 A 
ATOM     25  C   UNL     1       2.497   7.422  19.099  0.00  0.00    +0.000 A 
ATOM     26  C   UNL     1       2.331   8.093  17.894  0.00  0.00    +0.000 A 
ATOM     27  C   UNL     1       1.484   9.200  17.824  0.00  0.00    +0.000 A 
ENDBRANCH  15  22
ENDBRANCH   2  11
BRANCH   1  30
ATOM     28  O   UNL     1       0.150  11.600  22.307  0.00  0.00    +0.000 OA
ATOM     29  C   UNL     1      -0.233  12.766  22.332  0.00  0.00    +0.000 C 
ATOM     30  N   UNL     1       0.248  13.786  21.525  0.00  0.00    +0.000 N 
ATOM     31  H   UNL     1      -0.323  14.610  21.400  0.00  0.00    +0.000 HD
BRANCH  29  32
ATOM     32  C   UNL     1      -1.407  13.075  23.174  0.00  0.00    +0.000 A 
ATOM     33  C   UNL     1      -2.510  12.216  23.129  0.00  0.00    +0.000 A 
ATOM     34  C   UNL     1      -3.690  12.558  23.788  0.00  0.00    +0.000 A 
ATOM     35  C   UNL     1      -3.778  13.769  24.478  0.00  0.00    +0.000 A 
ATOM     36  C   UNL     1      -2.680  14.627  24.524  0.00  0.00    +0.000 A 
ATOM     37  C   UNL     1      -1.498  14.284  23.871  0.00  0.00    +0.000 A 
ENDBRANCH  29  32
ENDBRANCH   1  30
TORSDOF 6
ENDMDL
MODEL 2
REMARK VINA RESULT:      -8.1      6.099     10.845
REMARK  Name = 
REMARK  6 active torsions:
REMARK  status: ('A' for Active; 'I' for Inactive)
REMARK    1  A    between atoms: C_2  and  C_31
REMARK    2  A    between atoms: N_3  and  C_4
REMARK    3  A    between atoms: C_4  and  C_23
REMARK    4  A    between atoms: C_5  and  C_6
REMARK    5  A    between atoms: N_8  and  C_9
REMARK    6  A    between atoms: C_16  and  C_17
REMARK                            x       y       z     vdW  Elec       q    Type
REMARK                         _______ _______ _______ _____ _____    ______ ____
ROOT
ATOM      1  C   UNL     1       4.791   4.753  18.892  0.00  0.00    +0.000 C 
ATOM      2  C   UNL     1       6.058   4.743  18.429  0.00  0.00    +0.000 C 
ENDROOT
BRANCH   1   3
ATOM      3  C   UNL     1       4.233   3.393  19.282  0.00  0.00    +0.000 C 
ATOM      4  O   UNL     1       4.821   2.745  20.153  0.00  0.00    +0.000 OA
ATOM      5  N   UNL     1       3.055   2.913  18.718  0.00  0.00    +0.000 N 
ATOM      6  C   UNL     1       2.200   3.539  17.703  0.00  0.00    +0.000 C 
ATOM      7  C   UNL     1       0.722   3.518  18.107  0.00  0.00    +0.000 C 
ATOM      8  O   UNL     1       0.291   2.186  18.405  0.00  0.00    +0.000 OA
ATOM      9  C   UNL     1       1.055   1.653  19.497  0.00  0.00    +0.000 C 
ATOM     10  C   UNL     1       2.551   1.598  19.151  0.00  0.00    +0.000 C 
ENDBRANCH   1   3
BRANCH   2  11
ATOM     11  C   UNL     1       6.826   5.844  17.949  0.00  0.00    +0.000 A 
ATOM     12  C   UNL     1       7.332   6.853  18.732  0.00  0.00    +0.000 A 
ATOM     13  N   UNL     1       7.905   7.763  17.873  0.00  0.00    +0.000 N 
ATOM     14  N   UNL     1       7.874   7.327  16.588  0.00  0.00    +0.000 NA
ATOM     15  C   UNL     1       7.197   6.165  16.609  0.00  0.00    +0.000 A 
BRANCH  13  16
ATOM     16  C   UNL     1       8.436   9.048  18.197  0.00  0.00    +0.000 A 
ATOM     17  C   UNL     1       9.197   9.251  19.357  0.00  0.00    +0.000 A 
ATOM     18  C   UNL     1       9.653  10.534  19.682  0.00  0.00    +0.000 A 
ATOM     19  C   UNL     1       9.352  11.617  18.857  0.00  0.00    +0.000 A 
ATOM     20  C   UNL     1       8.607  11.420  17.697  0.00  0.00    +0.000 A 
ATOM     21  C   UNL     1       8.154  10.141  17.362  0.00  0.00    +0.000 A 
ENDBRANCH  13  16
BRANCH  15  22
ATOM     22  C   UNL     1       6.958   5.391  15.377  0.00  0.00    +0.000 A 
ATOM     23  C   UNL     1       5.793   4.622  15.240  0.00  0.00    +0.000 A 
ATOM     24  C   UNL     1       5.506   3.967  14.038  0.00  0.00    +0.000 A 
ATOM     25  C   UNL     1       6.375   4.076  12.954  0.00  0.00    +0.000 A 
ATOM     26  C   UNL     1       7.539   4.824  13.075  0.00  0.00    +0.000 A 
ATOM     27  C   UNL     1       7.834   5.463  14.281  0.00  0.00    +0.000 A 
ENDBRANCH  15  22
ENDBRANCH   2  11
BRANCH   1  30
ATOM     28  O   UNL     1       2.728   5.367  20.767  0.00  0.00    +0.000 OA
ATOM     29  C   UNL     1       3.019   6.122  19.844  0.00  0.00    +0.000 C 
ATOM     30  N   UNL     1       3.998   5.884  18.891  0.00  0.00    +0.000 N 
ATOM     31  H   UNL     1       3.954   6.393  18.019  0.00  0.00    +0.000 HD
BRANCH  29  32
ATOM     32  C   UNL     1       2.154   7.301  19.636  0.00  0.00    +0.000 A 
ATOM     33  C   UNL     1       2.151   7.919  18.380  0.00  0.00    +0.000 A 
ATOM     34  C   UNL     1       1.470   9.121  18.193  0.00  0.00    +0.000 A 
ATOM     35  C   UNL     1       0.805   9.719  19.266  0.00  0.00    +0.000 A 
ATOM     36  C   UNL     1       0.807   9.107  20.518  0.00  0.00    +0.000 A 
ATOM     37  C   UNL     1       1.482   7.902  20.705  0.00  0.00    +0.000 A 
ENDBRANCH  29  32
ENDBRANCH   1  30
TORSDOF 6
ENDMDL
MODEL 3
REMARK VINA RESULT:      -7.9      0.232      1.412
REMARK  Name = 
REMARK  6 active torsions:
REMARK  status: ('A' for Active; 'I' for Inactive)
REMARK    1  A    between atoms: C_2  and  C_31
REMARK    2  A    between atoms: N_3  and  C_4
REMARK    3  A    between atoms: C_4  and  C_23
REMARK    4  A    between atoms: C_5  and  C_6
REMARK    5  A    between atoms: N_8  and  C_9
REMARK    6  A    between atoms: C_16  and  C_17
REMARK                            x       y       z     vdW  Elec       q    Type
REMARK                         _______ _______ _______ _____ _____    ______ ____
ROOT
ATOM      1  C   UNL     1       1.107  13.567  20.560  0.00  0.00    +0.000 C 
ATOM      2  C   UNL     1       0.960  12.733  19.511  0.00  0.00    +0.000 C 
ENDROOT
BRANCH   1   3
ATOM      3  C   UNL     1       2.520  14.080  20.788  0.00  0.00    +0.000 C 
ATOM      4  O   UNL     1       3.288  13.400  21.476  0.00  0.00    +0.000 OA
ATOM      5  N   UNL     1       2.961  15.256  20.189  0.00  0.00    +0.000 N 
ATOM      6  C   UNL     1       2.222  16.179  19.321  0.00  0.00    +0.000 C 
ATOM      7  C   UNL     1       3.012  16.534  18.056  0.00  0.00    +0.000 C 
ATOM      8  O   UNL     1       4.306  17.050  18.388  0.00  0.00    +0.000 OA
ATOM      9  C   UNL     1       5.056  16.068  19.118  0.00  0.00    +0.000 C 
ATOM     10  C   UNL     1       4.348  15.692  20.428  0.00  0.00    +0.000 C 
ENDBRANCH   1   3
BRANCH   2  11
ATOM     11  C   UNL     1      -0.222  12.062  19.079  0.00  0.00    +0.000 A 
ATOM     12  C   UNL     1      -1.423  12.675  18.815  0.00  0.00    +0.000 A 
ATOM     13  N   UNL     1      -2.322  11.669  18.542  0.00  0.00    +0.000 N 
ATOM     14  N   UNL     1      -1.720  10.452  18.522  0.00  0.00    +0.000 NA
ATOM     15  C   UNL     1      -0.439  10.668  18.871  0.00  0.00    +0.000 A 
BRANCH  13  16
ATOM     16  C   UNL     1      -3.731  11.791  18.348  0.00  0.00    +0.000 A 
ATOM     17  C   UNL     1      -4.317  11.563  17.094  0.00  0.00    +0.000 A 
ATOM     18  C   UNL     1      -5.692  11.751  16.918  0.00  0.00    +0.000 A 
ATOM     19  C   UNL     1      -6.487  12.169  17.983  0.00  0.00    +0.000 A 
ATOM     20  C   UNL     1      -5.914  12.385  19.235  0.00  0.00    +0.000 A 
ATOM     21  C   UNL     1      -4.543  12.193  19.421  0.00  0.00    +0.000 A 
ENDBRANCH  13  16
BRANCH  15  22
ATOM     22  C   UNL     1       0.530   9.561  18.960  0.00  0.00    +0.000 A 
ATOM     23  C   UNL     1       1.282   9.188  17.836  0.00  0.00    +0.000 A 
ATOM     24  C   UNL     1       2.277   8.210  17.933  0.00  0.00    +0.000 A 
ATOM     25  C   UNL     1       2.540   7.595  19.156  0.00  0.00    +0.000 A 
ATOM     26  C   UNL     1       1.798   7.944  20.278  0.00  0.00    +0.000 A 
ATOM     27  C   UNL     1       0.792   8.907  20.176  0.00  0.00    +0.000 A 
ENDBRANCH  15  22
ENDBRANCH   2  11
BRANCH   1  30
ATOM     28  O   UNL     1      -0.056  11.723  22.402  0.00  0.00    +0.000 OA
ATOM     29  C   UNL     1      -0.420  12.892  22.330  0.00  0.00    +0.000 C 
ATOM     30  N   UNL     1       0.089  13.839  21.454  0.00  0.00    +0.000 N 
ATOM     31  H   UNL     1      -0.466  14.659  21.256  0.00  0.00    +0.000 HD
BRANCH  29  32
ATOM     32  C   UNL     1      -1.600  13.284  23.128  0.00  0.00    +0.000 A 
ATOM     33  C   UNL     1      -1.523  14.435  23.920  0.00  0.00    +0.000 A 
ATOM     34  C   UNL     1      -2.557  14.747  24.802  0.00  0.00    +0.000 A 
ATOM     35  C   UNL     1      -3.663  13.901  24.908  0.00  0.00    +0.000 A 
ATOM     36  C   UNL     1      -3.742  12.754  24.120  0.00  0.00    +0.000 A 
ATOM     37  C   UNL     1      -2.712  12.443  23.234  0.00  0.00    +0.000 A 
ENDBRANCH  29  32
ENDBRANCH   1  30
TORSDOF 6
ENDMDL
MODEL 4
REMARK VINA RESULT:      -7.9      0.934      1.037
REMARK  Name = 
REMARK  6 active torsions:
REMARK  status: ('A' for Active; 'I' for Inactive)
REMARK    1  A    between atoms: C_2  and  C_31
REMARK    2  A    between atoms: N_3  and  C_4
REMARK    3  A    between atoms: C_4  and  C_23
REMARK    4  A    between atoms: C_5  and  C_6
REMARK    5  A    between atoms: N_8  and  C_9
REMARK    6  A    between atoms: C_16  and  C_17
REMARK                            x       y       z     vdW  Elec       q    Type
REMARK                         _______ _______ _______ _____ _____    ______ ____
ROOT
ATOM      1  C   UNL     1       1.328  13.576  20.789  0.00  0.00    +0.000 C 
ATOM      2  C   UNL     1       1.087  12.910  19.641  0.00  0.00    +0.000 C 
ENDROOT
BRANCH   1   3
ATOM      3  C   UNL     1       2.725  14.165  20.914  0.00  0.00    +0.000 C 
ATOM      4  O   UNL     1       3.559  13.558  21.593  0.00  0.00    +0.000 OA
ATOM      5  N   UNL     1       3.077  15.328  20.236  0.00  0.00    +0.000 N 
ATOM      6  C   UNL     1       2.250  16.169  19.364  0.00  0.00    +0.000 C 
ATOM      7  C   UNL     1       2.956  16.494  18.043  0.00  0.00    +0.000 C 
ATOM      8  O   UNL     1       4.238  17.086  18.279  0.00  0.00    +0.000 OA
ATOM      9  C   UNL     1       5.072  16.179  19.015  0.00  0.00    +0.000 C 
ATOM     10  C   UNL     1       4.452  15.839  20.378  0.00  0.00    +0.000 C 
ENDBRANCH   1   3
BRANCH   2  11
ATOM     11  C   UNL     1      -0.100  12.219  19.260  0.00  0.00    +0.000 A 
ATOM     12  C   UNL     1      -1.321  12.810  19.043  0.00  0.00    +0.000 A 
ATOM     13  N   UNL     1      -2.213  11.789  18.810  0.00  0.00    +0.000 N 
ATOM     14  N   UNL     1      -1.592  10.581  18.768  0.00  0.00    +0.000 NA
ATOM     15  C   UNL     1      -0.302  10.820  19.065  0.00  0.00    +0.000 A 
BRANCH  13  16
ATOM     16  C   UNL     1      -3.630  11.887  18.672  0.00  0.00    +0.000 A 
ATOM     17  C   UNL     1      -4.432  12.386  19.710  0.00  0.00    +0.000 A 
ATOM     18  C   UNL     1      -5.824  12.412  19.571  0.00  0.00    +0.000 A 
ATOM     19  C   UNL     1      -6.424  11.941  18.405  0.00  0.00    +0.000 A 
ATOM     20  C   UNL     1      -5.634  11.455  17.365  0.00  0.00    +0.000 A 
ATOM     21  C   UNL     1      -4.242  11.432  17.492  0.00  0.00    +0.000 A 
ENDBRANCH  13  16
BRANCH  15  22
ATOM     22  C   UNL     1       0.689   9.730  19.118  0.00  0.00    +0.000 A 
ATOM     23  C   UNL     1       0.899   9.025  20.313  0.00  0.00    +0.000 A 
ATOM     24  C   UNL     1       1.760   7.922  20.350  0.00  0.00    +0.000 A 
ATOM     25  C   UNL     1       2.418   7.506  19.194  0.00  0.00    +0.000 A 
ATOM     26  C   UNL     1       2.230   8.199  18.005  0.00  0.00    +0.000 A 
ATOM     27  C   UNL     1       1.385   9.310  17.973  0.00  0.00    +0.000 A 
ENDBRANCH  15  22
ENDBRANCH   2  11
BRANCH   1  30
ATOM     28  O   UNL     1      -0.572  15.641  21.309  0.00  0.00    +0.000 OA
ATOM     29  C   UNL     1      -0.472  14.649  22.024  0.00  0.00    +0.000 C 
ATOM     30  N   UNL     1       0.433  13.615  21.840  0.00  0.00    +0.000 N 
ATOM     31  H   UNL     1       0.648  13.018  22.626  0.00  0.00    +0.000 HD
BRANCH  29  32
ATOM     32  C   UNL     1      -1.269  14.628  23.268  0.00  0.00    +0.000 A 
ATOM     33  C   UNL     1      -2.465  13.902  23.287  0.00  0.00    +0.000 A 
ATOM     34  C   UNL     1      -3.318  13.986  24.387  0.00  0.00    +0.000 A 
ATOM     35  C   UNL     1      -2.986  14.811  25.465  0.00  0.00    +0.000 A 
ATOM     36  C   UNL     1      -1.796  15.536  25.448  0.00  0.00    +0.000 A 
ATOM     37  C   UNL     1      -0.940  15.448  24.351  0.00  0.00    +0.000 A 
ENDBRANCH  29  32
ENDBRANCH   1  30
TORSDOF 6
ENDMDL
MODEL 5
REMARK VINA RESULT:      -7.7      1.011      1.599
REMARK  Name = 
REMARK  6 active torsions:
REMARK  status: ('A' for Active; 'I' for Inactive)
REMARK    1  A    between atoms: C_2  and  C_31
REMARK    2  A    between atoms: N_3  and  C_4
REMARK    3  A    between atoms: C_4  and  C_23
REMARK    4  A    between atoms: C_5  and  C_6
REMARK    5  A    between atoms: N_8  and  C_9
REMARK    6  A    between atoms: C_16  and  C_17
REMARK                            x       y       z     vdW  Elec       q    Type
REMARK                         _______ _______ _______ _____ _____    ______ ____
ROOT
ATOM      1  C   UNL     1       1.322  13.634  20.808  0.00  0.00    +0.000 C 
ATOM      2  C   UNL     1       1.121  12.896  19.697  0.00  0.00    +0.000 C 
ENDROOT
BRANCH   1   3
ATOM      3  C   UNL     1       2.728  14.189  20.972  0.00  0.00    +0.000 C 
ATOM      4  O   UNL     1       3.526  13.567  21.680  0.00  0.00    +0.000 OA
ATOM      5  N   UNL     1       3.129  15.337  20.296  0.00  0.00    +0.000 N 
ATOM      6  C   UNL     1       2.350  16.192  19.392  0.00  0.00    +0.000 C 
ATOM      7  C   UNL     1       3.104  16.488  18.092  0.00  0.00    +0.000 C 
ATOM      8  O   UNL     1       4.392  17.050  18.363  0.00  0.00    +0.000 OA
ATOM      9  C   UNL     1       5.181  16.130  19.131  0.00  0.00    +0.000 C 
ATOM     10  C   UNL     1       4.511  15.816  20.477  0.00  0.00    +0.000 C 
ENDBRANCH   1   3
BRANCH   2  11
ATOM     11  C   UNL     1      -0.065  12.215  19.297  0.00  0.00    +0.000 A 
ATOM     12  C   UNL     1      -1.285  12.811  19.091  0.00  0.00    +0.000 A 
ATOM     13  N   UNL     1      -2.177  11.796  18.832  0.00  0.00    +0.000 N 
ATOM     14  N   UNL     1      -1.557  10.590  18.764  0.00  0.00    +0.000 NA
ATOM     15  C   UNL     1      -0.268  10.821  19.069  0.00  0.00    +0.000 A 
BRANCH  13  16
ATOM     16  C   UNL     1      -3.594  11.898  18.693  0.00  0.00    +0.000 A 
ATOM     17  C   UNL     1      -4.240  11.527  17.504  0.00  0.00    +0.000 A 
ATOM     18  C   UNL     1      -5.623  11.696  17.374  0.00  0.00    +0.000 A 
ATOM     19  C   UNL     1      -6.367  12.237  18.421  0.00  0.00    +0.000 A 
ATOM     20  C   UNL     1      -5.734  12.597  19.609  0.00  0.00    +0.000 A 
ATOM     21  C   UNL     1      -4.355  12.424  19.750  0.00  0.00    +0.000 A 
ENDBRANCH  13  16
BRANCH  15  22
ATOM     22  C   UNL     1       0.722   9.729  19.100  0.00  0.00    +0.000 A 
ATOM     23  C   UNL     1       0.944   9.009  20.283  0.00  0.00    +0.000 A 
ATOM     24  C   UNL     1       1.804   7.906  20.299  0.00  0.00    +0.000 A 
ATOM     25  C   UNL     1       2.450   7.503  19.132  0.00  0.00    +0.000 A 
ATOM     26  C   UNL     1       2.251   8.211  17.953  0.00  0.00    +0.000 A 
ATOM     27  C   UNL     1       1.407   9.323  17.942  0.00  0.00    +0.000 A 
ENDBRANCH  15  22
ENDBRANCH   2  11
BRANCH   1  30
ATOM     28  O   UNL     1      -0.393  15.882  21.202  0.00  0.00    +0.000 OA
ATOM     29  C   UNL     1      -0.435  14.892  21.926  0.00  0.00    +0.000 C 
ATOM     30  N   UNL     1       0.372  13.772  21.802  0.00  0.00    +0.000 N 
ATOM     31  H   UNL     1       0.479  13.164  22.602  0.00  0.00    +0.000 HD
BRANCH  29  32
ATOM     32  C   UNL     1      -1.304  14.962  23.119  0.00  0.00    +0.000 A 
ATOM     33  C   UNL     1      -0.874  15.709  24.220  0.00  0.00    +0.000 A 
ATOM     34  C   UNL     1      -1.591  15.671  25.415  0.00  0.00    +0.000 A 
ATOM     35  C   UNL     1      -2.731  14.871  25.519  0.00  0.00    +0.000 A 
ATOM     36  C   UNL     1      -3.161  14.125  24.424  0.00  0.00    +0.000 A 
ATOM     37  C   UNL     1      -2.449  14.166  23.226  0.00  0.00    +0.000 A 
ENDBRANCH  29  32
ENDBRANCH   1  30
TORSDOF 6
ENDMDL
MODEL 6
REMARK VINA RESULT:      -7.7      6.223     10.993
REMARK  Name = 
REMARK  6 active torsions:
REMARK  status: ('A' for Active; 'I' for Inactive)
REMARK    1  A    between atoms: C_2  and  C_31
REMARK    2  A    between atoms: N_3  and  C_4
REMARK    3  A    between atoms: C_4  and  C_23
REMARK    4  A    between atoms: C_5  and  C_6
REMARK    5  A    between atoms: N_8  and  C_9
REMARK    6  A    between atoms: C_16  and  C_17
REMARK                            x       y       z     vdW  Elec       q    Type
REMARK                         _______ _______ _______ _____ _____    ______ ____
ROOT
ATOM      1  C   UNL     1       4.854   4.606  19.028  0.00  0.00    +0.000 C 
ATOM      2  C   UNL     1       6.038   4.639  18.384  0.00  0.00    +0.000 C 
ENDROOT
BRANCH   1   3
ATOM      3  C   UNL     1       4.333   3.215  19.357  0.00  0.00    +0.000 C 
ATOM      4  O   UNL     1       4.958   2.533  20.175  0.00  0.00    +0.000 OA
ATOM      5  N   UNL     1       3.150   2.742  18.799  0.00  0.00    +0.000 N 
ATOM      6  C   UNL     1       2.255   3.404  17.843  0.00  0.00    +0.000 C 
ATOM      7  C   UNL     1       0.789   3.330  18.285  0.00  0.00    +0.000 C 
ATOM      8  O   UNL     1       0.393   1.975  18.520  0.00  0.00    +0.000 OA
ATOM      9  C   UNL     1       1.198   1.399  19.560  0.00  0.00    +0.000 C 
ATOM     10  C   UNL     1       2.684   1.395  19.172  0.00  0.00    +0.000 C 
ENDBRANCH   1   3
BRANCH   2  11
ATOM     11  C   UNL     1       6.749   5.780  17.910  0.00  0.00    +0.000 A 
ATOM     12  C   UNL     1       7.272   6.770  18.705  0.00  0.00    +0.000 A 
ATOM     13  N   UNL     1       7.770   7.732  17.856  0.00  0.00    +0.000 N 
ATOM     14  N   UNL     1       7.677   7.348  16.557  0.00  0.00    +0.000 NA
ATOM     15  C   UNL     1       7.033   6.167  16.566  0.00  0.00    +0.000 A 
BRANCH  13  16
ATOM     16  C   UNL     1       8.285   9.016  18.204  0.00  0.00    +0.000 A 
ATOM     17  C   UNL     1       8.049  10.140  17.397  0.00  0.00    +0.000 A 
ATOM     18  C   UNL     1       8.618  11.374  17.729  0.00  0.00    +0.000 A 
ATOM     19  C   UNL     1       9.425  11.496  18.859  0.00  0.00    +0.000 A 
ATOM     20  C   UNL     1       9.653  10.388  19.672  0.00  0.00    +0.000 A 
ATOM     21  C   UNL     1       9.082   9.153  19.352  0.00  0.00    +0.000 A 
ENDBRANCH  13  16
BRANCH  15  22
ATOM     22  C   UNL     1       6.746   5.438  15.317  0.00  0.00    +0.000 A 
ATOM     23  C   UNL     1       7.672   5.448  14.264  0.00  0.00    +0.000 A 
ATOM     24  C   UNL     1       7.459   4.678  13.116  0.00  0.00    +0.000 A 
ATOM     25  C   UNL     1       6.319   3.883  13.006  0.00  0.00    +0.000 A 
ATOM     26  C   UNL     1       5.385   3.870  14.035  0.00  0.00    +0.000 A 
ATOM     27  C   UNL     1       5.590   4.653  15.172  0.00  0.00    +0.000 A 
ENDBRANCH  15  22
ENDBRANCH   2  11
BRANCH   1  30
ATOM     28  O   UNL     1       3.319   6.028  17.087  0.00  0.00    +0.000 OA
ATOM     29  C   UNL     1       3.359   6.368  18.265  0.00  0.00    +0.000 C 
ATOM     30  N   UNL     1       4.090   5.734  19.259  0.00  0.00    +0.000 N 
ATOM     31  H   UNL     1       4.304   6.249  20.101  0.00  0.00    +0.000 HD
BRANCH  29  32
ATOM     32  C   UNL     1       2.705   7.642  18.625  0.00  0.00    +0.000 A 
ATOM     33  C   UNL     1       2.063   7.741  19.865  0.00  0.00    +0.000 A 
ATOM     34  C   UNL     1       1.305   8.870  20.172  0.00  0.00    +0.000 A 
ATOM     35  C   UNL     1       1.170   9.896  19.234  0.00  0.00    +0.000 A 
ATOM     36  C   UNL     1       1.806   9.799  17.998  0.00  0.00    +0.000 A 
ATOM     37  C   UNL     1       2.570   8.674  17.691  0.00  0.00    +0.000 A 
ENDBRANCH  29  32
ENDBRANCH   1  30
TORSDOF 6
ENDMDL
MODEL 7
REMARK VINA RESULT:      -7.6      2.225      8.004
REMARK  Name = 
REMARK  6 active torsions:
REMARK  status: ('A' for Active; 'I' for Inactive)
REMARK    1  A    between atoms: C_2  and  C_31
REMARK    2  A    between atoms: N_3  and  C_4
REMARK    3  A    between atoms: C_4  and  C_23
REMARK    4  A    between atoms: C_5  and  C_6
REMARK    5  A    between atoms: N_8  and  C_9
REMARK    6  A    between atoms: C_16  and  C_17
REMARK                            x       y       z     vdW  Elec       q    Type
REMARK                         _______ _______ _______ _____ _____    ______ ____
ROOT
ATOM      1  C   UNL     1      -0.860  11.149  18.136  0.00  0.00    +0.000 C 
ATOM      2  C   UNL     1      -0.550  12.447  18.335  0.00  0.00    +0.000 C 
ENDROOT
BRANCH   1   3
ATOM      3  C   UNL     1      -2.145  10.901  17.362  0.00  0.00    +0.000 C 
ATOM      4  O   UNL     1      -2.114  10.118  16.407  0.00  0.00    +0.000 OA
ATOM      5  N   UNL     1      -3.343  11.491  17.752  0.00  0.00    +0.000 N 
ATOM      6  C   UNL     1      -3.593  12.414  18.865  0.00  0.00    +0.000 C 
ATOM      7  C   UNL     1      -4.802  11.987  19.703  0.00  0.00    +0.000 C 
ATOM      8  O   UNL     1      -5.965  11.828  18.883  0.00  0.00    +0.000 OA
ATOM      9  C   UNL     1      -5.735  10.817  17.891  0.00  0.00    +0.000 C 
ATOM     10  C   UNL     1      -4.560  11.196  16.977  0.00  0.00    +0.000 C 
ENDBRANCH   1   3
BRANCH   2  11
ATOM     11  C   UNL     1       0.555  12.986  19.056  0.00  0.00    +0.000 A 
ATOM     12  C   UNL     1       1.622  13.640  18.489  0.00  0.00    +0.000 A 
ATOM     13  N   UNL     1       2.510  13.893  19.509  0.00  0.00    +0.000 N 
ATOM     14  N   UNL     1       2.009  13.519  20.714  0.00  0.00    +0.000 NA
ATOM     15  C   UNL     1       0.823  12.939  20.456  0.00  0.00    +0.000 A 
BRANCH  13  16
ATOM     16  C   UNL     1       3.830  14.426  19.400  0.00  0.00    +0.000 A 
ATOM     17  C   UNL     1       4.488  14.499  18.163  0.00  0.00    +0.000 A 
ATOM     18  C   UNL     1       5.804  14.967  18.094  0.00  0.00    +0.000 A 
ATOM     19  C   UNL     1       6.472  15.361  19.253  0.00  0.00    +0.000 A 
ATOM     20  C   UNL     1       5.821  15.303  20.483  0.00  0.00    +0.000 A 
ATOM     21  C   UNL     1       4.504  14.843  20.559  0.00  0.00    +0.000 A 
ENDBRANCH  13  16
BRANCH  15  22
ATOM     22  C   UNL     1      -0.021  12.400  21.538  0.00  0.00    +0.000 A 
ATOM     23  C   UNL     1      -1.017  13.197  22.121  0.00  0.00    +0.000 A 
ATOM     24  C   UNL     1      -1.891  12.666  23.076  0.00  0.00    +0.000 A 
ATOM     25  C   UNL     1      -1.786  11.329  23.456  0.00  0.00    +0.000 A 
ATOM     26  C   UNL     1      -0.797  10.528  22.898  0.00  0.00    +0.000 A 
ATOM     27  C   UNL     1       0.086  11.064  21.959  0.00  0.00    +0.000 A 
ENDBRANCH  15  22
ENDBRANCH   2  11
BRANCH   1  30
ATOM     28  O   UNL     1       1.750  10.279  17.373  0.00  0.00    +0.000 OA
ATOM     29  C   UNL     1       1.124   9.749  18.287  0.00  0.00    +0.000 C 
ATOM     30  N   UNL     1      -0.148  10.110  18.703  0.00  0.00    +0.000 N 
ATOM     31  H   UNL     1      -0.689   9.440  19.232  0.00  0.00    +0.000 HD
BRANCH  29  32
ATOM     32  C   UNL     1       1.705   8.530  18.887  0.00  0.00    +0.000 A 
ATOM     33  C   UNL     1       2.398   7.640  18.059  0.00  0.00    +0.000 A 
ATOM     34  C   UNL     1       2.823   6.408  18.557  0.00  0.00    +0.000 A 
ATOM     35  C   UNL     1       2.540   6.056  19.879  0.00  0.00    +0.000 A 
ATOM     36  C   UNL     1       1.850   6.941  20.705  0.00  0.00    +0.000 A 
ATOM     37  C   UNL     1       1.429   8.174  20.210  0.00  0.00    +0.000 A 
ENDBRANCH  29  32
ENDBRANCH   1  30
TORSDOF 6
ENDMDL
MODEL 8
REMARK VINA RESULT:      -7.6      2.596      6.558
REMARK  Name = 
REMARK  6 active torsions:
REMARK  status: ('A' for Active; 'I' for Inactive)
REMARK    1  A    between atoms: C_2  and  C_31
REMARK    2  A    between atoms: N_3  and  C_4
REMARK    3  A    between atoms: C_4  and  C_23
REMARK    4  A    between atoms: C_5  and  C_6
REMARK    5  A    between atoms: N_8  and  C_9
REMARK    6  A    between atoms: C_16  and  C_17
REMARK                            x       y       z     vdW  Elec       q    Type
REMARK                         _______ _______ _______ _____ _____    ______ ____
ROOT
ATOM      1  C   UNL     1      -2.250  12.702  22.338  0.00  0.00    +0.000 C 
ATOM      2  C   UNL     1      -0.928  12.447  22.273  0.00  0.00    +0.000 C 
ENDROOT
BRANCH   1   3
ATOM      3  C   UNL     1      -2.727  13.329  23.639  0.00  0.00    +0.000 C 
ATOM      4  O   UNL     1      -3.405  12.641  24.409  0.00  0.00    +0.000 OA
ATOM      5  N   UNL     1      -2.360  14.625  23.987  0.00  0.00    +0.000 N 
ATOM      6  C   UNL     1      -1.542  15.583  23.234  0.00  0.00    +0.000 C 
ATOM      7  C   UNL     1      -0.452  16.215  24.106  0.00  0.00    +0.000 C 
ATOM      8  O   UNL     1      -1.016  16.815  25.277  0.00  0.00    +0.000 OA
ATOM      9  C   UNL     1      -1.691  15.823  26.064  0.00  0.00    +0.000 C 
ATOM     10  C   UNL     1      -2.834  15.171  25.271  0.00  0.00    +0.000 C 
ENDBRANCH   1   3
BRANCH   2  11
ATOM     11  C   UNL     1      -0.203  11.828  21.213  0.00  0.00    +0.000 A 
ATOM     12  C   UNL     1      -0.027  10.474  21.064  0.00  0.00    +0.000 A 
ATOM     13  N   UNL     1       0.819  10.306  19.991  0.00  0.00    +0.000 N 
ATOM     14  N   UNL     1       1.105  11.490  19.390  0.00  0.00    +0.000 NA
ATOM     15  C   UNL     1       0.509  12.437  20.137  0.00  0.00    +0.000 A 
BRANCH  13  16
ATOM     16  C   UNL     1       1.410   9.091  19.532  0.00  0.00    +0.000 A 
ATOM     17  C   UNL     1       1.601   8.001  20.394  0.00  0.00    +0.000 A 
ATOM     18  C   UNL     1       2.241   6.845  19.933  0.00  0.00    +0.000 A 
ATOM     19  C   UNL     1       2.695   6.770  18.618  0.00  0.00    +0.000 A 
ATOM     20  C   UNL     1       2.497   7.843  17.752  0.00  0.00    +0.000 A 
ATOM     21  C   UNL     1       1.853   8.999  18.203  0.00  0.00    +0.000 A 
ENDBRANCH  13  16
BRANCH  15  22
ATOM     22  C   UNL     1       0.606  13.866  19.787  0.00  0.00    +0.000 A 
ATOM     23  C   UNL     1       1.791  14.574  20.034  0.00  0.00    +0.000 A 
ATOM     24  C   UNL     1       1.932  15.902  19.614  0.00  0.00    +0.000 A 
ATOM     25  C   UNL     1       0.893  16.537  18.936  0.00  0.00    +0.000 A 
ATOM     26  C   UNL     1      -0.293  15.853  18.693  0.00  0.00    +0.000 A 
ATOM     27  C   UNL     1      -0.439  14.535  19.129  0.00  0.00    +0.000 A 
ENDBRANCH  15  22
ENDBRANCH   2  11
BRANCH   1  30
ATOM     28  O   UNL     1      -3.769  14.426  20.643  0.00  0.00    +0.000 OA
ATOM     29  C   UNL     1      -3.839  13.203  20.565  0.00  0.00    +0.000 C 
ATOM     30  N   UNL     1      -3.143  12.306  21.360  0.00  0.00    +0.000 N 
ATOM     31  H   UNL     1      -3.488  11.359  21.434  0.00  0.00    +0.000 HD
BRANCH  29  32
ATOM     32  C   UNL     1      -4.863  12.640  19.660  0.00  0.00    +0.000 A 
ATOM     33  C   UNL     1      -6.212  12.785  20.001  0.00  0.00    +0.000 A 
ATOM     34  C   UNL     1      -7.196  12.135  19.257  0.00  0.00    +0.000 A 
ATOM     35  C   UNL     1      -6.833  11.323  18.180  0.00  0.00    +0.000 A 
ATOM     36  C   UNL     1      -5.489  11.177  17.839  0.00  0.00    +0.000 A 
ATOM     37  C   UNL     1      -4.505  11.830  18.578  0.00  0.00    +0.000 A 
ENDBRANCH  29  32
ENDBRANCH   1  30
TORSDOF 6
ENDMDL
MODEL 9
REMARK VINA RESULT:      -7.6      2.020      3.879
REMARK  Name = 
REMARK  6 active torsions:
REMARK  status: ('A' for Active; 'I' for Inactive)
REMARK    1  A    between atoms: C_2  and  C_31
REMARK    2  A    between atoms: N_3  and  C_4
REMARK    3  A    between atoms: C_4  and  C_23
REMARK    4  A    between atoms: C_5  and  C_6
REMARK    5  A    between atoms: N_8  and  C_9
REMARK    6  A    between atoms: C_16  and  C_17
REMARK                            x       y       z     vdW  Elec       q    Type
REMARK                         _______ _______ _______ _____ _____    ______ ____
ROOT
ATOM      1  C   UNL     1       2.395  13.910  20.251  0.00  0.00    +0.000 C 
ATOM      2  C   UNL     1       1.720  12.817  20.663  0.00  0.00    +0.000 C 
ENDROOT
BRANCH   1   3
ATOM      3  C   UNL     1       3.718  14.159  20.958  0.00  0.00    +0.000 C 
ATOM      4  O   UNL     1       3.863  13.724  22.104  0.00  0.00    +0.000 OA
ATOM      5  N   UNL     1       4.765  14.810  20.311  0.00  0.00    +0.000 N 
ATOM      6  C   UNL     1       4.802  15.367  18.954  0.00  0.00    +0.000 C 
ATOM      7  C   UNL     1       6.057  14.931  18.190  0.00  0.00    +0.000 C 
ATOM      8  O   UNL     1       7.243  15.256  18.923  0.00  0.00    +0.000 OA
ATOM      9  C   UNL     1       7.240  14.583  20.191  0.00  0.00    +0.000 C 
ATOM     10  C   UNL     1       6.031  15.004  21.039  0.00  0.00    +0.000 C 
ENDBRANCH   1   3
BRANCH   2  11
ATOM     11  C   UNL     1       0.445  12.354  20.225  0.00  0.00    +0.000 A 
ATOM     12  C   UNL     1      -0.719  13.080  20.286  0.00  0.00    +0.000 A 
ATOM     13  N   UNL     1      -1.727  12.236  19.876  0.00  0.00    +0.000 N 
ATOM     14  N   UNL     1      -1.239  11.039  19.461  0.00  0.00    +0.000 NA
ATOM     15  C   UNL     1       0.086  11.082  19.690  0.00  0.00    +0.000 A 
BRANCH  13  16
ATOM     16  C   UNL     1      -3.132  12.484  19.901  0.00  0.00    +0.000 A 
ATOM     17  C   UNL     1      -3.723  13.230  20.931  0.00  0.00    +0.000 A 
ATOM     18  C   UNL     1      -5.111  13.404  20.964  0.00  0.00    +0.000 A 
ATOM     19  C   UNL     1      -5.915  12.835  19.978  0.00  0.00    +0.000 A 
ATOM     20  C   UNL     1      -5.334  12.103  18.945  0.00  0.00    +0.000 A 
ATOM     21  C   UNL     1      -3.948  11.931  18.901  0.00  0.00    +0.000 A 
ENDBRANCH  13  16
BRANCH  15  22
ATOM     22  C   UNL     1       0.960   9.940  19.362  0.00  0.00    +0.000 A 
ATOM     23  C   UNL     1       1.155   8.910  20.294  0.00  0.00    +0.000 A 
ATOM     24  C   UNL     1       1.898   7.773  19.959  0.00  0.00    +0.000 A 
ATOM     25  C   UNL     1       2.451   7.646  18.685  0.00  0.00    +0.000 A 
ATOM     26  C   UNL     1       2.277   8.662  17.753  0.00  0.00    +0.000 A 
ATOM     27  C   UNL     1       1.551   9.805  18.095  0.00  0.00    +0.000 A 
ENDBRANCH  15  22
ENDBRANCH   2  11
BRANCH   1  30
ATOM     28  O   UNL     1       1.144  16.392  20.900  0.00  0.00    +0.000 OA
ATOM     29  C   UNL     1       1.290  16.016  19.741  0.00  0.00    +0.000 C 
ATOM     30  N   UNL     1       1.875  14.821  19.352  0.00  0.00    +0.000 N 
ATOM     31  H   UNL     1       1.676  14.466  18.428  0.00  0.00    +0.000 HD
BRANCH  29  32
ATOM     32  C   UNL     1       0.651  16.825  18.683  0.00  0.00    +0.000 A 
ATOM     33  C   UNL     1       1.459  17.391  17.690  0.00  0.00    +0.000 A 
ATOM     34  C   UNL     1       0.914  18.284  16.769  0.00  0.00    +0.000 A 
ATOM     35  C   UNL     1      -0.437  18.630  16.848  0.00  0.00    +0.000 A 
ATOM     36  C   UNL     1      -1.244  18.069  17.837  0.00  0.00    +0.000 A 
ATOM     37  C   UNL     1      -0.702  17.171  18.755  0.00  0.00    +0.000 A 
ENDBRANCH  29  32
ENDBRANCH   1  30
TORSDOF 6
ENDMDL
