MODEL 1
REMARK VINA RESULT:      -6.7      0.000      0.000
REMARK  Name = 
REMARK  7 active torsions:
REMARK  status: ('A' for Active; 'I' for Inactive)
REMARK    1  A    between atoms: C_1  and  N_2
REMARK    2  A    between atoms: N_5  and  C_6
REMARK    3  A    between atoms: C_6  and  C_7
REMARK    4  A    between atoms: C_10  and  C_12
REMARK    5  A    between atoms: C_17  and  C_18
REMARK    6  A    between atoms: C_21  and  C_22
REMARK    7  A    between atoms: C_22  and  O_23
REMARK                            x       y       z     vdW  Elec       q    Type
REMARK                         _______ _______ _______ _____ _____    ______ ____
ROOT
ATOM      1  C   UNL     1       2.389   6.171  20.211  0.00  0.00    +0.000 C 
ATOM      2  C   UNL     1       3.211   5.710  19.014  0.00  0.00    +0.000 C 
ATOM      3  N   UNL     1       3.767   4.429  19.402  0.00  0.00    +0.000 N 
ATOM      4  C   UNL     1       4.862   3.753  18.869  0.00  0.00    +0.000 C 
ATOM      5  O   UNL     1       5.283   2.712  19.373  0.00  0.00    +0.000 OA
ATOM      6  C   UNL     1       3.002   3.840  20.490  0.00  0.00    +0.000 C 
ATOM      7  C   UNL     1       1.901   4.853  20.863  0.00  0.00    +0.000 C 
ENDROOT
BRANCH   4   8
ATOM      8  C   UNL     1       5.552   4.274  17.646  0.00  0.00    +0.000 A 
ATOM      9  C   UNL     1       5.095   3.888  16.376  0.00  0.00    +0.000 A 
ATOM     10  C   UNL     1       5.665   4.394  15.208  0.00  0.00    +0.000 A 
ATOM     11  C   UNL     1       6.768   5.232  15.288  0.00  0.00    +0.000 A 
ATOM     12  C   UNL     1       7.302   5.550  16.538  0.00  0.00    +0.000 A 
ATOM     13  C   UNL     1       6.703   5.074  17.728  0.00  0.00    +0.000 A 
BRANCH  13  14
ATOM     14  C   UNL     1       7.337   5.446  18.974  0.00  0.00    +0.000 C 
ATOM     15  N   UNL     1       7.833   5.638  20.006  0.00  0.00    +0.000 NA
ENDBRANCH  13  14
ENDBRANCH   4   8
BRANCH   1  16
ATOM     16  C   UNL     1       1.363   7.224  19.766  0.00  0.00    +0.000 C 
BRANCH  16  21
ATOM     17  C   UNL     1      -1.671  10.821  18.582  0.00  0.00    +0.000 C 
ATOM     18  N   UNL     1      -0.322  10.489  19.023  0.00  0.00    +0.000 NA
ATOM     19  C   UNL     1       0.387   9.682  18.016  0.00  0.00    +0.000 C 
ATOM     20  C   UNL     1       1.807   9.287  18.484  0.00  0.00    +0.000 C 
ATOM     21  N   UNL     1       1.870   8.603  19.796  0.00  0.00    +0.000 NA
ATOM     22  C   UNL     1       1.107   9.429  20.772  0.00  0.00    +0.000 C 
ATOM     23  C   UNL     1      -0.328   9.802  20.324  0.00  0.00    +0.000 C 
ENDBRANCH  16  21
ENDBRANCH   1  16
BRANCH   7  24
ATOM     24  C   UNL     1       0.528   4.302  20.465  0.00  0.00    +0.000 C 
BRANCH  24  25
ATOM     25  O   UNL     1       0.487   2.888  20.346  0.00  0.00    +0.000 OA
ATOM     26  H   UNL     1      -0.053   2.645  19.562  0.00  0.00    +0.000 HD
ENDBRANCH  24  25
ENDBRANCH   7  24
TORSDOF 6
ENDMDL
MODEL 2
REMARK VINA RESULT:      -6.2      6.608     11.216
REMARK  Name = 
REMARK  7 active torsions:
REMARK  status: ('A' for Active; 'I' for Inactive)
REMARK    1  A    between atoms: C_1  and  N_2
REMARK    2  A    between atoms: N_5  and  C_6
REMARK    3  A    between atoms: C_6  and  C_7
REMARK    4  A    between atoms: C_10  and  C_12
REMARK    5  A    between atoms: C_17  and  C_18
REMARK    6  A    between atoms: C_21  and  C_22
REMARK    7  A    between atoms: C_22  and  O_23
REMARK                            x       y       z     vdW  Elec       q    Type
REMARK                         _______ _______ _______ _____ _____    ______ ____
ROOT
ATOM      1  C   UNL     1      -2.532  10.992  17.766  0.00  0.00    +0.000 C 
ATOM      2  C   UNL     1      -3.869  10.599  18.385  0.00  0.00    +0.000 C 
ATOM      3  N   UNL     1      -4.875  11.240  17.561  0.00  0.00    +0.000 N 
ATOM      4  C   UNL     1      -6.202  11.529  17.867  0.00  0.00    +0.000 C 
ATOM      5  O   UNL     1      -6.914  12.174  17.098  0.00  0.00    +0.000 OA
ATOM      6  C   UNL     1      -4.336  11.574  16.251  0.00  0.00    +0.000 C 
ATOM      7  C   UNL     1      -2.850  11.163  16.260  0.00  0.00    +0.000 C 
ENDROOT
BRANCH   4   8
ATOM      8  C   UNL     1      -6.807  11.042  19.148  0.00  0.00    +0.000 A 
ATOM      9  C   UNL     1      -7.111   9.679  19.296  0.00  0.00    +0.000 A 
ATOM     10  C   UNL     1      -7.619   9.168  20.491  0.00  0.00    +0.000 A 
ATOM     11  C   UNL     1      -7.916  10.030  21.536  0.00  0.00    +0.000 A 
ATOM     12  C   UNL     1      -7.716  11.402  21.375  0.00  0.00    +0.000 A 
ATOM     13  C   UNL     1      -7.162  11.923  20.182  0.00  0.00    +0.000 A 
BRANCH  13  14
ATOM     14  C   UNL     1      -7.005  13.359  20.105  0.00  0.00    +0.000 C 
ATOM     15  N   UNL     1      -6.908  14.515  20.152  0.00  0.00    +0.000 NA
ENDBRANCH  13  14
ENDBRANCH   4   8
BRANCH   1  16
ATOM     16  C   UNL     1      -1.443  10.003  18.206  0.00  0.00    +0.000 C 
BRANCH  16  21
ATOM     17  C   UNL     1      -0.868  10.456  23.003  0.00  0.00    +0.000 C 
ATOM     18  N   UNL     1      -0.266  10.696  21.697  0.00  0.00    +0.000 NA
ATOM     19  C   UNL     1      -1.074  11.634  20.900  0.00  0.00    +0.000 C 
ATOM     20  C   UNL     1      -0.472  11.871  19.496  0.00  0.00    +0.000 C 
ATOM     21  N   UNL     1      -0.219  10.644  18.705  0.00  0.00    +0.000 NA
ATOM     22  C   UNL     1       0.562   9.709  19.561  0.00  0.00    +0.000 C 
ATOM     23  C   UNL     1      -0.052   9.443  20.958  0.00  0.00    +0.000 C 
ENDBRANCH  16  21
ENDBRANCH   1  16
BRANCH   7  24
ATOM     24  C   UNL     1      -2.634   9.969  15.325  0.00  0.00    +0.000 C 
BRANCH  24  25
ATOM     25  O   UNL     1      -3.281  10.097  14.067  0.00  0.00    +0.000 OA
ATOM     26  H   UNL     1      -2.643  10.451  13.411  0.00  0.00    +0.000 HD
ENDBRANCH  24  25
ENDBRANCH   7  24
TORSDOF 6
ENDMDL
MODEL 3
REMARK VINA RESULT:      -6.0      1.045      1.269
REMARK  Name = 
REMARK  7 active torsions:
REMARK  status: ('A' for Active; 'I' for Inactive)
REMARK    1  A    between atoms: C_1  and  N_2
REMARK    2  A    between atoms: N_5  and  C_6
REMARK    3  A    between atoms: C_6  and  C_7
REMARK    4  A    between atoms: C_10  and  C_12
REMARK    5  A    between atoms: C_17  and  C_18
REMARK    6  A    between atoms: C_21  and  C_22
REMARK    7  A    between atoms: C_22  and  O_23
REMARK                            x       y       z     vdW  Elec       q    Type
REMARK                         _______ _______ _______ _____ _____    ______ ____
ROOT
ATOM      1  C   UNL     1       2.596   6.280  20.467  0.00  0.00    +0.000 C 
ATOM      2  C   UNL     1       3.335   5.890  19.193  0.00  0.00    +0.000 C 
ATOM      3  N   UNL     1       3.744   4.514  19.392  0.00  0.00    +0.000 N 
ATOM      4  C   UNL     1       4.741   3.793  18.740  0.00  0.00    +0.000 C 
ATOM      5  O   UNL     1       5.045   2.653  19.090  0.00  0.00    +0.000 OA
ATOM      6  C   UNL     1       2.934   3.878  20.420  0.00  0.00    +0.000 C 
ATOM      7  C   UNL     1       1.967   4.952  20.958  0.00  0.00    +0.000 C 
ENDROOT
BRANCH   4   8
ATOM      8  C   UNL     1       5.465   4.389  17.573  0.00  0.00    +0.000 A 
ATOM      9  C   UNL     1       5.026   4.109  16.268  0.00  0.00    +0.000 A 
ATOM     10  C   UNL     1       5.630   4.688  15.152  0.00  0.00    +0.000 A 
ATOM     11  C   UNL     1       6.747   5.494  15.316  0.00  0.00    +0.000 A 
ATOM     12  C   UNL     1       7.262   5.707  16.596  0.00  0.00    +0.000 A 
ATOM     13  C   UNL     1       6.630   5.157  17.736  0.00  0.00    +0.000 A 
BRANCH  13  14
ATOM     14  C   UNL     1       7.246   5.421  19.018  0.00  0.00    +0.000 C 
ATOM     15  N   UNL     1       7.713   5.529  20.076  0.00  0.00    +0.000 NA
ENDBRANCH  13  14
ENDBRANCH   4   8
BRANCH   1  16
ATOM     16  C   UNL     1       1.694   7.493  20.196  0.00  0.00    +0.000 C 
BRANCH  16  21
ATOM     17  C   UNL     1      -0.268  11.926  19.981  0.00  0.00    +0.000 C 
ATOM     18  N   UNL     1      -0.052  10.751  20.817  0.00  0.00    +0.000 NA
ATOM     19  C   UNL     1       1.382  10.527  21.064  0.00  0.00    +0.000 C 
ATOM     20  C   UNL     1       1.632   9.262  21.918  0.00  0.00    +0.000 C 
ATOM     21  N   UNL     1       1.022   8.018  21.393  0.00  0.00    +0.000 NA
ATOM     22  C   UNL     1      -0.413   8.301  21.117  0.00  0.00    +0.000 C 
ATOM     23  C   UNL     1      -0.670   9.550  20.236  0.00  0.00    +0.000 C 
ENDBRANCH  16  21
ENDBRANCH   1  16
BRANCH   7  24
ATOM     24  C   UNL     1       0.532   4.620  20.538  0.00  0.00    +0.000 C 
BRANCH  24  25
ATOM     25  O   UNL     1       0.332   3.257  20.194  0.00  0.00    +0.000 OA
ATOM     26  H   UNL     1       0.670   3.100  19.286  0.00  0.00    +0.000 HD
ENDBRANCH  24  25
ENDBRANCH   7  24
TORSDOF 6
ENDMDL
MODEL 4
REMARK VINA RESULT:      -6.0      6.364      9.633
REMARK  Name = 
REMARK  7 active torsions:
REMARK  status: ('A' for Active; 'I' for Inactive)
REMARK    1  A    between atoms: C_1  and  N_2
REMARK    2  A    between atoms: N_5  and  C_6
REMARK    3  A    between atoms: C_6  and  C_7
REMARK    4  A    between atoms: C_10  and  C_12
REMARK    5  A    between atoms: C_17  and  C_18
REMARK    6  A    between atoms: C_21  and  C_22
REMARK    7  A    between atoms: C_22  and  O_23
REMARK                            x       y       z     vdW  Elec       q    Type
REMARK                         _______ _______ _______ _____ _____    ______ ____
ROOT
ATOM      1  C   UNL     1      -1.331  10.564  19.028  0.00  0.00    +0.000 C 
ATOM      2  C   UNL     1      -1.521  11.543  20.180  0.00  0.00    +0.000 C 
ATOM      3  N   UNL     1      -0.728  11.010  21.270  0.00  0.00    +0.000 N 
ATOM      4  C   UNL     1      -0.824  11.275  22.634  0.00  0.00    +0.000 C 
ATOM      5  O   UNL     1      -0.144  10.665  23.458  0.00  0.00    +0.000 OA
ATOM      6  C   UNL     1       0.290  10.097  20.772  0.00  0.00    +0.000 C 
ATOM      7  C   UNL     1       0.095   9.997  19.246  0.00  0.00    +0.000 C 
ENDROOT
BRANCH   4   8
ATOM      8  C   UNL     1      -1.758  12.334  23.135  0.00  0.00    +0.000 A 
ATOM      9  C   UNL     1      -3.063  11.983  23.515  0.00  0.00    +0.000 A 
ATOM     10  C   UNL     1      -3.949  12.922  24.044  0.00  0.00    +0.000 A 
ATOM     11  C   UNL     1      -3.573  14.255  24.120  0.00  0.00    +0.000 A 
ATOM     12  C   UNL     1      -2.316  14.644  23.655  0.00  0.00    +0.000 A 
ATOM     13  C   UNL     1      -1.397  13.691  23.156  0.00  0.00    +0.000 A 
BRANCH  13  14
ATOM     14  C   UNL     1      -0.124  14.193  22.685  0.00  0.00    +0.000 C 
ATOM     15  N   UNL     1       0.869  14.556  22.205  0.00  0.00    +0.000 NA
ENDBRANCH  13  14
ENDBRANCH   4   8
BRANCH   1  16
ATOM     16  C   UNL     1      -1.682  11.248  17.698  0.00  0.00    +0.000 C 
BRANCH  16  21
ATOM     17  C   UNL     1      -6.509  11.528  18.107  0.00  0.00    +0.000 C 
ATOM     18  N   UNL     1      -5.402  10.920  17.378  0.00  0.00    +0.000 NA
ATOM     19  C   UNL     1      -4.576  10.081  18.263  0.00  0.00    +0.000 C 
ATOM     20  C   UNL     1      -3.374   9.459  17.515  0.00  0.00    +0.000 C 
ATOM     21  N   UNL     1      -2.507  10.426  16.802  0.00  0.00    +0.000 NA
ATOM     22  C   UNL     1      -3.385  11.279  15.955  0.00  0.00    +0.000 C 
ATOM     23  C   UNL     1      -4.574  11.931  16.704  0.00  0.00    +0.000 C 
ENDBRANCH  16  21
ENDBRANCH   1  16
BRANCH   7  24
ATOM     24  C   UNL     1       1.268  10.668  18.525  0.00  0.00    +0.000 C 
BRANCH  24  25
ATOM     25  O   UNL     1       1.742   9.944  17.399  0.00  0.00    +0.000 OA
ATOM     26  H   UNL     1       1.064   9.972  16.689  0.00  0.00    +0.000 HD
ENDBRANCH  24  25
ENDBRANCH   7  24
TORSDOF 6
ENDMDL
MODEL 5
REMARK VINA RESULT:      -5.9      7.316      9.621
REMARK  Name = 
REMARK  7 active torsions:
REMARK  status: ('A' for Active; 'I' for Inactive)
REMARK    1  A    between atoms: C_1  and  N_2
REMARK    2  A    between atoms: N_5  and  C_6
REMARK    3  A    between atoms: C_6  and  C_7
REMARK    4  A    between atoms: C_10  and  C_12
REMARK    5  A    between atoms: C_17  and  C_18
REMARK    6  A    between atoms: C_21  and  C_22
REMARK    7  A    between atoms: C_22  and  O_23
REMARK                            x       y       z     vdW  Elec       q    Type
REMARK                         _______ _______ _______ _____ _____    ______ ____
ROOT
ATOM      1  C   UNL     1      -3.991  10.912  17.838  0.00  0.00    +0.000 C 
ATOM      2  C   UNL     1      -2.992  11.649  18.722  0.00  0.00    +0.000 C 
ATOM      3  N   UNL     1      -1.812  10.807  18.749  0.00  0.00    +0.000 N 
ATOM      4  C   UNL     1      -0.766  10.795  19.669  0.00  0.00    +0.000 C 
ATOM      5  O   UNL     1       0.124   9.947  19.620  0.00  0.00    +0.000 OA
ATOM      6  C   UNL     1      -1.799   9.895  17.615  0.00  0.00    +0.000 C 
ATOM      7  C   UNL     1      -3.104  10.138  16.830  0.00  0.00    +0.000 C 
ENDROOT
BRANCH   4   8
ATOM      8  C   UNL     1      -0.691  11.837  20.743  0.00  0.00    +0.000 A 
ATOM      9  C   UNL     1      -1.409  11.654  21.936  0.00  0.00    +0.000 A 
ATOM     10  C   UNL     1      -1.323  12.565  22.989  0.00  0.00    +0.000 A 
ATOM     11  C   UNL     1      -0.584  13.729  22.832  0.00  0.00    +0.000 A 
ATOM     12  C   UNL     1       0.057  13.979  21.618  0.00  0.00    +0.000 A 
ATOM     13  C   UNL     1       0.009  13.040  20.561  0.00  0.00    +0.000 A 
BRANCH  13  14
ATOM     14  C   UNL     1       0.693  13.396  19.337  0.00  0.00    +0.000 C 
ATOM     15  N   UNL     1       1.271  13.777  18.405  0.00  0.00    +0.000 NA
ENDBRANCH  13  14
ENDBRANCH   4   8
BRANCH   1  16
ATOM     16  C   UNL     1      -5.051  11.895  17.319  0.00  0.00    +0.000 C 
BRANCH  16  21
ATOM     17  C   UNL     1      -7.082  13.691  21.343  0.00  0.00    +0.000 C 
ATOM     18  N   UNL     1      -7.289  12.848  20.171  0.00  0.00    +0.000 NA
ATOM     19  C   UNL     1      -6.389  11.683  20.186  0.00  0.00    +0.000 C 
ATOM     20  C   UNL     1      -6.567  10.798  18.930  0.00  0.00    +0.000 C 
ATOM     21  N   UNL     1      -6.433  11.507  17.636  0.00  0.00    +0.000 NA
ATOM     22  C   UNL     1      -7.324  12.698  17.681  0.00  0.00    +0.000 C 
ATOM     23  C   UNL     1      -7.130  13.607  18.921  0.00  0.00    +0.000 C 
ENDBRANCH  16  21
ENDBRANCH   1  16
BRANCH   7  24
ATOM     24  C   UNL     1      -2.788  10.790  15.481  0.00  0.00    +0.000 C 
BRANCH  24  25
ATOM     25  O   UNL     1      -3.571  10.295  14.404  0.00  0.00    +0.000 OA
ATOM     26  H   UNL     1      -4.033   9.478  14.691  0.00  0.00    +0.000 HD
ENDBRANCH  24  25
ENDBRANCH   7  24
TORSDOF 6
ENDMDL
MODEL 6
REMARK VINA RESULT:      -5.8      7.154     10.312
REMARK  Name = 
REMARK  7 active torsions:
REMARK  status: ('A' for Active; 'I' for Inactive)
REMARK    1  A    between atoms: C_1  and  N_2
REMARK    2  A    between atoms: N_5  and  C_6
REMARK    3  A    between atoms: C_6  and  C_7
REMARK    4  A    between atoms: C_10  and  C_12
REMARK    5  A    between atoms: C_17  and  C_18
REMARK    6  A    between atoms: C_21  and  C_22
REMARK    7  A    between atoms: C_22  and  O_23
REMARK                            x       y       z     vdW  Elec       q    Type
REMARK                         _______ _______ _______ _____ _____    ______ ____
ROOT
ATOM      1  C   UNL     1      -4.354  13.984  22.008  0.00  0.00    +0.000 C 
ATOM      2  C   UNL     1      -3.363  12.843  22.202  0.00  0.00    +0.000 C 
ATOM      3  N   UNL     1      -2.089  13.484  22.464  0.00  0.00    +0.000 N 
ATOM      4  C   UNL     1      -0.804  12.959  22.344  0.00  0.00    +0.000 C 
ATOM      5  O   UNL     1       0.195  13.660  22.505  0.00  0.00    +0.000 OA
ATOM      6  C   UNL     1      -2.282  14.850  22.925  0.00  0.00    +0.000 C 
ATOM      7  C   UNL     1      -3.799  15.121  22.902  0.00  0.00    +0.000 C 
ENDROOT
BRANCH   4   8
ATOM      8  C   UNL     1      -0.605  11.508  22.030  0.00  0.00    +0.000 A 
ATOM      9  C   UNL     1      -0.629  10.564  23.069  0.00  0.00    +0.000 A 
ATOM     10  C   UNL     1      -0.509   9.197  22.820  0.00  0.00    +0.000 A 
ATOM     11  C   UNL     1      -0.273   8.753  21.527  0.00  0.00    +0.000 A 
ATOM     12  C   UNL     1      -0.147   9.680  20.492  0.00  0.00    +0.000 A 
ATOM     13  C   UNL     1      -0.309  11.065  20.731  0.00  0.00    +0.000 A 
BRANCH  13  14
ATOM     14  C   UNL     1      -0.146  11.949  19.597  0.00  0.00    +0.000 C 
ATOM     15  N   UNL     1       0.005  12.740  18.761  0.00  0.00    +0.000 NA
ENDBRANCH  13  14
ENDBRANCH   4   8
BRANCH   1  16
ATOM     16  C   UNL     1      -5.786  13.473  22.229  0.00  0.00    +0.000 C 
BRANCH  16  21
ATOM     17  C   UNL     1      -6.857   9.831  19.207  0.00  0.00    +0.000 C 
ATOM     18  N   UNL     1      -7.095  11.235  19.523  0.00  0.00    +0.000 NA
ATOM     19  C   UNL     1      -5.859  12.026  19.409  0.00  0.00    +0.000 C 
ATOM     20  C   UNL     1      -6.085  13.511  19.779  0.00  0.00    +0.000 C 
ATOM     21  N   UNL     1      -6.697  13.742  21.108  0.00  0.00    +0.000 NA
ATOM     22  C   UNL     1      -7.916  12.893  21.196  0.00  0.00    +0.000 C 
ATOM     23  C   UNL     1      -7.691  11.398  20.858  0.00  0.00    +0.000 C 
ENDBRANCH  16  21
ENDBRANCH   1  16
BRANCH   7  24
ATOM     24  C   UNL     1      -4.327  15.253  24.334  0.00  0.00    +0.000 C 
BRANCH  24  25
ATOM     25  O   UNL     1      -3.431  14.772  25.325  0.00  0.00    +0.000 OA
ATOM     26  H   UNL     1      -3.725  15.089  26.207  0.00  0.00    +0.000 HD
ENDBRANCH  24  25
ENDBRANCH   7  24
TORSDOF 6
ENDMDL
MODEL 7
REMARK VINA RESULT:      -5.8      1.240      1.599
REMARK  Name = 
REMARK  7 active torsions:
REMARK  status: ('A' for Active; 'I' for Inactive)
REMARK    1  A    between atoms: C_1  and  N_2
REMARK    2  A    between atoms: N_5  and  C_6
REMARK    3  A    between atoms: C_6  and  C_7
REMARK    4  A    between atoms: C_10  and  C_12
REMARK    5  A    between atoms: C_17  and  C_18
REMARK    6  A    between atoms: C_21  and  C_22
REMARK    7  A    between atoms: C_22  and  O_23
REMARK                            x       y       z     vdW  Elec       q    Type
REMARK                         _______ _______ _______ _____ _____    ______ ____
ROOT
ATOM      1  C   UNL     1       2.182   5.987  20.806  0.00  0.00    +0.000 C 
ATOM      2  C   UNL     1       3.084   5.928  19.580  0.00  0.00    +0.000 C 
ATOM      3  N   UNL     1       3.687   4.610  19.611  0.00  0.00    +0.000 N 
ATOM      4  C   UNL     1       4.840   4.159  18.974  0.00  0.00    +0.000 C 
ATOM      5  O   UNL     1       5.289   3.031  19.177  0.00  0.00    +0.000 OA
ATOM      6  C   UNL     1       2.899   3.701  20.430  0.00  0.00    +0.000 C 
ATOM      7  C   UNL     1       1.731   4.520  21.012  0.00  0.00    +0.000 C 
ENDROOT
BRANCH   4   8
ATOM      8  C   UNL     1       5.562   5.041  18.002  0.00  0.00    +0.000 A 
ATOM      9  C   UNL     1       5.089   5.152  16.684  0.00  0.00    +0.000 A 
ATOM     10  C   UNL     1       5.691   6.006  15.760  0.00  0.00    +0.000 A 
ATOM     11  C   UNL     1       6.837   6.703  16.113  0.00  0.00    +0.000 A 
ATOM     12  C   UNL     1       7.383   6.532  17.386  0.00  0.00    +0.000 A 
ATOM     13  C   UNL     1       6.754   5.700  18.342  0.00  0.00    +0.000 A 
BRANCH  13  14
ATOM     14  C   UNL     1       7.403   5.575  19.630  0.00  0.00    +0.000 C 
ATOM     15  N   UNL     1       8.016   5.514  20.614  0.00  0.00    +0.000 NA
ENDBRANCH  13  14
ENDBRANCH   4   8
BRANCH   1  16
ATOM     16  C   UNL     1       1.126   7.089  20.624  0.00  0.00    +0.000 C 
BRANCH  16  21
ATOM     17  C   UNL     1      -1.217  10.691  22.878  0.00  0.00    +0.000 C 
ATOM     18  N   UNL     1      -0.051  10.337  22.076  0.00  0.00    +0.000 NA
ATOM     19  C   UNL     1      -0.446   9.839  20.748  0.00  0.00    +0.000 C 
ATOM     20  C   UNL     1       0.776   9.423  19.898  0.00  0.00    +0.000 C 
ATOM     21  N   UNL     1       1.686   8.445  20.540  0.00  0.00    +0.000 NA
ATOM     22  C   UNL     1       2.025   8.966  21.893  0.00  0.00    +0.000 C 
ATOM     23  C   UNL     1       0.804   9.356  22.762  0.00  0.00    +0.000 C 
ENDBRANCH  16  21
ENDBRANCH   1  16
BRANCH   7  24
ATOM     24  C   UNL     1       0.410   4.063  20.385  0.00  0.00    +0.000 C 
BRANCH  24  25
ATOM     25  O   UNL     1       0.497   2.827  19.692  0.00  0.00    +0.000 OA
ATOM     26  H   UNL     1      -0.383   2.391  19.698  0.00  0.00    +0.000 HD
ENDBRANCH  24  25
ENDBRANCH   7  24
TORSDOF 6
ENDMDL
MODEL 8
REMARK VINA RESULT:      -5.8      5.424     11.331
REMARK  Name = 
REMARK  7 active torsions:
REMARK  status: ('A' for Active; 'I' for Inactive)
REMARK    1  A    between atoms: C_1  and  N_2
REMARK    2  A    between atoms: N_5  and  C_6
REMARK    3  A    between atoms: C_6  and  C_7
REMARK    4  A    between atoms: C_10  and  C_12
REMARK    5  A    between atoms: C_17  and  C_18
REMARK    6  A    between atoms: C_21  and  C_22
REMARK    7  A    between atoms: C_22  and  O_23
REMARK                            x       y       z     vdW  Elec       q    Type
REMARK                         _______ _______ _______ _____ _____    ______ ____
ROOT
ATOM      1  C   UNL     1      -2.619  11.280  17.732  0.00  0.00    +0.000 C 
ATOM      2  C   UNL     1      -3.925  10.818  18.365  0.00  0.00    +0.000 C 
ATOM      3  N   UNL     1      -4.973  11.401  17.551  0.00  0.00    +0.000 N 
ATOM      4  C   UNL     1      -6.311  11.620  17.871  0.00  0.00    +0.000 C 
ATOM      5  O   UNL     1      -7.064  12.224  17.108  0.00  0.00    +0.000 OA
ATOM      6  C   UNL     1      -4.467  11.760  16.235  0.00  0.00    +0.000 C 
ATOM      7  C   UNL     1      -2.961  11.429  16.228  0.00  0.00    +0.000 C 
ENDROOT
BRANCH   4   8
ATOM      8  C   UNL     1      -6.875  11.105  19.160  0.00  0.00    +0.000 A 
ATOM      9  C   UNL     1      -7.142   9.734  19.300  0.00  0.00    +0.000 A 
ATOM     10  C   UNL     1      -7.611   9.198  20.499  0.00  0.00    +0.000 A 
ATOM     11  C   UNL     1      -7.906  10.042  21.560  0.00  0.00    +0.000 A 
ATOM     12  C   UNL     1      -7.742  11.420  21.410  0.00  0.00    +0.000 A 
ATOM     13  C   UNL     1      -7.228  11.966  20.211  0.00  0.00    +0.000 A 
BRANCH  13  14
ATOM     14  C   UNL     1      -7.107  13.407  20.146  0.00  0.00    +0.000 C 
ATOM     15  N   UNL     1      -7.034  14.554  19.984  0.00  0.00    +0.000 NA
ENDBRANCH  13  14
ENDBRANCH   4   8
BRANCH   1  16
ATOM     16  C   UNL     1      -1.473  10.352  18.162  0.00  0.00    +0.000 C 
BRANCH  16  21
ATOM     17  C   UNL     1       1.819   7.603  20.433  0.00  0.00    +0.000 C 
ATOM     18  N   UNL     1       1.391   8.967  20.145  0.00  0.00    +0.000 NA
ATOM     19  C   UNL     1       0.058   9.240  20.707  0.00  0.00    +0.000 C 
ATOM     20  C   UNL     1      -0.428  10.670  20.377  0.00  0.00    +0.000 C 
ATOM     21  N   UNL     1      -0.420  11.022  18.937  0.00  0.00    +0.000 NA
ATOM     22  C   UNL     1       0.929  10.690  18.401  0.00  0.00    +0.000 C 
ATOM     23  C   UNL     1       1.410   9.249  18.701  0.00  0.00    +0.000 C 
ENDBRANCH  16  21
ENDBRANCH   1  16
BRANCH   7  24
ATOM     24  C   UNL     1      -2.691  10.245  15.294  0.00  0.00    +0.000 C 
BRANCH  24  25
ATOM     25  O   UNL     1      -3.281  10.379  14.009  0.00  0.00    +0.000 OA
ATOM     26  H   UNL     1      -3.995   9.711  13.911  0.00  0.00    +0.000 HD
ENDBRANCH  24  25
ENDBRANCH   7  24
TORSDOF 6
ENDMDL
MODEL 9
REMARK VINA RESULT:      -5.8      1.156      2.032
REMARK  Name = 
REMARK  7 active torsions:
REMARK  status: ('A' for Active; 'I' for Inactive)
REMARK    1  A    between atoms: C_1  and  N_2
REMARK    2  A    between atoms: N_5  and  C_6
REMARK    3  A    between atoms: C_6  and  C_7
REMARK    4  A    between atoms: C_10  and  C_12
REMARK    5  A    between atoms: C_17  and  C_18
REMARK    6  A    between atoms: C_21  and  C_22
REMARK    7  A    between atoms: C_22  and  O_23
REMARK                            x       y       z     vdW  Elec       q    Type
REMARK                         _______ _______ _______ _____ _____    ______ ____
ROOT
ATOM      1  C   UNL     1       2.085   5.685  20.780  0.00  0.00    +0.000 C 
ATOM      2  C   UNL     1       3.226   5.696  19.769  0.00  0.00    +0.000 C 
ATOM      3  N   UNL     1       3.767   4.351  19.788  0.00  0.00    +0.000 N 
ATOM      4  C   UNL     1       5.015   3.904  19.361  0.00  0.00    +0.000 C 
ATOM      5  O   UNL     1       5.375   2.740  19.535  0.00  0.00    +0.000 OA
ATOM      6  C   UNL     1       2.796   3.410  20.326  0.00  0.00    +0.000 C 
ATOM      7  C   UNL     1       1.556   4.230  20.735  0.00  0.00    +0.000 C 
ENDROOT
BRANCH   4   8
ATOM      8  C   UNL     1       5.953   4.835  18.658  0.00  0.00    +0.000 A 
ATOM      9  C   UNL     1       6.877   5.583  19.406  0.00  0.00    +0.000 A 
ATOM     10  C   UNL     1       7.811   6.418  18.792  0.00  0.00    +0.000 A 
ATOM     11  C   UNL     1       7.780   6.589  17.416  0.00  0.00    +0.000 A 
ATOM     12  C   UNL     1       6.805   5.934  16.662  0.00  0.00    +0.000 A 
ATOM     13  C   UNL     1       5.882   5.053  17.273  0.00  0.00    +0.000 A 
BRANCH  13  14
ATOM     14  C   UNL     1       4.901   4.431  16.410  0.00  0.00    +0.000 C 
ATOM     15  N   UNL     1       4.061   3.899  15.810  0.00  0.00    +0.000 NA
ENDBRANCH  13  14
ENDBRANCH   4   8
BRANCH   1  16
ATOM     16  C   UNL     1       1.127   6.852  20.498  0.00  0.00    +0.000 C 
BRANCH  16  21
ATOM     17  C   UNL     1      -1.425  10.686  18.968  0.00  0.00    +0.000 C 
ATOM     18  N   UNL     1      -0.153  10.238  19.524  0.00  0.00    +0.000 NA
ATOM     19  C   UNL     1       0.542   9.325  18.601  0.00  0.00    +0.000 C 
ATOM     20  C   UNL     1       1.875   8.808  19.190  0.00  0.00    +0.000 C 
ATOM     21  N   UNL     1       1.769   8.173  20.525  0.00  0.00    +0.000 NA
ATOM     22  C   UNL     1       1.025   9.109  21.411  0.00  0.00    +0.000 C 
ATOM     23  C   UNL     1      -0.327   9.606  20.841  0.00  0.00    +0.000 C 
ENDBRANCH  16  21
ENDBRANCH   1  16
BRANCH   7  24
ATOM     24  C   UNL     1       0.385   3.904  19.803  0.00  0.00    +0.000 C 
BRANCH  24  25
ATOM     25  O   UNL     1       0.088   2.518  19.712  0.00  0.00    +0.000 OA
ATOM     26  H   UNL     1       0.813   2.064  19.230  0.00  0.00    +0.000 HD
ENDBRANCH  24  25
ENDBRANCH   7  24
TORSDOF 6
ENDMDL
