MODEL 1
REMARK VINA RESULT:      -7.5      0.000      0.000
REMARK  Name = 
REMARK  2 active torsions:
REMARK  status: ('A' for Active; 'I' for Inactive)
REMARK    1  A    between atoms: N_2  and  C_4
REMARK    2  A    between atoms: C_8  and  C_9
REMARK                            x       y       z     vdW  Elec       q    Type
REMARK                         _______ _______ _______ _____ _____    ______ ____
ROOT
ATOM      1  C   UNL     1       2.760   6.905  18.720  0.00  0.00    +0.000 A 
ATOM      2  S   UNL     1       2.191   6.566  20.327  0.00  0.00    +0.000 S 
ATOM      3  C   UNL     1       1.411   8.094  20.468  0.00  0.00    +0.000 A 
ATOM      4  C   UNL     1       0.704   8.617  21.564  0.00  0.00    +0.000 A 
ATOM      5  C   UNL     1       0.129   9.889  21.447  0.00  0.00    +0.000 A 
ATOM      6  C   UNL     1       0.246  10.636  20.279  0.00  0.00    +0.000 A 
ATOM      7  C   UNL     1       0.949  10.137  19.194  0.00  0.00    +0.000 A 
ATOM      8  N   UNL     1       1.557   8.775  19.343  0.00  0.00    +0.000 N 
ATOM      9  C   UNL     1       2.293   8.157  18.355  0.00  0.00    +0.000 A 
ATOM     10  O   UNL     1       2.535   8.744  17.198  0.00  0.00    +0.000 OA
ENDROOT
BRANCH   1  15
ATOM     11  C   UNL     1       5.686   5.161  17.030  0.00  0.00    +0.000 A 
ATOM     12  C   UNL     1       5.110   3.951  16.631  0.00  0.00    +0.000 A 
ATOM     13  C   UNL     1       3.770   3.712  16.919  0.00  0.00    +0.000 A 
ATOM     14  C   UNL     1       3.016   4.672  17.604  0.00  0.00    +0.000 A 
ATOM     15  C   UNL     1       3.575   5.895  18.010  0.00  0.00    +0.000 A 
ATOM     16  C   UNL     1       4.928   6.129  17.708  0.00  0.00    +0.000 A 
BRANCH  11  18
ATOM     17  O   UNL     1       7.433   6.603  16.525  0.00  0.00    +0.000 OA
ATOM     18  N   UNL     1       7.098   5.428  16.738  0.00  0.00    +0.000 N 
ATOM     19  O   UNL     1       7.876   4.463  16.712  0.00  0.00    +0.000 OA
ENDBRANCH  11  18
ENDBRANCH   1  15
TORSDOF 2
ENDMDL
MODEL 2
REMARK VINA RESULT:      -7.4      1.349      1.879
REMARK  Name = 
REMARK  2 active torsions:
REMARK  status: ('A' for Active; 'I' for Inactive)
REMARK    1  A    between atoms: N_2  and  C_4
REMARK    2  A    between atoms: C_8  and  C_9
REMARK                            x       y       z     vdW  Elec       q    Type
REMARK                         _______ _______ _______ _____ _____    ______ ____
ROOT
ATOM      1  C   UNL     1       2.755   6.947  18.641  0.00  0.00    +0.000 A 
ATOM      2  S   UNL     1       2.465   8.454  17.825  0.00  0.00    +0.000 S 
ATOM      3  C   UNL     1       1.498   9.065  19.111  0.00  0.00    +0.000 A 
ATOM      4  C   UNL     1       0.831  10.299  19.193  0.00  0.00    +0.000 A 
ATOM      5  C   UNL     1       0.110  10.596  20.357  0.00  0.00    +0.000 A 
ATOM      6  C   UNL     1       0.043   9.701  21.420  0.00  0.00    +0.000 A 
ATOM      7  C   UNL     1       0.687   8.476  21.348  0.00  0.00    +0.000 A 
ATOM      8  N   UNL     1       1.450   8.180  20.093  0.00  0.00    +0.000 N 
ATOM      9  C   UNL     1       2.128   6.999  19.874  0.00  0.00    +0.000 A 
ATOM     10  O   UNL     1       2.132   6.025  20.765  0.00  0.00    +0.000 OA
ENDROOT
BRANCH   1  15
ATOM     11  C   UNL     1       5.697   5.134  17.055  0.00  0.00    +0.000 A 
ATOM     12  C   UNL     1       5.122   3.912  16.692  0.00  0.00    +0.000 A 
ATOM     13  C   UNL     1       3.778   3.687  16.970  0.00  0.00    +0.000 A 
ATOM     14  C   UNL     1       3.018   4.674  17.610  0.00  0.00    +0.000 A 
ATOM     15  C   UNL     1       3.576   5.909  17.979  0.00  0.00    +0.000 A 
ATOM     16  C   UNL     1       4.934   6.128  17.687  0.00  0.00    +0.000 A 
BRANCH  11  18
ATOM     17  O   UNL     1       7.903   4.436  16.878  0.00  0.00    +0.000 OA
ATOM     18  N   UNL     1       7.114   5.386  16.771  0.00  0.00    +0.000 N 
ATOM     19  O   UNL     1       7.444   6.538  16.450  0.00  0.00    +0.000 OA
ENDBRANCH  11  18
ENDBRANCH   1  15
TORSDOF 2
ENDMDL
MODEL 3
REMARK VINA RESULT:      -7.4      4.680      5.221
REMARK  Name = 
REMARK  2 active torsions:
REMARK  status: ('A' for Active; 'I' for Inactive)
REMARK    1  A    between atoms: N_2  and  C_4
REMARK    2  A    between atoms: C_8  and  C_9
REMARK                            x       y       z     vdW  Elec       q    Type
REMARK                         _______ _______ _______ _____ _____    ______ ____
ROOT
ATOM      1  C   UNL     1       4.340   3.877  17.514  0.00  0.00    +0.000 A 
ATOM      2  S   UNL     1       2.651   3.730  17.130  0.00  0.00    +0.000 S 
ATOM      3  C   UNL     1       2.226   3.345  18.753  0.00  0.00    +0.000 A 
ATOM      4  C   UNL     1       0.958   3.041  19.276  0.00  0.00    +0.000 A 
ATOM      5  C   UNL     1       0.842   2.775  20.646  0.00  0.00    +0.000 A 
ATOM      6  C   UNL     1       1.949   2.805  21.490  0.00  0.00    +0.000 A 
ATOM      7  C   UNL     1       3.207   3.094  20.985  0.00  0.00    +0.000 A 
ATOM      8  N   UNL     1       3.306   3.373  19.516  0.00  0.00    +0.000 N 
ATOM      9  C   UNL     1       4.491   3.661  18.873  0.00  0.00    +0.000 A 
ATOM     10  O   UNL     1       5.643   3.690  19.518  0.00  0.00    +0.000 OA
ENDROOT
BRANCH   1  15
ATOM     11  C   UNL     1       6.036   4.070  14.117  0.00  0.00    +0.000 A 
ATOM     12  C   UNL     1       7.174   4.831  14.404  0.00  0.00    +0.000 A 
ATOM     13  C   UNL     1       7.378   5.278  15.705  0.00  0.00    +0.000 A 
ATOM     14  C   UNL     1       6.450   4.971  16.708  0.00  0.00    +0.000 A 
ATOM     15  C   UNL     1       5.303   4.205  16.440  0.00  0.00    +0.000 A 
ATOM     16  C   UNL     1       5.110   3.754  15.123  0.00  0.00    +0.000 A 
BRANCH  11  18
ATOM     17  O   UNL     1       4.629   3.460  12.374  0.00  0.00    +0.000 OA
ATOM     18  N   UNL     1       5.804   3.594  12.749  0.00  0.00    +0.000 N 
ATOM     19  O   UNL     1       6.795   3.343  12.047  0.00  0.00    +0.000 OA
ENDBRANCH  11  18
ENDBRANCH   1  15
TORSDOF 2
ENDMDL
MODEL 4
REMARK VINA RESULT:      -7.2      4.021      5.040
REMARK  Name = 
REMARK  2 active torsions:
REMARK  status: ('A' for Active; 'I' for Inactive)
REMARK    1  A    between atoms: N_2  and  C_4
REMARK    2  A    between atoms: C_8  and  C_9
REMARK                            x       y       z     vdW  Elec       q    Type
REMARK                         _______ _______ _______ _____ _____    ______ ____
ROOT
ATOM      1  C   UNL     1       4.340   4.227  17.234  0.00  0.00    +0.000 A 
ATOM      2  S   UNL     1       3.740   5.640  18.050  0.00  0.00    +0.000 S 
ATOM      3  C   UNL     1       2.695   4.719  19.061  0.00  0.00    +0.000 A 
ATOM      4  C   UNL     1       1.797   5.178  20.039  0.00  0.00    +0.000 A 
ATOM      5  C   UNL     1       1.053   4.238  20.763  0.00  0.00    +0.000 A 
ATOM      6  C   UNL     1       1.184   2.872  20.532  0.00  0.00    +0.000 A 
ATOM      7  C   UNL     1       2.059   2.405  19.563  0.00  0.00    +0.000 A 
ATOM      8  N   UNL     1       2.842   3.431  18.800  0.00  0.00    +0.000 N 
ATOM      9  C   UNL     1       3.738   3.116  17.800  0.00  0.00    +0.000 A 
ATOM     10  O   UNL     1       3.953   1.869  17.426  0.00  0.00    +0.000 OA
ENDROOT
BRANCH   1  15
ATOM     11  C   UNL     1       6.074   4.013  13.857  0.00  0.00    +0.000 A 
ATOM     12  C   UNL     1       7.279   4.676  14.108  0.00  0.00    +0.000 A 
ATOM     13  C   UNL     1       7.517   5.191  15.378  0.00  0.00    +0.000 A 
ATOM     14  C   UNL     1       6.554   5.048  16.385  0.00  0.00    +0.000 A 
ATOM     15  C   UNL     1       5.339   4.382  16.153  0.00  0.00    +0.000 A 
ATOM     16  C   UNL     1       5.113   3.860  14.868  0.00  0.00    +0.000 A 
BRANCH  11  18
ATOM     17  O   UNL     1       6.771   3.054  11.862  0.00  0.00    +0.000 OA
ATOM     18  N   UNL     1       5.806   3.466  12.521  0.00  0.00    +0.000 N 
ATOM     19  O   UNL     1       4.631   3.456  12.125  0.00  0.00    +0.000 OA
ENDBRANCH  11  18
ENDBRANCH   1  15
TORSDOF 2
ENDMDL
MODEL 5
REMARK VINA RESULT:      -7.2      3.651      4.813
REMARK  Name = 
REMARK  2 active torsions:
REMARK  status: ('A' for Active; 'I' for Inactive)
REMARK    1  A    between atoms: N_2  and  C_4
REMARK    2  A    between atoms: C_8  and  C_9
REMARK                            x       y       z     vdW  Elec       q    Type
REMARK                         _______ _______ _______ _____ _____    ______ ____
ROOT
ATOM      1  C   UNL     1       4.288   4.134  17.174  0.00  0.00    +0.000 A 
ATOM      2  S   UNL     1       3.774   2.523  17.577  0.00  0.00    +0.000 S 
ATOM      3  C   UNL     1       2.720   3.075  18.820  0.00  0.00    +0.000 A 
ATOM      4  C   UNL     1       1.916   2.315  19.686  0.00  0.00    +0.000 A 
ATOM      5  C   UNL     1       1.115   2.985  20.620  0.00  0.00    +0.000 A 
ATOM      6  C   UNL     1       1.103   4.374  20.705  0.00  0.00    +0.000 A 
ATOM      7  C   UNL     1       1.899   5.136  19.865  0.00  0.00    +0.000 A 
ATOM      8  N   UNL     1       2.749   4.397  18.876  0.00  0.00    +0.000 N 
ATOM      9  C   UNL     1       3.600   5.019  17.987  0.00  0.00    +0.000 A 
ATOM     10  O   UNL     1       3.741   6.332  17.962  0.00  0.00    +0.000 OA
ENDROOT
BRANCH   1  15
ATOM     11  C   UNL     1       6.049   3.990  13.808  0.00  0.00    +0.000 A 
ATOM     12  C   UNL     1       7.223   4.706  14.065  0.00  0.00    +0.000 A 
ATOM     13  C   UNL     1       7.430   5.233  15.335  0.00  0.00    +0.000 A 
ATOM     14  C   UNL     1       6.469   5.050  16.337  0.00  0.00    +0.000 A 
ATOM     15  C   UNL     1       5.286   4.331  16.100  0.00  0.00    +0.000 A 
ATOM     16  C   UNL     1       5.090   3.798  14.814  0.00  0.00    +0.000 A 
BRANCH  11  18
ATOM     17  O   UNL     1       6.789   2.977  11.855  0.00  0.00    +0.000 OA
ATOM     18  N   UNL     1       5.814   3.430  12.472  0.00  0.00    +0.000 N 
ATOM     19  O   UNL     1       4.654   3.450  12.033  0.00  0.00    +0.000 OA
ENDBRANCH  11  18
ENDBRANCH   1  15
TORSDOF 2
ENDMDL
MODEL 6
REMARK VINA RESULT:      -7.0      4.642      5.054
REMARK  Name = 
REMARK  2 active torsions:
REMARK  status: ('A' for Active; 'I' for Inactive)
REMARK    1  A    between atoms: N_2  and  C_4
REMARK    2  A    between atoms: C_8  and  C_9
REMARK                            x       y       z     vdW  Elec       q    Type
REMARK                         _______ _______ _______ _____ _____    ______ ____
ROOT
ATOM      1  C   UNL     1       4.352   3.933  17.469  0.00  0.00    +0.000 A 
ATOM      2  S   UNL     1       4.850   4.104  19.126  0.00  0.00    +0.000 S 
ATOM      3  C   UNL     1       3.307   3.638  19.729  0.00  0.00    +0.000 A 
ATOM      4  C   UNL     1       2.880   3.552  21.065  0.00  0.00    +0.000 A 
ATOM      5  C   UNL     1       1.572   3.126  21.326  0.00  0.00    +0.000 A 
ATOM      6  C   UNL     1       0.696   2.791  20.298  0.00  0.00    +0.000 A 
ATOM      7  C   UNL     1       1.101   2.881  18.975  0.00  0.00    +0.000 A 
ATOM      8  N   UNL     1       2.504   3.341  18.720  0.00  0.00    +0.000 N 
ATOM      9  C   UNL     1       3.040   3.491  17.459  0.00  0.00    +0.000 A 
ATOM     10  O   UNL     1       2.332   3.255  16.370  0.00  0.00    +0.000 OA
ENDROOT
BRANCH   1  15
ATOM     11  C   UNL     1       6.042   4.050  14.065  0.00  0.00    +0.000 A 
ATOM     12  C   UNL     1       7.186   4.808  14.335  0.00  0.00    +0.000 A 
ATOM     13  C   UNL     1       7.396   5.278  15.628  0.00  0.00    +0.000 A 
ATOM     14  C   UNL     1       6.468   4.997  16.637  0.00  0.00    +0.000 A 
ATOM     15  C   UNL     1       5.315   4.234  16.386  0.00  0.00    +0.000 A 
ATOM     16  C   UNL     1       5.116   3.759  15.078  0.00  0.00    +0.000 A 
BRANCH  11  18
ATOM     17  O   UNL     1       6.789   3.218  12.031  0.00  0.00    +0.000 OA
ATOM     18  N   UNL     1       5.804   3.549  12.706  0.00  0.00    +0.000 N 
ATOM     19  O   UNL     1       4.631   3.495  12.308  0.00  0.00    +0.000 OA
ENDBRANCH  11  18
ENDBRANCH   1  15
TORSDOF 2
ENDMDL
MODEL 7
REMARK VINA RESULT:      -6.9      1.099      1.275
REMARK  Name = 
REMARK  2 active torsions:
REMARK  status: ('A' for Active; 'I' for Inactive)
REMARK    1  A    between atoms: N_2  and  C_4
REMARK    2  A    between atoms: C_8  and  C_9
REMARK                            x       y       z     vdW  Elec       q    Type
REMARK                         _______ _______ _______ _____ _____    ______ ____
ROOT
ATOM      1  C   UNL     1       2.202   7.702  18.910  0.00  0.00    +0.000 A 
ATOM      2  S   UNL     1       1.697   7.442  20.554  0.00  0.00    +0.000 S 
ATOM      3  C   UNL     1       0.993   9.008  20.677  0.00  0.00    +0.000 A 
ATOM      4  C   UNL     1       0.364   9.599  21.786  0.00  0.00    +0.000 A 
ATOM      5  C   UNL     1      -0.159  10.891  21.652  0.00  0.00    +0.000 A 
ATOM      6  C   UNL     1      -0.067  11.593  20.454  0.00  0.00    +0.000 A 
ATOM      7  C   UNL     1       0.560  11.027  19.355  0.00  0.00    +0.000 A 
ATOM      8  N   UNL     1       1.114   9.644  19.524  0.00  0.00    +0.000 N 
ATOM      9  C   UNL     1       1.774   8.961  18.524  0.00  0.00    +0.000 A 
ATOM     10  O   UNL     1       1.985   9.498  17.337  0.00  0.00    +0.000 OA
ENDROOT
BRANCH   1  15
ATOM     11  C   UNL     1       4.797   5.881  16.813  0.00  0.00    +0.000 A 
ATOM     12  C   UNL     1       4.313   4.569  16.828  0.00  0.00    +0.000 A 
ATOM     13  C   UNL     1       3.143   4.287  17.525  0.00  0.00    +0.000 A 
ATOM     14  C   UNL     1       2.468   5.308  18.205  0.00  0.00    +0.000 A 
ATOM     15  C   UNL     1       2.936   6.633  18.199  0.00  0.00    +0.000 A 
ATOM     16  C   UNL     1       4.116   6.907  17.486  0.00  0.00    +0.000 A 
BRANCH  11  18
ATOM     17  O   UNL     1       6.147   5.761  14.929  0.00  0.00    +0.000 OA
ATOM     18  N   UNL     1       6.032   6.194  16.084  0.00  0.00    +0.000 N 
ATOM     19  O   UNL     1       6.894   6.868  16.669  0.00  0.00    +0.000 OA
ENDBRANCH  11  18
ENDBRANCH   1  15
TORSDOF 2
ENDMDL
MODEL 8
REMARK VINA RESULT:      -6.9      1.550      1.960
REMARK  Name = 
REMARK  2 active torsions:
REMARK  status: ('A' for Active; 'I' for Inactive)
REMARK    1  A    between atoms: N_2  and  C_4
REMARK    2  A    between atoms: C_8  and  C_9
REMARK                            x       y       z     vdW  Elec       q    Type
REMARK                         _______ _______ _______ _____ _____    ______ ____
ROOT
ATOM      1  C   UNL     1       2.339   7.531  18.719  0.00  0.00    +0.000 A 
ATOM      2  S   UNL     1       2.029   9.021  17.879  0.00  0.00    +0.000 S 
ATOM      3  C   UNL     1       1.142   9.681  19.197  0.00  0.00    +0.000 A 
ATOM      4  C   UNL     1       0.498  10.928  19.281  0.00  0.00    +0.000 A 
ATOM      5  C   UNL     1      -0.155  11.267  20.473  0.00  0.00    +0.000 A 
ATOM      6  C   UNL     1      -0.180  10.402  21.562  0.00  0.00    +0.000 A 
ATOM      7  C   UNL     1       0.441   9.165  21.490  0.00  0.00    +0.000 A 
ATOM      8  N   UNL     1       1.132   8.823  20.204  0.00  0.00    +0.000 N 
ATOM      9  C   UNL     1       1.779   7.626  19.982  0.00  0.00    +0.000 A 
ATOM     10  O   UNL     1       1.816   6.675  20.897  0.00  0.00    +0.000 OA
ENDROOT
BRANCH   1  15
ATOM     11  C   UNL     1       5.039   5.713  16.753  0.00  0.00    +0.000 A 
ATOM     12  C   UNL     1       4.553   4.402  16.739  0.00  0.00    +0.000 A 
ATOM     13  C   UNL     1       3.347   4.120  17.373  0.00  0.00    +0.000 A 
ATOM     14  C   UNL     1       2.639   5.139  18.021  0.00  0.00    +0.000 A 
ATOM     15  C   UNL     1       3.109   6.463  18.043  0.00  0.00    +0.000 A 
ATOM     16  C   UNL     1       4.324   6.738  17.393  0.00  0.00    +0.000 A 
BRANCH  11  18
ATOM     17  O   UNL     1       7.131   6.717  16.714  0.00  0.00    +0.000 OA
ATOM     18  N   UNL     1       6.310   6.027  16.092  0.00  0.00    +0.000 N 
ATOM     19  O   UNL     1       6.488   5.593  14.944  0.00  0.00    +0.000 OA
ENDBRANCH  11  18
ENDBRANCH   1  15
TORSDOF 2
ENDMDL
MODEL 9
REMARK VINA RESULT:      -6.9      2.348      2.714
REMARK  Name = 
REMARK  2 active torsions:
REMARK  status: ('A' for Active; 'I' for Inactive)
REMARK    1  A    between atoms: N_2  and  C_4
REMARK    2  A    between atoms: C_8  and  C_9
REMARK                            x       y       z     vdW  Elec       q    Type
REMARK                         _______ _______ _______ _____ _____    ______ ____
ROOT
ATOM      1  C   UNL     1       2.218   7.543  18.996  0.00  0.00    +0.000 A 
ATOM      2  S   UNL     1       1.732   7.271  20.643  0.00  0.00    +0.000 S 
ATOM      3  C   UNL     1       1.031   8.836  20.786  0.00  0.00    +0.000 A 
ATOM      4  C   UNL     1       0.415   9.419  21.907  0.00  0.00    +0.000 A 
ATOM      5  C   UNL     1      -0.108  10.713  21.789  0.00  0.00    +0.000 A 
ATOM      6  C   UNL     1      -0.029  11.425  20.595  0.00  0.00    +0.000 A 
ATOM      7  C   UNL     1       0.585  10.866  19.485  0.00  0.00    +0.000 A 
ATOM      8  N   UNL     1       1.139   9.482  19.637  0.00  0.00    +0.000 N 
ATOM      9  C   UNL     1       1.787   8.806  18.625  0.00  0.00    +0.000 A 
ATOM     10  O   UNL     1       1.985   9.352  17.439  0.00  0.00    +0.000 OA
ENDROOT
BRANCH   1  15
ATOM     11  C   UNL     1       3.243   4.137  17.653  0.00  0.00    +0.000 A 
ATOM     12  C   UNL     1       4.363   4.456  16.879  0.00  0.00    +0.000 A 
ATOM     13  C   UNL     1       4.775   5.782  16.799  0.00  0.00    +0.000 A 
ATOM     14  C   UNL     1       4.068   6.780  17.482  0.00  0.00    +0.000 A 
ATOM     15  C   UNL     1       2.943   6.479  18.268  0.00  0.00    +0.000 A 
ATOM     16  C   UNL     1       2.540   5.134  18.347  0.00  0.00    +0.000 A 
BRANCH  11  18
ATOM     17  O   UNL     1       1.573   2.529  17.755  0.00  0.00    +0.000 OA
ATOM     18  N   UNL     1       2.793   2.743  17.746  0.00  0.00    +0.000 N 
ATOM     19  O   UNL     1       3.660   1.860  17.819  0.00  0.00    +0.000 OA
ENDBRANCH  11  18
ENDBRANCH   1  15
TORSDOF 2
ENDMDL
