MODEL 1
REMARK VINA RESULT:      -6.1      0.000      0.000
REMARK  Name = 
REMARK  5 active torsions:
REMARK  status: ('A' for Active; 'I' for Inactive)
REMARK    1  A    between atoms: N_9  and  C_10
REMARK    2  A    between atoms: C_10  and  O_11
REMARK    3  A    between atoms: O_11  and  C_12
REMARK    4  A    between atoms: C_12  and  C_13
REMARK    5  A    between atoms: C_13  and  O_14
REMARK                            x       y       z     vdW  Elec       q    Type
REMARK                         _______ _______ _______ _____ _____    ______ ____
ROOT
ATOM      1  N   UNL     1       8.352   5.258  20.461  0.00  0.00    +0.000 N 
ATOM      2  C   UNL     1       7.718   5.692  19.315  0.00  0.00    +0.000 A 
ATOM      3  N   UNL     1       8.154   6.854  18.815  0.00  0.00    +0.000 NA
ATOM      4  C   UNL     1       7.605   7.297  17.659  0.00  0.00    +0.000 A 
ATOM      5  F   UNL     1       8.039   8.460  17.158  0.00  0.00    +0.000 F 
ATOM      6  C   UNL     1       6.616   6.558  17.020  0.00  0.00    +0.000 A 
ATOM      7  N   UNL     1       5.888   6.732  15.863  0.00  0.00    +0.000 NA
ATOM      8  C   UNL     1       5.105   5.675  15.792  0.00  0.00    +0.000 A 
ATOM      9  N   UNL     1       5.287   4.833  16.859  0.00  0.00    +0.000 N 
ATOM     10  C   UNL     1       6.248   5.388  17.664  0.00  0.00    +0.000 A 
ATOM     11  N   UNL     1       6.742   4.914  18.817  0.00  0.00    +0.000 NA
ATOM     12  H   UNL     1       8.805   6.028  20.934  0.00  0.00    +0.000 HD
ATOM     13  H   UNL     1       7.778   4.632  21.006  0.00  0.00    +0.000 HD
ENDROOT
BRANCH   9  14
ATOM     14  C   UNL     1       4.559   3.606  17.111  0.00  0.00    +0.000 C 
BRANCH  14  15
ATOM     15  O   UNL     1       3.167   3.911  17.222  0.00  0.00    +0.000 OA
BRANCH  15  16
ATOM     16  C   UNL     1       2.745   3.899  18.593  0.00  0.00    +0.000 C 
BRANCH  16  17
ATOM     17  C   UNL     1       2.677   5.331  19.122  0.00  0.00    +0.000 C 
BRANCH  17  18
ATOM     18  O   UNL     1       3.747   5.590  20.025  0.00  0.00    +0.000 OA
ATOM     19  H   UNL     1       3.909   6.551  19.991  0.00  0.00    +0.000 HD
ENDBRANCH  17  18
ENDBRANCH  16  17
ENDBRANCH  15  16
ENDBRANCH  14  15
ENDBRANCH   9  14
TORSDOF 5
ENDMDL
MODEL 2
REMARK VINA RESULT:      -6.1      1.991      3.203
REMARK  Name = 
REMARK  5 active torsions:
REMARK  status: ('A' for Active; 'I' for Inactive)
REMARK    1  A    between atoms: N_9  and  C_10
REMARK    2  A    between atoms: C_10  and  O_11
REMARK    3  A    between atoms: O_11  and  C_12
REMARK    4  A    between atoms: C_12  and  C_13
REMARK    5  A    between atoms: C_13  and  O_14
REMARK                            x       y       z     vdW  Elec       q    Type
REMARK                         _______ _______ _______ _____ _____    ______ ____
ROOT
ATOM      1  N   UNL     1       6.597   4.254  13.831  0.00  0.00    +0.000 N 
ATOM      2  C   UNL     1       6.438   4.542  15.170  0.00  0.00    +0.000 A 
ATOM      3  N   UNL     1       7.216   5.520  15.650  0.00  0.00    +0.000 NA
ATOM      4  C   UNL     1       7.060   5.882  16.946  0.00  0.00    +0.000 A 
ATOM      5  F   UNL     1       7.839   6.858  17.427  0.00  0.00    +0.000 F 
ATOM      6  C   UNL     1       6.115   5.248  17.745  0.00  0.00    +0.000 A 
ATOM      7  N   UNL     1       5.724   5.391  19.058  0.00  0.00    +0.000 NA
ATOM      8  C   UNL     1       4.769   4.498  19.227  0.00  0.00    +0.000 A 
ATOM      9  N   UNL     1       4.536   3.779  18.083  0.00  0.00    +0.000 N 
ATOM     10  C   UNL     1       5.398   4.241  17.122  0.00  0.00    +0.000 A 
ATOM     11  N   UNL     1       5.527   3.828  15.853  0.00  0.00    +0.000 NA
ATOM     12  H   UNL     1       7.494   4.577  13.497  0.00  0.00    +0.000 HD
ATOM     13  H   UNL     1       6.312   3.313  13.603  0.00  0.00    +0.000 HD
ENDROOT
BRANCH   9  14
ATOM     14  C   UNL     1       3.586   2.696  17.935  0.00  0.00    +0.000 C 
BRANCH  14  15
ATOM     15  O   UNL     1       2.466   3.166  17.181  0.00  0.00    +0.000 OA
BRANCH  15  16
ATOM     16  C   UNL     1       1.451   3.699  18.044  0.00  0.00    +0.000 C 
BRANCH  16  17
ATOM     17  C   UNL     1       0.880   2.582  18.916  0.00  0.00    +0.000 C 
BRANCH  17  18
ATOM     18  O   UNL     1       0.543   3.070  20.211  0.00  0.00    +0.000 OA
ATOM     19  H   UNL     1       1.281   2.822  20.797  0.00  0.00    +0.000 HD
ENDBRANCH  17  18
ENDBRANCH  16  17
ENDBRANCH  15  16
ENDBRANCH  14  15
ENDBRANCH   9  14
TORSDOF 5
ENDMDL
MODEL 3
REMARK VINA RESULT:      -6.0      3.241      4.681
REMARK  Name = 
REMARK  5 active torsions:
REMARK  status: ('A' for Active; 'I' for Inactive)
REMARK    1  A    between atoms: N_9  and  C_10
REMARK    2  A    between atoms: C_10  and  O_11
REMARK    3  A    between atoms: O_11  and  C_12
REMARK    4  A    between atoms: C_12  and  C_13
REMARK    5  A    between atoms: C_13  and  O_14
REMARK                            x       y       z     vdW  Elec       q    Type
REMARK                         _______ _______ _______ _____ _____    ______ ____
ROOT
ATOM      1  N   UNL     1       5.008   1.983  20.194  0.00  0.00    +0.000 N 
ATOM      2  C   UNL     1       4.581   3.114  19.530  0.00  0.00    +0.000 A 
ATOM      3  N   UNL     1       3.266   3.359  19.587  0.00  0.00    +0.000 NA
ATOM      4  C   UNL     1       2.802   4.488  19.000  0.00  0.00    +0.000 A 
ATOM      5  F   UNL     1       1.488   4.734  19.055  0.00  0.00    +0.000 F 
ATOM      6  C   UNL     1       3.676   5.358  18.358  0.00  0.00    +0.000 A 
ATOM      7  N   UNL     1       3.517   6.555  17.692  0.00  0.00    +0.000 NA
ATOM      8  C   UNL     1       4.732   6.895  17.311  0.00  0.00    +0.000 A 
ATOM      9  N   UNL     1       5.665   5.965  17.691  0.00  0.00    +0.000 N 
ATOM     10  C   UNL     1       5.004   4.965  18.358  0.00  0.00    +0.000 A 
ATOM     11  N   UNL     1       5.513   3.851  18.903  0.00  0.00    +0.000 NA
ATOM     12  H   UNL     1       4.243   1.337  20.333  0.00  0.00    +0.000 HD
ATOM     13  H   UNL     1       5.875   1.624  19.827  0.00  0.00    +0.000 HD
ENDROOT
BRANCH   9  14
ATOM     14  C   UNL     1       7.083   6.009  17.398  0.00  0.00    +0.000 C 
BRANCH  14  15
ATOM     15  O   UNL     1       7.264   5.899  15.984  0.00  0.00    +0.000 OA
BRANCH  15  16
ATOM     16  C   UNL     1       7.115   4.540  15.550  0.00  0.00    +0.000 C 
BRANCH  16  17
ATOM     17  C   UNL     1       6.062   4.467  14.445  0.00  0.00    +0.000 C 
BRANCH  17  18
ATOM     18  O   UNL     1       6.314   3.368  13.575  0.00  0.00    +0.000 OA
ATOM     19  H   UNL     1       6.796   2.705  14.104  0.00  0.00    +0.000 HD
ENDBRANCH  17  18
ENDBRANCH  16  17
ENDBRANCH  15  16
ENDBRANCH  14  15
ENDBRANCH   9  14
TORSDOF 5
ENDMDL
MODEL 4
REMARK VINA RESULT:      -6.0      2.162      3.334
REMARK  Name = 
REMARK  5 active torsions:
REMARK  status: ('A' for Active; 'I' for Inactive)
REMARK    1  A    between atoms: N_9  and  C_10
REMARK    2  A    between atoms: C_10  and  O_11
REMARK    3  A    between atoms: O_11  and  C_12
REMARK    4  A    between atoms: C_12  and  C_13
REMARK    5  A    between atoms: C_13  and  O_14
REMARK                            x       y       z     vdW  Elec       q    Type
REMARK                         _______ _______ _______ _____ _____    ______ ____
ROOT
ATOM      1  N   UNL     1       6.470   3.761  14.059  0.00  0.00    +0.000 N 
ATOM      2  C   UNL     1       6.314   4.174  15.365  0.00  0.00    +0.000 A 
ATOM      3  N   UNL     1       7.177   5.106  15.786  0.00  0.00    +0.000 NA
ATOM      4  C   UNL     1       7.032   5.589  17.043  0.00  0.00    +0.000 A 
ATOM      5  F   UNL     1       7.896   6.520  17.466  0.00  0.00    +0.000 F 
ATOM      6  C   UNL     1       6.012   5.121  17.864  0.00  0.00    +0.000 A 
ATOM      7  N   UNL     1       5.611   5.410  19.150  0.00  0.00    +0.000 NA
ATOM      8  C   UNL     1       4.568   4.634  19.363  0.00  0.00    +0.000 A 
ATOM      9  N   UNL     1       4.286   3.849  18.275  0.00  0.00    +0.000 N 
ATOM     10  C   UNL     1       5.210   4.141  17.304  0.00  0.00    +0.000 A 
ATOM     11  N   UNL     1       5.322   3.613  16.077  0.00  0.00    +0.000 NA
ATOM     12  H   UNL     1       7.402   3.965  13.726  0.00  0.00    +0.000 HD
ATOM     13  H   UNL     1       6.096   2.837  13.899  0.00  0.00    +0.000 HD
ENDROOT
BRANCH   9  14
ATOM     14  C   UNL     1       3.234   2.857  18.188  0.00  0.00    +0.000 C 
BRANCH  14  15
ATOM     15  O   UNL     1       3.003   2.316  19.491  0.00  0.00    +0.000 OA
BRANCH  15  16
ATOM     16  C   UNL     1       1.622   2.432  19.859  0.00  0.00    +0.000 C 
BRANCH  16  17
ATOM     17  C   UNL     1       1.514   2.905  21.308  0.00  0.00    +0.000 C 
BRANCH  17  18
ATOM     18  O   UNL     1       2.682   2.554  22.045  0.00  0.00    +0.000 OA
ATOM     19  H   UNL     1       3.032   3.385  22.415  0.00  0.00    +0.000 HD
ENDBRANCH  17  18
ENDBRANCH  16  17
ENDBRANCH  15  16
ENDBRANCH  14  15
ENDBRANCH   9  14
TORSDOF 5
ENDMDL
MODEL 5
REMARK VINA RESULT:      -6.0      2.229      3.481
REMARK  Name = 
REMARK  5 active torsions:
REMARK  status: ('A' for Active; 'I' for Inactive)
REMARK    1  A    between atoms: N_9  and  C_10
REMARK    2  A    between atoms: C_10  and  O_11
REMARK    3  A    between atoms: O_11  and  C_12
REMARK    4  A    between atoms: C_12  and  C_13
REMARK    5  A    between atoms: C_13  and  O_14
REMARK                            x       y       z     vdW  Elec       q    Type
REMARK                         _______ _______ _______ _____ _____    ______ ____
ROOT
ATOM      1  N   UNL     1       6.376   3.732  14.436  0.00  0.00    +0.000 N 
ATOM      2  C   UNL     1       6.204   4.104  15.753  0.00  0.00    +0.000 A 
ATOM      3  N   UNL     1       7.327   4.329  16.445  0.00  0.00    +0.000 NA
ATOM      4  C   UNL     1       7.214   4.753  17.726  0.00  0.00    +0.000 A 
ATOM      5  F   UNL     1       8.336   4.978  18.419  0.00  0.00    +0.000 F 
ATOM      6  C   UNL     1       5.960   4.941  18.297  0.00  0.00    +0.000 A 
ATOM      7  N   UNL     1       5.526   5.358  19.537  0.00  0.00    +0.000 NA
ATOM      8  C   UNL     1       4.211   5.337  19.461  0.00  0.00    +0.000 A 
ATOM      9  N   UNL     1       3.778   4.914  18.231  0.00  0.00    +0.000 N 
ATOM     10  C   UNL     1       4.888   4.646  17.472  0.00  0.00    +0.000 A 
ATOM     11  N   UNL     1       4.943   4.205  16.207  0.00  0.00    +0.000 NA
ATOM     12  H   UNL     1       7.304   3.362  14.286  0.00  0.00    +0.000 HD
ATOM     13  H   UNL     1       5.590   3.213  14.076  0.00  0.00    +0.000 HD
ENDROOT
BRANCH   9  14
ATOM     14  C   UNL     1       2.398   4.736  17.827  0.00  0.00    +0.000 C 
BRANCH  14  15
ATOM     15  O   UNL     1       1.797   3.745  18.664  0.00  0.00    +0.000 OA
BRANCH  15  16
ATOM     16  C   UNL     1       1.949   2.435  18.100  0.00  0.00    +0.000 C 
BRANCH  16  17
ATOM     17  C   UNL     1       3.110   1.713  18.782  0.00  0.00    +0.000 C 
BRANCH  17  18
ATOM     18  O   UNL     1       4.154   1.439  17.852  0.00  0.00    +0.000 OA
ATOM     19  H   UNL     1       3.773   1.576  16.965  0.00  0.00    +0.000 HD
ENDBRANCH  17  18
ENDBRANCH  16  17
ENDBRANCH  15  16
ENDBRANCH  14  15
ENDBRANCH   9  14
TORSDOF 5
ENDMDL
MODEL 6
REMARK VINA RESULT:      -6.0      3.593      5.052
REMARK  Name = 
REMARK  5 active torsions:
REMARK  status: ('A' for Active; 'I' for Inactive)
REMARK    1  A    between atoms: N_9  and  C_10
REMARK    2  A    between atoms: C_10  and  O_11
REMARK    3  A    between atoms: O_11  and  C_12
REMARK    4  A    between atoms: C_12  and  C_13
REMARK    5  A    between atoms: C_13  and  O_14
REMARK                            x       y       z     vdW  Elec       q    Type
REMARK                         _______ _______ _______ _____ _____    ______ ____
ROOT
ATOM      1  N   UNL     1       5.194   1.484  20.343  0.00  0.00    +0.000 N 
ATOM      2  C   UNL     1       4.336   2.519  20.035  0.00  0.00    +0.000 A 
ATOM      3  N   UNL     1       3.246   2.619  20.805  0.00  0.00    +0.000 NA
ATOM      4  C   UNL     1       2.399   3.652  20.581  0.00  0.00    +0.000 A 
ATOM      5  F   UNL     1       1.308   3.752  21.349  0.00  0.00    +0.000 F 
ATOM      6  C   UNL     1       2.665   4.575  19.576  0.00  0.00    +0.000 A 
ATOM      7  N   UNL     1       2.021   5.705  19.121  0.00  0.00    +0.000 NA
ATOM      8  C   UNL     1       2.778   6.156  18.142  0.00  0.00    +0.000 A 
ATOM      9  N   UNL     1       3.876   5.360  17.938  0.00  0.00    +0.000 N 
ATOM     10  C   UNL     1       3.816   4.334  18.845  0.00  0.00    +0.000 A 
ATOM     11  N   UNL     1       4.675   3.318  19.009  0.00  0.00    +0.000 NA
ATOM     12  H   UNL     1       4.716   0.766  20.870  0.00  0.00    +0.000 HD
ATOM     13  H   UNL     1       5.759   1.204  19.557  0.00  0.00    +0.000 HD
ENDROOT
BRANCH   9  14
ATOM     14  C   UNL     1       4.887   5.546  16.917  0.00  0.00    +0.000 C 
BRANCH  14  15
ATOM     15  O   UNL     1       5.828   6.521  17.373  0.00  0.00    +0.000 OA
BRANCH  15  16
ATOM     16  C   UNL     1       7.168   6.143  17.032  0.00  0.00    +0.000 C 
BRANCH  16  17
ATOM     17  C   UNL     1       7.241   4.629  16.837  0.00  0.00    +0.000 C 
BRANCH  17  18
ATOM     18  O   UNL     1       8.245   4.057  17.669  0.00  0.00    +0.000 OA
ATOM     19  H   UNL     1       8.026   3.110  17.751  0.00  0.00    +0.000 HD
ENDBRANCH  17  18
ENDBRANCH  16  17
ENDBRANCH  15  16
ENDBRANCH  14  15
ENDBRANCH   9  14
TORSDOF 5
ENDMDL
MODEL 7
REMARK VINA RESULT:      -6.0      2.095      2.573
REMARK  Name = 
REMARK  5 active torsions:
REMARK  status: ('A' for Active; 'I' for Inactive)
REMARK    1  A    between atoms: N_9  and  C_10
REMARK    2  A    between atoms: C_10  and  O_11
REMARK    3  A    between atoms: O_11  and  C_12
REMARK    4  A    between atoms: C_12  and  C_13
REMARK    5  A    between atoms: C_13  and  O_14
REMARK                            x       y       z     vdW  Elec       q    Type
REMARK                         _______ _______ _______ _____ _____    ______ ____
ROOT
ATOM      1  N   UNL     1       8.279   5.533  20.116  0.00  0.00    +0.000 N 
ATOM      2  C   UNL     1       7.376   5.225  19.120  0.00  0.00    +0.000 A 
ATOM      3  N   UNL     1       7.901   4.998  17.910  0.00  0.00    +0.000 NA
ATOM      4  C   UNL     1       7.064   4.636  16.909  0.00  0.00    +0.000 A 
ATOM      5  F   UNL     1       7.589   4.409  15.698  0.00  0.00    +0.000 F 
ATOM      6  C   UNL     1       5.700   4.509  17.143  0.00  0.00    +0.000 A 
ATOM      7  N   UNL     1       4.623   4.160  16.357  0.00  0.00    +0.000 NA
ATOM      8  C   UNL     1       3.582   4.215  17.163  0.00  0.00    +0.000 A 
ATOM      9  N   UNL     1       3.939   4.595  18.431  0.00  0.00    +0.000 N 
ATOM     10  C   UNL     1       5.295   4.797  18.435  0.00  0.00    +0.000 A 
ATOM     11  N   UNL     1       6.076   5.180  19.456  0.00  0.00    +0.000 NA
ATOM     12  H   UNL     1       9.147   5.869  19.724  0.00  0.00    +0.000 HD
ATOM     13  H   UNL     1       7.859   6.057  20.869  0.00  0.00    +0.000 HD
ENDROOT
BRANCH   9  14
ATOM     14  C   UNL     1       3.038   4.794  19.547  0.00  0.00    +0.000 C 
BRANCH  14  15
ATOM     15  O   UNL     1       1.857   4.018  19.329  0.00  0.00    +0.000 OA
BRANCH  15  16
ATOM     16  C   UNL     1       1.958   2.737  19.967  0.00  0.00    +0.000 C 
BRANCH  16  17
ATOM     17  C   UNL     1       1.354   2.813  21.369  0.00  0.00    +0.000 C 
BRANCH  17  18
ATOM     18  O   UNL     1       2.375   2.901  22.358  0.00  0.00    +0.000 OA
ATOM     19  H   UNL     1       3.200   3.106  21.881  0.00  0.00    +0.000 HD
ENDBRANCH  17  18
ENDBRANCH  16  17
ENDBRANCH  15  16
ENDBRANCH  14  15
ENDBRANCH   9  14
TORSDOF 5
ENDMDL
MODEL 8
REMARK VINA RESULT:      -5.9      1.007      1.265
REMARK  Name = 
REMARK  5 active torsions:
REMARK  status: ('A' for Active; 'I' for Inactive)
REMARK    1  A    between atoms: N_9  and  C_10
REMARK    2  A    between atoms: C_10  and  O_11
REMARK    3  A    between atoms: O_11  and  C_12
REMARK    4  A    between atoms: C_12  and  C_13
REMARK    5  A    between atoms: C_13  and  O_14
REMARK                            x       y       z     vdW  Elec       q    Type
REMARK                         _______ _______ _______ _____ _____    ______ ____
ROOT
ATOM      1  N   UNL     1       8.475   5.229  20.460  0.00  0.00    +0.000 N 
ATOM      2  C   UNL     1       7.773   5.657  19.353  0.00  0.00    +0.000 A 
ATOM      3  N   UNL     1       8.183   6.813  18.816  0.00  0.00    +0.000 NA
ATOM      4  C   UNL     1       7.565   7.250  17.693  0.00  0.00    +0.000 A 
ATOM      5  F   UNL     1       7.973   8.405  17.156  0.00  0.00    +0.000 F 
ATOM      6  C   UNL     1       6.534   6.511  17.124  0.00  0.00    +0.000 A 
ATOM      7  N   UNL     1       5.736   6.680  16.013  0.00  0.00    +0.000 NA
ATOM      8  C   UNL     1       4.944   5.627  16.000  0.00  0.00    +0.000 A 
ATOM      9  N   UNL     1       5.188   4.793  17.061  0.00  0.00    +0.000 N 
ATOM     10  C   UNL     1       6.200   5.349  17.799  0.00  0.00    +0.000 A 
ATOM     11  N   UNL     1       6.763   4.882  18.923  0.00  0.00    +0.000 NA
ATOM     12  H   UNL     1       8.961   5.999  20.898  0.00  0.00    +0.000 HD
ATOM     13  H   UNL     1       7.933   4.611  21.045  0.00  0.00    +0.000 HD
ENDROOT
BRANCH   9  14
ATOM     14  C   UNL     1       4.470   3.572  17.369  0.00  0.00    +0.000 C 
BRANCH  14  15
ATOM     15  O   UNL     1       3.093   3.750  17.028  0.00  0.00    +0.000 OA
BRANCH  15  16
ATOM     16  C   UNL     1       2.309   4.049  18.191  0.00  0.00    +0.000 C 
BRANCH  16  17
ATOM     17  C   UNL     1       1.336   2.902  18.463  0.00  0.00    +0.000 C 
BRANCH  17  18
ATOM     18  O   UNL     1       1.861   2.013  19.444  0.00  0.00    +0.000 OA
ATOM     19  H   UNL     1       2.422   1.376  18.963  0.00  0.00    +0.000 HD
ENDBRANCH  17  18
ENDBRANCH  16  17
ENDBRANCH  15  16
ENDBRANCH  14  15
ENDBRANCH   9  14
TORSDOF 5
ENDMDL
MODEL 9
REMARK VINA RESULT:      -5.9      4.034      5.691
REMARK  Name = 
REMARK  5 active torsions:
REMARK  status: ('A' for Active; 'I' for Inactive)
REMARK    1  A    between atoms: N_9  and  C_10
REMARK    2  A    between atoms: C_10  and  O_11
REMARK    3  A    between atoms: O_11  and  C_12
REMARK    4  A    between atoms: C_12  and  C_13
REMARK    5  A    between atoms: C_13  and  O_14
REMARK                            x       y       z     vdW  Elec       q    Type
REMARK                         _______ _______ _______ _____ _____    ______ ____
ROOT
ATOM      1  N   UNL     1       2.177   3.183  22.339  0.00  0.00    +0.000 N 
ATOM      2  C   UNL     1       2.243   3.153  20.961  0.00  0.00    +0.000 A 
ATOM      3  N   UNL     1       1.252   2.497  20.347  0.00  0.00    +0.000 NA
ATOM      4  C   UNL     1       1.238   2.485  18.992  0.00  0.00    +0.000 A 
ATOM      5  F   UNL     1       0.248   1.829  18.377  0.00  0.00    +0.000 F 
ATOM      6  C   UNL     1       2.232   3.139  18.272  0.00  0.00    +0.000 A 
ATOM      7  N   UNL     1       2.483   3.311  16.929  0.00  0.00    +0.000 NA
ATOM      8  C   UNL     1       3.580   4.038  16.879  0.00  0.00    +0.000 A 
ATOM      9  N   UNL     1       4.055   4.332  18.131  0.00  0.00    +0.000 N 
ATOM     10  C   UNL     1       3.206   3.755  19.040  0.00  0.00    +0.000 A 
ATOM     11  N   UNL     1       3.279   3.779  20.379  0.00  0.00    +0.000 NA
ATOM     12  H   UNL     1       1.594   2.435  22.687  0.00  0.00    +0.000 HD
ATOM     13  H   UNL     1       3.080   3.324  22.766  0.00  0.00    +0.000 HD
ENDROOT
BRANCH   9  14
ATOM     14  C   UNL     1       5.260   5.076  18.434  0.00  0.00    +0.000 C 
BRANCH  14  15
ATOM     15  O   UNL     1       6.360   4.164  18.496  0.00  0.00    +0.000 OA
BRANCH  15  16
ATOM     16  C   UNL     1       7.522   4.715  17.860  0.00  0.00    +0.000 C 
BRANCH  16  17
ATOM     17  C   UNL     1       7.178   6.073  17.249  0.00  0.00    +0.000 C 
BRANCH  17  18
ATOM     18  O   UNL     1       7.536   6.116  15.871  0.00  0.00    +0.000 OA
ATOM     19  H   UNL     1       7.643   5.189  15.588  0.00  0.00    +0.000 HD
ENDBRANCH  17  18
ENDBRANCH  16  17
ENDBRANCH  15  16
ENDBRANCH  14  15
ENDBRANCH   9  14
TORSDOF 5
ENDMDL
