MODEL 1
REMARK VINA RESULT:      -8.1      0.000      0.000
REMARK  Name = 
REMARK  6 active torsions:
REMARK  status: ('A' for Active; 'I' for Inactive)
REMARK    1  A    between atoms: C_1  and  C_2
REMARK    2  A    between atoms: C_2  and  N_3
REMARK    3  A    between atoms: N_3  and  C_4
REMARK    4  A    between atoms: C_7  and  C_8
REMARK    5  A    between atoms: N_10  and  O_11
REMARK    6  A    between atoms: N_16  and  C_17
REMARK                            x       y       z     vdW  Elec       q    Type
REMARK                         _______ _______ _______ _____ _____    ______ ____
ROOT
ATOM      1  C   UNL     1       0.919   4.383  20.264  0.00  0.00    +0.000 C 
ATOM      2  C   UNL     1       2.273   5.040  19.997  0.00  0.00    +0.000 C 
ATOM      3  C   UNL     1       3.414   4.146  20.521  0.00  0.00    +0.000 C 
ATOM      4  C   UNL     1       4.583   4.439  19.595  0.00  0.00    +0.000 C 
ATOM      5  N   UNL     1       3.981   4.752  18.327  0.00  0.00    +0.000 N 
ATOM      6  C   UNL     1       2.617   5.048  18.487  0.00  0.00    +0.000 C 
ATOM      7  O   UNL     1       1.796   5.203  17.589  0.00  0.00    +0.000 OA
ENDROOT
BRANCH   5   8
ATOM      8  C   UNL     1       4.695   4.769  17.094  0.00  0.00    +0.000 A 
ATOM      9  C   UNL     1       5.204   3.587  16.531  0.00  0.00    +0.000 A 
ATOM     10  C   UNL     1       5.909   3.594  15.321  0.00  0.00    +0.000 A 
ATOM     11  C   UNL     1       6.126   4.793  14.656  0.00  0.00    +0.000 A 
ATOM     12 CL   UNL     1       6.999   4.809  13.176  0.00  0.00    +0.000 Cl
ATOM     13  C   UNL     1       5.631   5.979  15.187  0.00  0.00    +0.000 A 
ATOM     14  C   UNL     1       4.911   5.964  16.391  0.00  0.00    +0.000 A 
ENDBRANCH   5   8
BRANCH   2  15
ATOM     15  N   UNL     1       2.366   6.362  20.687  0.00  0.00    +0.000 N 
ATOM     16  H   UNL     1       2.148   6.269  21.680  0.00  0.00    +0.000 HD
BRANCH  15  17
ATOM     17  C   UNL     1       1.747   7.519  20.187  0.00  0.00    +0.000 A 
ATOM     18  C   UNL     1       0.850   8.234  20.995  0.00  0.00    +0.000 A 
ATOM     19  C   UNL     1       0.264   9.438  20.564  0.00  0.00    +0.000 A 
ATOM     20  C   UNL     1       0.594   9.980  19.316  0.00  0.00    +0.000 A 
ATOM     21  C   UNL     1       1.487   9.284  18.511  0.00  0.00    +0.000 A 
ATOM     22  C   UNL     1       2.060   8.087  18.954  0.00  0.00    +0.000 A 
BRANCH  20  23
ATOM     23  C   UNL     1      -0.012  11.274  18.893  0.00  0.00    +0.000 C 
ATOM     24  O   UNL     1       0.235  12.321  19.488  0.00  0.00    +0.000 OA
ATOM     25  N   UNL     1      -0.829  11.258  17.780  0.00  0.00    +0.000 N 
ATOM     26  H   UNL     1      -0.892  10.503  17.110  0.00  0.00    +0.000 HD
BRANCH  25  27
ATOM     27  O   UNL     1      -1.281  12.522  17.328  0.00  0.00    +0.000 OA
ATOM     28  H   UNL     1      -0.790  12.623  16.485  0.00  0.00    +0.000 HD
ENDBRANCH  25  27
ENDBRANCH  20  23
ENDBRANCH  15  17
ENDBRANCH   2  15
TORSDOF 5
ENDMDL
MODEL 2
REMARK VINA RESULT:      -7.8      4.461      7.948
REMARK  Name = 
REMARK  6 active torsions:
REMARK  status: ('A' for Active; 'I' for Inactive)
REMARK    1  A    between atoms: C_1  and  C_2
REMARK    2  A    between atoms: C_2  and  N_3
REMARK    3  A    between atoms: N_3  and  C_4
REMARK    4  A    between atoms: C_7  and  C_8
REMARK    5  A    between atoms: N_10  and  O_11
REMARK    6  A    between atoms: N_16  and  C_17
REMARK                            x       y       z     vdW  Elec       q    Type
REMARK                         _______ _______ _______ _____ _____    ______ ____
ROOT
ATOM      1  C   UNL     1       7.495   7.921  17.277  0.00  0.00    +0.000 C 
ATOM      2  C   UNL     1       7.132   6.448  17.462  0.00  0.00    +0.000 C 
ATOM      3  C   UNL     1       7.581   5.957  18.851  0.00  0.00    +0.000 C 
ATOM      4  C   UNL     1       6.576   4.877  19.218  0.00  0.00    +0.000 C 
ATOM      5  N   UNL     1       5.350   5.283  18.584  0.00  0.00    +0.000 N 
ATOM      6  C   UNL     1       5.602   6.248  17.593  0.00  0.00    +0.000 C 
ATOM      7  O   UNL     1       4.761   6.900  16.984  0.00  0.00    +0.000 OA
ENDROOT
BRANCH   5   8
ATOM      8  C   UNL     1       4.071   4.754  18.921  0.00  0.00    +0.000 A 
ATOM      9  C   UNL     1       3.283   5.337  19.927  0.00  0.00    +0.000 A 
ATOM     10  C   UNL     1       2.026   4.822  20.267  0.00  0.00    +0.000 A 
ATOM     11  C   UNL     1       1.538   3.701  19.607  0.00  0.00    +0.000 A 
ATOM     12 CL   UNL     1       0.001   3.059  20.027  0.00  0.00    +0.000 Cl
ATOM     13  C   UNL     1       2.293   3.105  18.604  0.00  0.00    +0.000 A 
ATOM     14  C   UNL     1       3.546   3.635  18.256  0.00  0.00    +0.000 A 
ENDBRANCH   5   8
BRANCH   2  15
ATOM     15  N   UNL     1       7.806   5.601  16.431  0.00  0.00    +0.000 N 
ATOM     16  H   UNL     1       8.639   6.067  16.067  0.00  0.00    +0.000 HD
BRANCH  15  17
ATOM     17  C   UNL     1       7.108   5.010  15.366  0.00  0.00    +0.000 A 
ATOM     18  C   UNL     1       7.506   5.267  14.044  0.00  0.00    +0.000 A 
ATOM     19  C   UNL     1       6.884   4.640  12.950  0.00  0.00    +0.000 A 
ATOM     20  C   UNL     1       5.863   3.703  13.155  0.00  0.00    +0.000 A 
ATOM     21  C   UNL     1       5.466   3.437  14.459  0.00  0.00    +0.000 A 
ATOM     22  C   UNL     1       6.095   4.070  15.537  0.00  0.00    +0.000 A 
BRANCH  20  23
ATOM     23  C   UNL     1       5.241   3.024  11.983  0.00  0.00    +0.000 C 
ATOM     24  O   UNL     1       5.685   1.964  11.549  0.00  0.00    +0.000 OA
ATOM     25  N   UNL     1       4.121   3.613  11.430  0.00  0.00    +0.000 N 
ATOM     26  H   UNL     1       3.566   4.339  11.865  0.00  0.00    +0.000 HD
BRANCH  25  27
ATOM     27  O   UNL     1       3.479   2.876  10.406  0.00  0.00    +0.000 OA
ATOM     28  H   UNL     1       4.136   2.927   9.678  0.00  0.00    +0.000 HD
ENDBRANCH  25  27
ENDBRANCH  20  23
ENDBRANCH  15  17
ENDBRANCH   2  15
TORSDOF 5
ENDMDL
MODEL 3
REMARK VINA RESULT:      -7.8      0.450      1.053
REMARK  Name = 
REMARK  6 active torsions:
REMARK  status: ('A' for Active; 'I' for Inactive)
REMARK    1  A    between atoms: C_1  and  C_2
REMARK    2  A    between atoms: C_2  and  N_3
REMARK    3  A    between atoms: N_3  and  C_4
REMARK    4  A    between atoms: C_7  and  C_8
REMARK    5  A    between atoms: N_10  and  O_11
REMARK    6  A    between atoms: N_16  and  C_17
REMARK                            x       y       z     vdW  Elec       q    Type
REMARK                         _______ _______ _______ _____ _____    ______ ____
ROOT
ATOM      1  C   UNL     1       0.877   4.696  20.261  0.00  0.00    +0.000 C 
ATOM      2  C   UNL     1       2.278   5.244  19.988  0.00  0.00    +0.000 C 
ATOM      3  C   UNL     1       3.347   4.262  20.506  0.00  0.00    +0.000 C 
ATOM      4  C   UNL     1       4.532   4.462  19.576  0.00  0.00    +0.000 C 
ATOM      5  N   UNL     1       3.951   4.824  18.310  0.00  0.00    +0.000 N 
ATOM      6  C   UNL     1       2.615   5.227  18.477  0.00  0.00    +0.000 C 
ATOM      7  O   UNL     1       1.805   5.448  17.582  0.00  0.00    +0.000 OA
ENDROOT
BRANCH   5   8
ATOM      8  C   UNL     1       4.659   4.786  17.074  0.00  0.00    +0.000 A 
ATOM      9  C   UNL     1       5.131   3.575  16.543  0.00  0.00    +0.000 A 
ATOM     10  C   UNL     1       5.830   3.528  15.330  0.00  0.00    +0.000 A 
ATOM     11  C   UNL     1       6.077   4.702  14.630  0.00  0.00    +0.000 A 
ATOM     12 CL   UNL     1       6.942   4.652  13.146  0.00  0.00    +0.000 Cl
ATOM     13  C   UNL     1       5.618   5.915  15.129  0.00  0.00    +0.000 A 
ATOM     14  C   UNL     1       4.903   5.954  16.337  0.00  0.00    +0.000 A 
ENDBRANCH   5   8
BRANCH   2  15
ATOM     15  N   UNL     1       2.479   6.553  20.679  0.00  0.00    +0.000 N 
ATOM     16  H   UNL     1       2.483   6.432  21.693  0.00  0.00    +0.000 HD
BRANCH  15  17
ATOM     17  C   UNL     1       1.733   7.699  20.357  0.00  0.00    +0.000 A 
ATOM     18  C   UNL     1       1.906   8.315  19.108  0.00  0.00    +0.000 A 
ATOM     19  C   UNL     1       1.129   9.419  18.714  0.00  0.00    +0.000 A 
ATOM     20  C   UNL     1       0.124   9.915  19.555  0.00  0.00    +0.000 A 
ATOM     21  C   UNL     1      -0.059   9.309  20.791  0.00  0.00    +0.000 A 
ATOM     22  C   UNL     1       0.723   8.212  21.168  0.00  0.00    +0.000 A 
BRANCH  20  23
ATOM     23  C   UNL     1      -0.711  11.064  19.104  0.00  0.00    +0.000 C 
ATOM     24  O   UNL     1      -1.392  11.710  19.897  0.00  0.00    +0.000 OA
ATOM     25  N   UNL     1      -0.657  11.401  17.765  0.00  0.00    +0.000 N 
ATOM     26  H   UNL     1       0.043  11.080  17.109  0.00  0.00    +0.000 HD
BRANCH  25  27
ATOM     27  O   UNL     1      -1.357  12.575  17.396  0.00  0.00    +0.000 OA
ATOM     28  H   UNL     1      -1.668  12.907  18.265  0.00  0.00    +0.000 HD
ENDBRANCH  25  27
ENDBRANCH  20  23
ENDBRANCH  15  17
ENDBRANCH   2  15
TORSDOF 5
ENDMDL
MODEL 4
REMARK VINA RESULT:      -7.7      0.274      1.380
REMARK  Name = 
REMARK  6 active torsions:
REMARK  status: ('A' for Active; 'I' for Inactive)
REMARK    1  A    between atoms: C_1  and  C_2
REMARK    2  A    between atoms: C_2  and  N_3
REMARK    3  A    between atoms: N_3  and  C_4
REMARK    4  A    between atoms: C_7  and  C_8
REMARK    5  A    between atoms: N_10  and  O_11
REMARK    6  A    between atoms: N_16  and  C_17
REMARK                            x       y       z     vdW  Elec       q    Type
REMARK                         _______ _______ _______ _____ _____    ______ ____
ROOT
ATOM      1  C   UNL     1       0.745   4.406  20.220  0.00  0.00    +0.000 C 
ATOM      2  C   UNL     1       2.139   5.001  20.023  0.00  0.00    +0.000 C 
ATOM      3  C   UNL     1       3.216   4.019  20.523  0.00  0.00    +0.000 C 
ATOM      4  C   UNL     1       4.424   4.297  19.644  0.00  0.00    +0.000 C 
ATOM      5  N   UNL     1       3.875   4.711  18.381  0.00  0.00    +0.000 N 
ATOM      6  C   UNL     1       2.524   5.073  18.524  0.00  0.00    +0.000 C 
ATOM      7  O   UNL     1       1.738   5.321  17.616  0.00  0.00    +0.000 OA
ENDROOT
BRANCH   5   8
ATOM      8  C   UNL     1       4.622   4.755  17.169  0.00  0.00    +0.000 A 
ATOM      9  C   UNL     1       4.852   5.968  16.498  0.00  0.00    +0.000 A 
ATOM     10  C   UNL     1       5.583   6.020  15.305  0.00  0.00    +0.000 A 
ATOM     11  C   UNL     1       6.090   4.851  14.755  0.00  0.00    +0.000 A 
ATOM     12 CL   UNL     1       6.980   4.908  13.286  0.00  0.00    +0.000 Cl
ATOM     13  C   UNL     1       5.883   3.636  15.398  0.00  0.00    +0.000 A 
ATOM     14  C   UNL     1       5.164   3.591  16.603  0.00  0.00    +0.000 A 
ENDBRANCH   5   8
BRANCH   2  15
ATOM     15  N   UNL     1       2.285   6.277  20.787  0.00  0.00    +0.000 N 
ATOM     16  H   UNL     1       1.998   6.152  21.759  0.00  0.00    +0.000 HD
BRANCH  15  17
ATOM     17  C   UNL     1       1.784   7.501  20.315  0.00  0.00    +0.000 A 
ATOM     18  C   UNL     1       2.175   7.974  19.053  0.00  0.00    +0.000 A 
ATOM     19  C   UNL     1       1.642   9.157  18.509  0.00  0.00    +0.000 A 
ATOM     20  C   UNL     1       0.668   9.882  19.206  0.00  0.00    +0.000 A 
ATOM     21  C   UNL     1       0.269   9.419  20.454  0.00  0.00    +0.000 A 
ATOM     22  C   UNL     1       0.810   8.241  20.981  0.00  0.00    +0.000 A 
BRANCH  20  23
ATOM     23  C   UNL     1       0.091  11.114  18.597  0.00  0.00    +0.000 C 
ATOM     24  O   UNL     1       0.677  12.192  18.659  0.00  0.00    +0.000 OA
ATOM     25  N   UNL     1      -1.107  10.987  17.922  0.00  0.00    +0.000 N 
ATOM     26  H   UNL     1      -1.524  10.113  17.628  0.00  0.00    +0.000 HD
BRANCH  25  27
ATOM     27  O   UNL     1      -1.559  12.144  17.245  0.00  0.00    +0.000 OA
ATOM     28  H   UNL     1      -2.374  11.817  16.806  0.00  0.00    +0.000 HD
ENDBRANCH  25  27
ENDBRANCH  20  23
ENDBRANCH  15  17
ENDBRANCH   2  15
TORSDOF 5
ENDMDL
MODEL 5
REMARK VINA RESULT:      -7.5      4.544      7.825
REMARK  Name = 
REMARK  6 active torsions:
REMARK  status: ('A' for Active; 'I' for Inactive)
REMARK    1  A    between atoms: C_1  and  C_2
REMARK    2  A    between atoms: C_2  and  N_3
REMARK    3  A    between atoms: N_3  and  C_4
REMARK    4  A    between atoms: C_7  and  C_8
REMARK    5  A    between atoms: N_10  and  O_11
REMARK    6  A    between atoms: N_16  and  C_17
REMARK                            x       y       z     vdW  Elec       q    Type
REMARK                         _______ _______ _______ _____ _____    ______ ____
ROOT
ATOM      1  C   UNL     1       7.300   7.994  17.152  0.00  0.00    +0.000 C 
ATOM      2  C   UNL     1       7.053   6.495  17.321  0.00  0.00    +0.000 C 
ATOM      3  C   UNL     1       7.430   6.048  18.746  0.00  0.00    +0.000 C 
ATOM      4  C   UNL     1       6.496   4.885  19.041  0.00  0.00    +0.000 C 
ATOM      5  N   UNL     1       5.295   5.181  18.308  0.00  0.00    +0.000 N 
ATOM      6  C   UNL     1       5.540   6.162  17.332  0.00  0.00    +0.000 C 
ATOM      7  O   UNL     1       4.697   6.738  16.652  0.00  0.00    +0.000 OA
ENDROOT
BRANCH   5   8
ATOM      8  C   UNL     1       4.044   4.542  18.546  0.00  0.00    +0.000 A 
ATOM      9  C   UNL     1       3.605   3.477  17.744  0.00  0.00    +0.000 A 
ATOM     10  C   UNL     1       2.376   2.844  17.970  0.00  0.00    +0.000 A 
ATOM     11  C   UNL     1       1.556   3.279  19.003  0.00  0.00    +0.000 A 
ATOM     12 CL   UNL     1       0.042   2.514  19.278  0.00  0.00    +0.000 Cl
ATOM     13  C   UNL     1       1.965   4.329  19.816  0.00  0.00    +0.000 A 
ATOM     14  C   UNL     1       3.206   4.948  19.596  0.00  0.00    +0.000 A 
ENDBRANCH   5   8
BRANCH   2  15
ATOM     15  N   UNL     1       7.879   5.709  16.355  0.00  0.00    +0.000 N 
ATOM     16  H   UNL     1       8.680   6.255  16.035  0.00  0.00    +0.000 HD
BRANCH  15  17
ATOM     17  C   UNL     1       7.319   5.031  15.260  0.00  0.00    +0.000 A 
ATOM     18  C   UNL     1       6.360   4.029  15.477  0.00  0.00    +0.000 A 
ATOM     19  C   UNL     1       5.719   3.376  14.409  0.00  0.00    +0.000 A 
ATOM     20  C   UNL     1       5.998   3.739  13.085  0.00  0.00    +0.000 A 
ATOM     21  C   UNL     1       6.941   4.733  12.860  0.00  0.00    +0.000 A 
ATOM     22  C   UNL     1       7.570   5.373  13.934  0.00  0.00    +0.000 A 
BRANCH  20  23
ATOM     23  C   UNL     1       5.282   3.058  11.970  0.00  0.00    +0.000 C 
ATOM     24  O   UNL     1       5.654   1.968  11.543  0.00  0.00    +0.000 OA
ATOM     25  N   UNL     1       4.158   3.681  11.463  0.00  0.00    +0.000 N 
ATOM     26  H   UNL     1       3.660   4.441  11.907  0.00  0.00    +0.000 HD
BRANCH  25  27
ATOM     27  O   UNL     1       3.428   2.946  10.498  0.00  0.00    +0.000 OA
ATOM     28  H   UNL     1       2.967   2.282  11.054  0.00  0.00    +0.000 HD
ENDBRANCH  25  27
ENDBRANCH  20  23
ENDBRANCH  15  17
ENDBRANCH   2  15
TORSDOF 5
ENDMDL
MODEL 6
REMARK VINA RESULT:      -7.5      0.963      1.246
REMARK  Name = 
REMARK  6 active torsions:
REMARK  status: ('A' for Active; 'I' for Inactive)
REMARK    1  A    between atoms: C_1  and  C_2
REMARK    2  A    between atoms: C_2  and  N_3
REMARK    3  A    between atoms: N_3  and  C_4
REMARK    4  A    between atoms: C_7  and  C_8
REMARK    5  A    between atoms: N_10  and  O_11
REMARK    6  A    between atoms: N_16  and  C_17
REMARK                            x       y       z     vdW  Elec       q    Type
REMARK                         _______ _______ _______ _____ _____    ______ ____
ROOT
ATOM      1  C   UNL     1       0.947   3.780  19.960  0.00  0.00    +0.000 C 
ATOM      2  C   UNL     1       2.317   4.455  19.901  0.00  0.00    +0.000 C 
ATOM      3  C   UNL     1       3.410   3.492  20.404  0.00  0.00    +0.000 C 
ATOM      4  C   UNL     1       4.656   3.892  19.632  0.00  0.00    +0.000 C 
ATOM      5  N   UNL     1       4.169   4.371  18.366  0.00  0.00    +0.000 N 
ATOM      6  C   UNL     1       2.795   4.655  18.442  0.00  0.00    +0.000 C 
ATOM      7  O   UNL     1       2.057   4.931  17.501  0.00  0.00    +0.000 OA
ENDROOT
BRANCH   5   8
ATOM      8  C   UNL     1       4.990   4.540  17.214  0.00  0.00    +0.000 A 
ATOM      9  C   UNL     1       5.969   5.545  17.159  0.00  0.00    +0.000 A 
ATOM     10  C   UNL     1       6.779   5.720  16.029  0.00  0.00    +0.000 A 
ATOM     11  C   UNL     1       6.612   4.894  14.926  0.00  0.00    +0.000 A 
ATOM     12 CL   UNL     1       7.596   5.111  13.534  0.00  0.00    +0.000 Cl
ATOM     13  C   UNL     1       5.653   3.888  14.953  0.00  0.00    +0.000 A 
ATOM     14  C   UNL     1       4.856   3.706  16.094  0.00  0.00    +0.000 A 
ENDBRANCH   5   8
BRANCH   2  15
ATOM     15  N   UNL     1       2.345   5.676  20.762  0.00  0.00    +0.000 N 
ATOM     16  H   UNL     1       1.943   5.483  21.680  0.00  0.00    +0.000 HD
BRANCH  15  17
ATOM     17  C   UNL     1       1.885   6.925  20.314  0.00  0.00    +0.000 A 
ATOM     18  C   UNL     1       1.055   7.699  21.140  0.00  0.00    +0.000 A 
ATOM     19  C   UNL     1       0.631   8.987  20.764  0.00  0.00    +0.000 A 
ATOM     20  C   UNL     1       1.062   9.551  19.557  0.00  0.00    +0.000 A 
ATOM     21  C   UNL     1       1.888   8.796  18.734  0.00  0.00    +0.000 A 
ATOM     22  C   UNL     1       2.301   7.516  19.123  0.00  0.00    +0.000 A 
BRANCH  20  23
ATOM     23  C   UNL     1       0.628  10.930  19.194  0.00  0.00    +0.000 C 
ATOM     24  O   UNL     1      -0.311  11.476  19.766  0.00  0.00    +0.000 OA
ATOM     25  N   UNL     1       1.352  11.586  18.217  0.00  0.00    +0.000 N 
ATOM     26  H   UNL     1       2.261  11.305  17.874  0.00  0.00    +0.000 HD
BRANCH  25  27
ATOM     27  O   UNL     1       0.997  12.938  17.990  0.00  0.00    +0.000 OA
ATOM     28  H   UNL     1       0.579  12.891  17.103  0.00  0.00    +0.000 HD
ENDBRANCH  25  27
ENDBRANCH  20  23
ENDBRANCH  15  17
ENDBRANCH   2  15
TORSDOF 5
ENDMDL
MODEL 7
REMARK VINA RESULT:      -7.5      3.674      6.638
REMARK  Name = 
REMARK  6 active torsions:
REMARK  status: ('A' for Active; 'I' for Inactive)
REMARK    1  A    between atoms: C_1  and  C_2
REMARK    2  A    between atoms: C_2  and  N_3
REMARK    3  A    between atoms: N_3  and  C_4
REMARK    4  A    between atoms: C_7  and  C_8
REMARK    5  A    between atoms: N_10  and  O_11
REMARK    6  A    between atoms: N_16  and  C_17
REMARK                            x       y       z     vdW  Elec       q    Type
REMARK                         _______ _______ _______ _____ _____    ______ ____
ROOT
ATOM      1  C   UNL     1       1.689   2.496  21.342  0.00  0.00    +0.000 C 
ATOM      2  C   UNL     1       2.253   3.246  20.136  0.00  0.00    +0.000 C 
ATOM      3  C   UNL     1       1.258   3.193  18.960  0.00  0.00    +0.000 C 
ATOM      4  C   UNL     1       1.497   4.487  18.200  0.00  0.00    +0.000 C 
ATOM      5  N   UNL     1       1.902   5.436  19.202  0.00  0.00    +0.000 N 
ATOM      6  C   UNL     1       2.293   4.774  20.379  0.00  0.00    +0.000 C 
ATOM      7  O   UNL     1       2.542   5.300  21.459  0.00  0.00    +0.000 OA
ENDROOT
BRANCH   5   8
ATOM      8  C   UNL     1       1.912   6.846  19.000  0.00  0.00    +0.000 A 
ATOM      9  C   UNL     1       2.478   7.413  17.846  0.00  0.00    +0.000 A 
ATOM     10  C   UNL     1       2.494   8.798  17.641  0.00  0.00    +0.000 A 
ATOM     11  C   UNL     1       1.949   9.644  18.597  0.00  0.00    +0.000 A 
ATOM     12 CL   UNL     1       1.974  11.345  18.355  0.00  0.00    +0.000 Cl
ATOM     13  C   UNL     1       1.378   9.112  19.747  0.00  0.00    +0.000 A 
ATOM     14  C   UNL     1       1.349   7.722  19.941  0.00  0.00    +0.000 A 
ENDBRANCH   5   8
BRANCH   2  15
ATOM     15  N   UNL     1       3.538   2.632  19.682  0.00  0.00    +0.000 N 
ATOM     16  H   UNL     1       4.058   2.251  20.474  0.00  0.00    +0.000 HD
BRANCH  15  17
ATOM     17  C   UNL     1       4.430   3.296  18.825  0.00  0.00    +0.000 A 
ATOM     18  C   UNL     1       4.376   3.059  17.443  0.00  0.00    +0.000 A 
ATOM     19  C   UNL     1       5.199   3.756  16.540  0.00  0.00    +0.000 A 
ATOM     20  C   UNL     1       6.080   4.743  17.000  0.00  0.00    +0.000 A 
ATOM     21  C   UNL     1       6.137   4.990  18.366  0.00  0.00    +0.000 A 
ATOM     22  C   UNL     1       5.312   4.287  19.251  0.00  0.00    +0.000 A 
BRANCH  20  23
ATOM     23  C   UNL     1       6.918   5.494  16.023  0.00  0.00    +0.000 C 
ATOM     24  O   UNL     1       7.523   6.512  16.349  0.00  0.00    +0.000 OA
ATOM     25  N   UNL     1       7.022   4.976  14.747  0.00  0.00    +0.000 N 
ATOM     26  H   UNL     1       6.756   4.039  14.471  0.00  0.00    +0.000 HD
BRANCH  25  27
ATOM     27  O   UNL     1       7.928   5.638  13.884  0.00  0.00    +0.000 OA
ATOM     28  H   UNL     1       7.616   6.567  13.937  0.00  0.00    +0.000 HD
ENDBRANCH  25  27
ENDBRANCH  20  23
ENDBRANCH  15  17
ENDBRANCH   2  15
TORSDOF 5
ENDMDL
MODEL 8
REMARK VINA RESULT:      -7.4      1.059      1.438
REMARK  Name = 
REMARK  6 active torsions:
REMARK  status: ('A' for Active; 'I' for Inactive)
REMARK    1  A    between atoms: C_1  and  C_2
REMARK    2  A    between atoms: C_2  and  N_3
REMARK    3  A    between atoms: N_3  and  C_4
REMARK    4  A    between atoms: C_7  and  C_8
REMARK    5  A    between atoms: N_10  and  O_11
REMARK    6  A    between atoms: N_16  and  C_17
REMARK                            x       y       z     vdW  Elec       q    Type
REMARK                         _______ _______ _______ _____ _____    ______ ____
ROOT
ATOM      1  C   UNL     1       0.938   3.763  19.844  0.00  0.00    +0.000 C 
ATOM      2  C   UNL     1       2.332   4.388  19.827  0.00  0.00    +0.000 C 
ATOM      3  C   UNL     1       3.386   3.357  20.276  0.00  0.00    +0.000 C 
ATOM      4  C   UNL     1       4.650   3.754  19.531  0.00  0.00    +0.000 C 
ATOM      5  N   UNL     1       4.187   4.324  18.295  0.00  0.00    +0.000 N 
ATOM      6  C   UNL     1       2.824   4.654  18.383  0.00  0.00    +0.000 C 
ATOM      7  O   UNL     1       2.101   5.012  17.459  0.00  0.00    +0.000 OA
ENDROOT
BRANCH   5   8
ATOM      8  C   UNL     1       5.018   4.528  17.156  0.00  0.00    +0.000 A 
ATOM      9  C   UNL     1       4.841   3.781  15.981  0.00  0.00    +0.000 A 
ATOM     10  C   UNL     1       5.655   3.973  14.857  0.00  0.00    +0.000 A 
ATOM     11  C   UNL     1       6.673   4.916  14.897  0.00  0.00    +0.000 A 
ATOM     12 CL   UNL     1       7.682   5.150  13.526  0.00  0.00    +0.000 Cl
ATOM     13  C   UNL     1       6.870   5.675  16.046  0.00  0.00    +0.000 A 
ATOM     14  C   UNL     1       6.041   5.489  17.162  0.00  0.00    +0.000 A 
ENDBRANCH   5   8
BRANCH   2  15
ATOM     15  N   UNL     1       2.402   5.556  20.757  0.00  0.00    +0.000 N 
ATOM     16  H   UNL     1       1.971   5.331  21.655  0.00  0.00    +0.000 HD
BRANCH  15  17
ATOM     17  C   UNL     1       2.015   6.850  20.374  0.00  0.00    +0.000 A 
ATOM     18  C   UNL     1       2.435   7.367  19.139  0.00  0.00    +0.000 A 
ATOM     19  C   UNL     1       2.011   8.627  18.682  0.00  0.00    +0.000 A 
ATOM     20  C   UNL     1       1.118   9.394  19.440  0.00  0.00    +0.000 A 
ATOM     21  C   UNL     1       0.691   8.889  20.662  0.00  0.00    +0.000 A 
ATOM     22  C   UNL     1       1.123   7.633  21.103  0.00  0.00    +0.000 A 
BRANCH  20  23
ATOM     23  C   UNL     1       0.655  10.711  18.921  0.00  0.00    +0.000 C 
ATOM     24  O   UNL     1      -0.498  11.097  19.095  0.00  0.00    +0.000 OA
ATOM     25  N   UNL     1       1.585  11.501  18.274  0.00  0.00    +0.000 N 
ATOM     26  H   UNL     1       2.587  11.364  18.298  0.00  0.00    +0.000 HD
BRANCH  25  27
ATOM     27  O   UNL     1       1.148  12.798  17.911  0.00  0.00    +0.000 OA
ATOM     28  H   UNL     1       0.724  13.108  18.740  0.00  0.00    +0.000 HD
ENDBRANCH  25  27
ENDBRANCH  20  23
ENDBRANCH  15  17
ENDBRANCH   2  15
TORSDOF 5
ENDMDL
MODEL 9
REMARK VINA RESULT:      -7.4      4.100      6.770
REMARK  Name = 
REMARK  6 active torsions:
REMARK  status: ('A' for Active; 'I' for Inactive)
REMARK    1  A    between atoms: C_1  and  C_2
REMARK    2  A    between atoms: C_2  and  N_3
REMARK    3  A    between atoms: N_3  and  C_4
REMARK    4  A    between atoms: C_7  and  C_8
REMARK    5  A    between atoms: N_10  and  O_11
REMARK    6  A    between atoms: N_16  and  C_17
REMARK                            x       y       z     vdW  Elec       q    Type
REMARK                         _______ _______ _______ _____ _____    ______ ____
ROOT
ATOM      1  C   UNL     1       4.206   2.295  19.241  0.00  0.00    +0.000 C 
ATOM      2  C   UNL     1       3.965   3.585  18.458  0.00  0.00    +0.000 C 
ATOM      3  C   UNL     1       2.652   3.489  17.658  0.00  0.00    +0.000 C 
ATOM      4  C   UNL     1       2.142   4.919  17.587  0.00  0.00    +0.000 C 
ATOM      5  N   UNL     1       2.596   5.534  18.806  0.00  0.00    +0.000 N 
ATOM      6  C   UNL     1       3.616   4.767  19.395  0.00  0.00    +0.000 C 
ATOM      7  O   UNL     1       4.102   4.938  20.509  0.00  0.00    +0.000 OA
ENDROOT
BRANCH   5   8
ATOM      8  C   UNL     1       2.078   6.759  19.316  0.00  0.00    +0.000 A 
ATOM      9  C   UNL     1       1.637   6.867  20.645  0.00  0.00    +0.000 A 
ATOM     10  C   UNL     1       1.124   8.066  21.154  0.00  0.00    +0.000 A 
ATOM     11  C   UNL     1       1.034   9.182  20.332  0.00  0.00    +0.000 A 
ATOM     12 CL   UNL     1       0.397  10.654  20.948  0.00  0.00    +0.000 Cl
ATOM     13  C   UNL     1       1.467   9.107  19.013  0.00  0.00    +0.000 A 
ATOM     14  C   UNL     1       1.996   7.907  18.513  0.00  0.00    +0.000 A 
ENDBRANCH   5   8
BRANCH   2  15
ATOM     15  N   UNL     1       5.078   3.836  17.492  0.00  0.00    +0.000 N 
ATOM     16  H   UNL     1       5.654   3.001  17.378  0.00  0.00    +0.000 HD
BRANCH  15  17
ATOM     17  C   UNL     1       5.913   4.961  17.579  0.00  0.00    +0.000 A 
ATOM     18  C   UNL     1       5.532   6.162  16.961  0.00  0.00    +0.000 A 
ATOM     19  C   UNL     1       6.301   7.333  17.083  0.00  0.00    +0.000 A 
ATOM     20  C   UNL     1       7.462   7.341  17.866  0.00  0.00    +0.000 A 
ATOM     21  C   UNL     1       7.845   6.159  18.488  0.00  0.00    +0.000 A 
ATOM     22  C   UNL     1       7.070   5.002  18.355  0.00  0.00    +0.000 A 
BRANCH  20  23
ATOM     23  C   UNL     1       8.243   8.602  18.011  0.00  0.00    +0.000 C 
ATOM     24  O   UNL     1       8.221   9.471  17.142  0.00  0.00    +0.000 OA
ATOM     25  N   UNL     1       8.959   8.774  19.179  0.00  0.00    +0.000 N 
ATOM     26  H   UNL     1       8.843   8.229  20.023  0.00  0.00    +0.000 HD
BRANCH  25  27
ATOM     27  O   UNL     1       9.582  10.036  19.341  0.00  0.00    +0.000 OA
ATOM     28  H   UNL     1      10.449   9.891  18.905  0.00  0.00    +0.000 HD
ENDBRANCH  25  27
ENDBRANCH  20  23
ENDBRANCH  15  17
ENDBRANCH   2  15
TORSDOF 5
ENDMDL
