MODEL 1
REMARK VINA RESULT:      -7.0      0.000      0.000
REMARK  Name = 
REMARK  2 active torsions:
REMARK  status: ('A' for Active; 'I' for Inactive)
REMARK    1  A    between atoms: C_2  and  C_3
REMARK    2  A    between atoms: C_15  and  N_16
REMARK                            x       y       z     vdW  Elec       q    Type
REMARK                         _______ _______ _______ _____ _____    ______ ____
ROOT
ATOM      1  O   UNL     1       1.843   6.707  18.618  0.00  0.00    +0.000 OA
ATOM      2  C   UNL     1       2.449   5.652  18.457  0.00  0.00    +0.000 C 
ATOM      3  N   UNL     1       3.710   5.577  17.840  0.00  0.00    +0.000 N 
ATOM      4  C   UNL     1       4.328   6.829  17.417  0.00  0.00    +0.000 C 
ATOM      5  C   UNL     1       5.092   6.664  16.107  0.00  0.00    +0.000 C 
ATOM      6  C   UNL     1       6.065   5.470  16.082  0.00  0.00    +0.000 C 
ATOM      7  C   UNL     1       5.392   4.213  16.666  0.00  0.00    +0.000 C 
ATOM      8  C   UNL     1       4.647   4.454  17.972  0.00  0.00    +0.000 C 
ENDROOT
BRANCH   2   9
ATOM      9  C   UNL     1       1.802   4.390  18.887  0.00  0.00    +0.000 A 
ATOM     10  C   UNL     1       1.048   3.631  17.975  0.00  0.00    +0.000 A 
ATOM     11  C   UNL     1       0.560   2.365  18.328  0.00  0.00    +0.000 A 
ATOM     12  C   UNL     1       0.738   1.885  19.626  0.00  0.00    +0.000 A 
ATOM     13  C   UNL     1       1.387   2.700  20.534  0.00  0.00    +0.000 A 
ATOM     14  C   UNL     1       1.917   3.924  20.182  0.00  0.00    +0.000 A 
ATOM     15  O   UNL     1       2.544   4.517  21.234  0.00  0.00    +0.000 OA
ATOM     16  C   UNL     1       2.245   3.597  22.299  0.00  0.00    +0.000 C 
ATOM     17  O   UNL     1       1.599   2.392  21.842  0.00  0.00    +0.000 OA
ENDBRANCH   2   9
BRANCH   6  18
ATOM     18  N   UNL     1       7.435   5.672  16.589  0.00  0.00    +0.000 NA
ATOM     19  C   UNL     1       7.930   4.844  17.684  0.00  0.00    +0.000 C 
ATOM     20  C   UNL     1       7.735   5.660  18.942  0.00  0.00    +0.000 C 
ATOM     21  C   UNL     1       7.986   7.078  18.478  0.00  0.00    +0.000 C 
ATOM     22  C   UNL     1       7.708   7.066  16.979  0.00  0.00    +0.000 C 
ENDBRANCH   6  18
TORSDOF 2
ENDMDL
MODEL 2
REMARK VINA RESULT:      -7.0      4.093      6.033
REMARK  Name = 
REMARK  2 active torsions:
REMARK  status: ('A' for Active; 'I' for Inactive)
REMARK    1  A    between atoms: C_2  and  C_3
REMARK    2  A    between atoms: C_15  and  N_16
REMARK                            x       y       z     vdW  Elec       q    Type
REMARK                         _______ _______ _______ _____ _____    ______ ____
ROOT
ATOM      1  O   UNL     1       1.956   5.330  21.235  0.00  0.00    +0.000 OA
ATOM      2  C   UNL     1       2.199   5.883  20.167  0.00  0.00    +0.000 C 
ATOM      3  N   UNL     1       1.885   7.229  19.911  0.00  0.00    +0.000 N 
ATOM      4  C   UNL     1       1.281   7.998  20.994  0.00  0.00    +0.000 C 
ATOM      5  C   UNL     1       0.237   8.980  20.473  0.00  0.00    +0.000 C 
ATOM      6  C   UNL     1       0.716   9.859  19.302  0.00  0.00    +0.000 C 
ATOM      7  C   UNL     1       1.462   9.007  18.258  0.00  0.00    +0.000 C 
ATOM      8  C   UNL     1       2.487   8.049  18.851  0.00  0.00    +0.000 C 
ENDROOT
BRANCH   2   9
ATOM      9  C   UNL     1       2.805   5.085  19.076  0.00  0.00    +0.000 A 
ATOM     10  C   UNL     1       1.992   4.357  18.190  0.00  0.00    +0.000 A 
ATOM     11  C   UNL     1       2.543   3.723  17.068  0.00  0.00    +0.000 A 
ATOM     12  C   UNL     1       3.924   3.729  16.871  0.00  0.00    +0.000 A 
ATOM     13  C   UNL     1       4.710   4.359  17.817  0.00  0.00    +0.000 A 
ATOM     14  C   UNL     1       4.174   5.030  18.896  0.00  0.00    +0.000 A 
ATOM     15  O   UNL     1       5.143   5.604  19.659  0.00  0.00    +0.000 OA
ATOM     16  C   UNL     1       6.336   5.120  19.015  0.00  0.00    +0.000 C 
ATOM     17  O   UNL     1       6.069   4.414  17.787  0.00  0.00    +0.000 OA
ENDBRANCH   2   9
BRANCH   6  18
ATOM     18  N   UNL     1       1.414  11.121  19.613  0.00  0.00    +0.000 NA
ATOM     19  C   UNL     1       0.825  12.057  20.565  0.00  0.00    +0.000 C 
ATOM     20  C   UNL     1       0.096  13.089  19.734  0.00  0.00    +0.000 C 
ATOM     21  C   UNL     1       0.968  13.224  18.505  0.00  0.00    +0.000 C 
ATOM     22  C   UNL     1       1.741  11.913  18.414  0.00  0.00    +0.000 C 
ENDBRANCH   6  18
TORSDOF 2
ENDMDL
MODEL 3
REMARK VINA RESULT:      -6.8      2.379      3.527
REMARK  Name = 
REMARK  2 active torsions:
REMARK  status: ('A' for Active; 'I' for Inactive)
REMARK    1  A    between atoms: C_2  and  C_3
REMARK    2  A    between atoms: C_15  and  N_16
REMARK                            x       y       z     vdW  Elec       q    Type
REMARK                         _______ _______ _______ _____ _____    ______ ____
ROOT
ATOM      1  O   UNL     1       5.988   4.490  19.998  0.00  0.00    +0.000 OA
ATOM      2  C   UNL     1       5.260   4.237  19.043  0.00  0.00    +0.000 C 
ATOM      3  N   UNL     1       5.659   4.411  17.707  0.00  0.00    +0.000 N 
ATOM      4  C   UNL     1       7.022   4.874  17.466  0.00  0.00    +0.000 C 
ATOM      5  C   UNL     1       7.090   5.825  16.276  0.00  0.00    +0.000 C 
ATOM      6  C   UNL     1       6.394   5.306  15.003  0.00  0.00    +0.000 C 
ATOM      7  C   UNL     1       5.017   4.708  15.347  0.00  0.00    +0.000 C 
ATOM      8  C   UNL     1       5.026   3.771  16.547  0.00  0.00    +0.000 C 
ENDROOT
BRANCH   2   9
ATOM      9  C   UNL     1       3.878   3.774  19.307  0.00  0.00    +0.000 A 
ATOM     10  C   UNL     1       3.515   2.438  19.062  0.00  0.00    +0.000 A 
ATOM     11  C   UNL     1       2.258   1.954  19.448  0.00  0.00    +0.000 A 
ATOM     12  C   UNL     1       1.314   2.823  19.996  0.00  0.00    +0.000 A 
ATOM     13  C   UNL     1       1.658   4.155  20.125  0.00  0.00    +0.000 A 
ATOM     14  C   UNL     1       2.910   4.631  19.797  0.00  0.00    +0.000 A 
ATOM     15  O   UNL     1       3.021   5.963  20.052  0.00  0.00    +0.000 OA
ATOM     16  C   UNL     1       1.679   6.288  20.455  0.00  0.00    +0.000 C 
ATOM     17  O   UNL     1       0.835   5.128  20.601  0.00  0.00    +0.000 OA
ENDBRANCH   2   9
BRANCH   6  18
ATOM     18  N   UNL     1       7.170   4.458  14.077  0.00  0.00    +0.000 NA
ATOM     19  C   UNL     1       8.052   5.080  13.096  0.00  0.00    +0.000 C 
ATOM     20  C   UNL     1       7.265   5.136  11.806  0.00  0.00    +0.000 C 
ATOM     21  C   UNL     1       6.440   3.869  11.848  0.00  0.00    +0.000 C 
ATOM     22  C   UNL     1       6.332   3.507  13.325  0.00  0.00    +0.000 C 
ENDBRANCH   6  18
TORSDOF 2
ENDMDL
MODEL 4
REMARK VINA RESULT:      -6.6      2.476      3.698
REMARK  Name = 
REMARK  2 active torsions:
REMARK  status: ('A' for Active; 'I' for Inactive)
REMARK    1  A    between atoms: C_2  and  C_3
REMARK    2  A    between atoms: C_15  and  N_16
REMARK                            x       y       z     vdW  Elec       q    Type
REMARK                         _______ _______ _______ _____ _____    ______ ____
ROOT
ATOM      1  O   UNL     1       6.188   5.130  20.067  0.00  0.00    +0.000 OA
ATOM      2  C   UNL     1       5.405   4.902  19.150  0.00  0.00    +0.000 C 
ATOM      3  N   UNL     1       5.782   4.924  17.795  0.00  0.00    +0.000 N 
ATOM      4  C   UNL     1       7.184   5.191  17.491  0.00  0.00    +0.000 C 
ATOM      5  C   UNL     1       7.334   6.035  16.230  0.00  0.00    +0.000 C 
ATOM      6  C   UNL     1       6.541   5.516  15.015  0.00  0.00    +0.000 C 
ATOM      7  C   UNL     1       5.110   5.126  15.434  0.00  0.00    +0.000 C 
ATOM      8  C   UNL     1       5.038   4.286  16.702  0.00  0.00    +0.000 C 
ENDROOT
BRANCH   2   9
ATOM      9  C   UNL     1       3.984   4.640  19.477  0.00  0.00    +0.000 A 
ATOM     10  C   UNL     1       3.161   5.676  19.954  0.00  0.00    +0.000 A 
ATOM     11  C   UNL     1       1.784   5.476  20.124  0.00  0.00    +0.000 A 
ATOM     12  C   UNL     1       1.230   4.214  19.909  0.00  0.00    +0.000 A 
ATOM     13  C   UNL     1       2.080   3.187  19.547  0.00  0.00    +0.000 A 
ATOM     14  C   UNL     1       3.427   3.385  19.327  0.00  0.00    +0.000 A 
ATOM     15  O   UNL     1       4.044   2.235  18.937  0.00  0.00    +0.000 OA
ATOM     16  C   UNL     1       2.971   1.283  19.056  0.00  0.00    +0.000 C 
ATOM     17  O   UNL     1       1.699   1.897  19.343  0.00  0.00    +0.000 OA
ENDBRANCH   2   9
BRANCH   6  18
ATOM     18  N   UNL     1       7.174   4.510  14.142  0.00  0.00    +0.000 NA
ATOM     19  C   UNL     1       8.026   4.944  13.040  0.00  0.00    +0.000 C 
ATOM     20  C   UNL     1       7.149   4.929  11.808  0.00  0.00    +0.000 C 
ATOM     21  C   UNL     1       6.233   3.749  12.049  0.00  0.00    +0.000 C 
ATOM     22  C   UNL     1       6.211   3.559  13.561  0.00  0.00    +0.000 C 
ENDBRANCH   6  18
TORSDOF 2
ENDMDL
MODEL 5
REMARK VINA RESULT:      -6.5      4.352      6.192
REMARK  Name = 
REMARK  2 active torsions:
REMARK  status: ('A' for Active; 'I' for Inactive)
REMARK    1  A    between atoms: C_2  and  C_3
REMARK    2  A    between atoms: C_15  and  N_16
REMARK                            x       y       z     vdW  Elec       q    Type
REMARK                         _______ _______ _______ _____ _____    ______ ____
ROOT
ATOM      1  O   UNL     1       2.137   5.886  21.118  0.00  0.00    +0.000 OA
ATOM      2  C   UNL     1       2.219   6.392  20.003  0.00  0.00    +0.000 C 
ATOM      3  N   UNL     1       1.817   7.711  19.727  0.00  0.00    +0.000 N 
ATOM      4  C   UNL     1       1.323   8.511  20.842  0.00  0.00    +0.000 C 
ATOM      5  C   UNL     1       0.180   9.426  20.414  0.00  0.00    +0.000 C 
ATOM      6  C   UNL     1       0.469  10.261  19.152  0.00  0.00    +0.000 C 
ATOM      7  C   UNL     1       1.114   9.384  18.062  0.00  0.00    +0.000 C 
ATOM      8  C   UNL     1       2.245   8.496  18.562  0.00  0.00    +0.000 C 
ENDROOT
BRANCH   2   9
ATOM      9  C   UNL     1       2.717   5.562  18.882  0.00  0.00    +0.000 A 
ATOM     10  C   UNL     1       3.756   6.028  18.058  0.00  0.00    +0.000 A 
ATOM     11  C   UNL     1       4.335   5.192  17.092  0.00  0.00    +0.000 A 
ATOM     12  C   UNL     1       3.818   3.915  16.875  0.00  0.00    +0.000 A 
ATOM     13  C   UNL     1       2.725   3.522  17.623  0.00  0.00    +0.000 A 
ATOM     14  C   UNL     1       2.182   4.317  18.612  0.00  0.00    +0.000 A 
ATOM     15  O   UNL     1       1.144   3.696  19.237  0.00  0.00    +0.000 OA
ATOM     16  C   UNL     1       1.022   2.493  18.458  0.00  0.00    +0.000 C 
ATOM     17  O   UNL     1       2.085   2.328  17.498  0.00  0.00    +0.000 OA
ENDBRANCH   2   9
BRANCH   6  18
ATOM     18  N   UNL     1       1.146  11.562  19.312  0.00  0.00    +0.000 NA
ATOM     19  C   UNL     1       1.250  12.163  20.637  0.00  0.00    +0.000 C 
ATOM     20  C   UNL     1       0.113  13.155  20.734  0.00  0.00    +0.000 C 
ATOM     21  C   UNL     1      -0.000  13.692  19.324  0.00  0.00    +0.000 C 
ATOM     22  C   UNL     1       0.600  12.610  18.432  0.00  0.00    +0.000 C 
ENDBRANCH   6  18
TORSDOF 2
ENDMDL
MODEL 6
REMARK VINA RESULT:      -6.5      2.510      3.902
REMARK  Name = 
REMARK  2 active torsions:
REMARK  status: ('A' for Active; 'I' for Inactive)
REMARK    1  A    between atoms: C_2  and  C_3
REMARK    2  A    between atoms: C_15  and  N_16
REMARK                            x       y       z     vdW  Elec       q    Type
REMARK                         _______ _______ _______ _____ _____    ______ ____
ROOT
ATOM      1  O   UNL     1       6.498   5.019  19.849  0.00  0.00    +0.000 OA
ATOM      2  C   UNL     1       5.566   5.006  19.051  0.00  0.00    +0.000 C 
ATOM      3  N   UNL     1       5.743   4.843  17.666  0.00  0.00    +0.000 N 
ATOM      4  C   UNL     1       7.103   4.637  17.181  0.00  0.00    +0.000 C 
ATOM      5  C   UNL     1       7.332   5.329  15.841  0.00  0.00    +0.000 C 
ATOM      6  C   UNL     1       6.259   5.030  14.776  0.00  0.00    +0.000 C 
ATOM      7  C   UNL     1       4.849   5.133  15.389  0.00  0.00    +0.000 C 
ATOM      8  C   UNL     1       4.696   4.421  16.726  0.00  0.00    +0.000 C 
ENDROOT
BRANCH   2   9
ATOM      9  C   UNL     1       4.192   5.223  19.561  0.00  0.00    +0.000 A 
ATOM     10  C   UNL     1       3.568   6.475  19.415  0.00  0.00    +0.000 A 
ATOM     11  C   UNL     1       2.220   6.647  19.757  0.00  0.00    +0.000 A 
ATOM     12  C   UNL     1       1.507   5.598  20.337  0.00  0.00    +0.000 A 
ATOM     13  C   UNL     1       2.176   4.412  20.571  0.00  0.00    +0.000 A 
ATOM     14  C   UNL     1       3.487   4.215  20.190  0.00  0.00    +0.000 A 
ATOM     15  O   UNL     1       3.909   2.956  20.487  0.00  0.00    +0.000 OA
ATOM     16  C   UNL     1       2.772   2.434  21.196  0.00  0.00    +0.000 C 
ATOM     17  O   UNL     1       1.632   3.316  21.165  0.00  0.00    +0.000 OA
ENDBRANCH   2   9
BRANCH   6  18
ATOM     18  N   UNL     1       6.427   3.834  13.928  0.00  0.00    +0.000 NA
ATOM     19  C   UNL     1       7.401   3.851  12.841  0.00  0.00    +0.000 C 
ATOM     20  C   UNL     1       6.619   4.181  11.590  0.00  0.00    +0.000 C 
ATOM     21  C   UNL     1       5.289   3.498  11.822  0.00  0.00    +0.000 C 
ATOM     22  C   UNL     1       5.164   3.363  13.335  0.00  0.00    +0.000 C 
ENDBRANCH   6  18
TORSDOF 2
ENDMDL
MODEL 7
REMARK VINA RESULT:      -6.3      3.505      6.189
REMARK  Name = 
REMARK  2 active torsions:
REMARK  status: ('A' for Active; 'I' for Inactive)
REMARK    1  A    between atoms: C_2  and  C_3
REMARK    2  A    between atoms: C_15  and  N_16
REMARK                            x       y       z     vdW  Elec       q    Type
REMARK                         _______ _______ _______ _____ _____    ______ ____
ROOT
ATOM      1  O   UNL     1       3.452   3.403  20.148  0.00  0.00    +0.000 OA
ATOM      2  C   UNL     1       3.610   4.398  19.447  0.00  0.00    +0.000 C 
ATOM      3  N   UNL     1       2.965   5.622  19.695  0.00  0.00    +0.000 N 
ATOM      4  C   UNL     1       2.104   5.703  20.871  0.00  0.00    +0.000 C 
ATOM      5  C   UNL     1       0.873   6.564  20.607  0.00  0.00    +0.000 C 
ATOM      6  C   UNL     1       1.177   7.940  19.985  0.00  0.00    +0.000 C 
ATOM      7  C   UNL     1       2.195   7.799  18.838  0.00  0.00    +0.000 C 
ATOM      8  C   UNL     1       3.396   6.924  19.172  0.00  0.00    +0.000 C 
ENDROOT
BRANCH   2   9
ATOM      9  C   UNL     1       4.483   4.295  18.254  0.00  0.00    +0.000 A 
ATOM     10  C   UNL     1       3.961   3.846  17.028  0.00  0.00    +0.000 A 
ATOM     11  C   UNL     1       4.737   3.888  15.861  0.00  0.00    +0.000 A 
ATOM     12  C   UNL     1       6.071   4.289  15.924  0.00  0.00    +0.000 A 
ATOM     13  C   UNL     1       6.590   4.620  17.162  0.00  0.00    +0.000 A 
ATOM     14  C   UNL     1       5.821   4.633  18.307  0.00  0.00    +0.000 A 
ATOM     15  O   UNL     1       6.543   5.034  19.388  0.00  0.00    +0.000 OA
ATOM     16  C   UNL     1       7.861   5.151  18.823  0.00  0.00    +0.000 C 
ATOM     17  O   UNL     1       7.880   4.988  17.391  0.00  0.00    +0.000 OA
ENDBRANCH   2   9
BRANCH   6  18
ATOM     18  N   UNL     1       1.487   9.065  20.889  0.00  0.00    +0.000 NA
ATOM     19  C   UNL     1       1.280   8.916  22.325  0.00  0.00    +0.000 C 
ATOM     20  C   UNL     1      -0.070   9.531  22.615  0.00  0.00    +0.000 C 
ATOM     21  C   UNL     1      -0.141  10.686  21.641  0.00  0.00    +0.000 C 
ATOM     22  C   UNL     1       0.810  10.316  20.508  0.00  0.00    +0.000 C 
ENDBRANCH   6  18
TORSDOF 2
ENDMDL
MODEL 8
REMARK VINA RESULT:      -6.3      3.177      6.432
REMARK  Name = 
REMARK  2 active torsions:
REMARK  status: ('A' for Active; 'I' for Inactive)
REMARK    1  A    between atoms: C_2  and  C_3
REMARK    2  A    between atoms: C_15  and  N_16
REMARK                            x       y       z     vdW  Elec       q    Type
REMARK                         _______ _______ _______ _____ _____    ______ ____
ROOT
ATOM      1  O   UNL     1       4.835   3.295  19.561  0.00  0.00    +0.000 OA
ATOM      2  C   UNL     1       4.650   4.295  18.875  0.00  0.00    +0.000 C 
ATOM      3  N   UNL     1       3.724   5.298  19.213  0.00  0.00    +0.000 N 
ATOM      4  C   UNL     1       2.990   5.143  20.465  0.00  0.00    +0.000 C 
ATOM      5  C   UNL     1       1.553   5.637  20.338  0.00  0.00    +0.000 C 
ATOM      6  C   UNL     1       1.413   7.044  19.726  0.00  0.00    +0.000 C 
ATOM      7  C   UNL     1       2.316   7.184  18.486  0.00  0.00    +0.000 C 
ATOM      8  C   UNL     1       3.735   6.668  18.685  0.00  0.00    +0.000 C 
ENDROOT
BRANCH   2   9
ATOM      9  C   UNL     1       5.399   4.432  17.604  0.00  0.00    +0.000 A 
ATOM     10  C   UNL     1       5.152   3.555  16.534  0.00  0.00    +0.000 A 
ATOM     11  C   UNL     1       5.743   3.767  15.281  0.00  0.00    +0.000 A 
ATOM     12  C   UNL     1       6.661   4.804  15.110  0.00  0.00    +0.000 A 
ATOM     13  C   UNL     1       6.969   5.585  16.208  0.00  0.00    +0.000 A 
ATOM     14  C   UNL     1       6.354   5.416  17.431  0.00  0.00    +0.000 A 
ATOM     15  O   UNL     1       6.790   6.330  18.340  0.00  0.00    +0.000 OA
ATOM     16  C   UNL     1       7.822   7.001  17.594  0.00  0.00    +0.000 C 
ATOM     17  O   UNL     1       7.872   6.602  16.210  0.00  0.00    +0.000 OA
ENDBRANCH   2   9
BRANCH   6  18
ATOM     18  N   UNL     1       1.493   8.210  20.626  0.00  0.00    +0.000 NA
ATOM     19  C   UNL     1       0.831   8.167  21.925  0.00  0.00    +0.000 C 
ATOM     20  C   UNL     1      -0.498   8.863  21.736  0.00  0.00    +0.000 C 
ATOM     21  C   UNL     1      -0.181   9.952  20.736  0.00  0.00    +0.000 C 
ATOM     22  C   UNL     1       1.054   9.464  19.987  0.00  0.00    +0.000 C 
ENDBRANCH   6  18
TORSDOF 2
ENDMDL
MODEL 9
REMARK VINA RESULT:      -6.3      4.455      6.660
REMARK  Name = 
REMARK  2 active torsions:
REMARK  status: ('A' for Active; 'I' for Inactive)
REMARK    1  A    between atoms: C_2  and  C_3
REMARK    2  A    between atoms: C_15  and  N_16
REMARK                            x       y       z     vdW  Elec       q    Type
REMARK                         _______ _______ _______ _____ _____    ______ ____
ROOT
ATOM      1  O   UNL     1       2.173  10.066  17.453  0.00  0.00    +0.000 OA
ATOM      2  C   UNL     1       1.688   9.558  18.460  0.00  0.00    +0.000 C 
ATOM      3  N   UNL     1       1.976   8.244  18.870  0.00  0.00    +0.000 N 
ATOM      4  C   UNL     1       2.931   7.483  18.071  0.00  0.00    +0.000 C 
ATOM      5  C   UNL     1       2.540   6.011  17.981  0.00  0.00    +0.000 C 
ATOM      6  C   UNL     1       2.223   5.350  19.336  0.00  0.00    +0.000 C 
ATOM      7  C   UNL     1       1.320   6.266  20.184  0.00  0.00    +0.000 C 
ATOM      8  C   UNL     1       1.770   7.720  20.227  0.00  0.00    +0.000 C 
ENDROOT
BRANCH   2   9
ATOM      9  C   UNL     1       0.716  10.343  19.254  0.00  0.00    +0.000 A 
ATOM     10  C   UNL     1       1.093  10.908  20.485  0.00  0.00    +0.000 A 
ATOM     11  C   UNL     1       0.231  11.775  21.170  0.00  0.00    +0.000 A 
ATOM     12  C   UNL     1      -1.053  12.013  20.681  0.00  0.00    +0.000 A 
ATOM     13  C   UNL     1      -1.438  11.358  19.526  0.00  0.00    +0.000 A 
ATOM     14  C   UNL     1      -0.580  10.544  18.817  0.00  0.00    +0.000 A 
ATOM     15  O   UNL     1      -1.172  10.050  17.696  0.00  0.00    +0.000 OA
ATOM     16  C   UNL     1      -2.517  10.540  17.845  0.00  0.00    +0.000 C 
ATOM     17  O   UNL     1      -2.667  11.454  18.950  0.00  0.00    +0.000 OA
ENDBRANCH   2   9
BRANCH   6  18
ATOM     18  N   UNL     1       3.337   4.770  20.111  0.00  0.00    +0.000 NA
ATOM     19  C   UNL     1       4.649   4.624  19.491  0.00  0.00    +0.000 C 
ATOM     20  C   UNL     1       4.722   3.194  19.006  0.00  0.00    +0.000 C 
ATOM     21  C   UNL     1       3.948   2.432  20.059  0.00  0.00    +0.000 C 
ATOM     22  C   UNL     1       3.014   3.456  20.693  0.00  0.00    +0.000 C 
ENDBRANCH   6  18
TORSDOF 2
ENDMDL
