MODEL 1
REMARK VINA RESULT:      -8.3      0.000      0.000
REMARK  Name = 
REMARK  11 active torsions:
REMARK  status: ('A' for Active; 'I' for Inactive)
REMARK    1  A    between atoms: C_1  and  C_2
REMARK    2  A    between atoms: C_2  and  C_3
REMARK    3  A    between atoms: C_3  and  S_4
REMARK    4  A    between atoms: S_4  and  N_7
REMARK    5  A    between atoms: N_7  and  C_8
REMARK    6  A    between atoms: C_13  and  C_14
REMARK    7  A    between atoms: N_16  and  C_17
REMARK    8  A    between atoms: C_22  and  O_23
REMARK    9  A    between atoms: O_23  and  C_24
REMARK   10  A    between atoms: C_24  and  C_25
REMARK   11  A    between atoms: C_24  and  C_26
REMARK                            x       y       z     vdW  Elec       q    Type
REMARK                         _______ _______ _______ _____ _____    ______ ____
ROOT
ATOM      1  C   UNL     1       1.853   5.730  20.359  0.00  0.00    +0.000 C 
ATOM      2  O   UNL     1       0.670   5.429  20.456  0.00  0.00    +0.000 OA
ATOM      3  N   UNL     1       2.316   7.043  20.434  0.00  0.00    +0.000 N 
ATOM      4  H   UNL     1       3.314   7.200  20.299  0.00  0.00    +0.000 HD
ENDROOT
BRANCH   3   5
ATOM      5  C   UNL     1       1.536   8.176  20.633  0.00  0.00    +0.000 A 
ATOM      6  C   UNL     1       1.119   9.109  19.519  0.00  0.00    +0.000 A 
ATOM      7  N   UNL     1       0.453  10.220  19.634  0.00  0.00    +0.000 NA
ATOM      8  C   UNL     1       0.066  10.552  20.893  0.00  0.00    +0.000 A 
ATOM      9  C   UNL     1      -0.611  11.647  21.375  0.00  0.00    +0.000 A 
ATOM     10  C   UNL     1      -0.733  11.402  22.743  0.00  0.00    +0.000 A 
ATOM     11  N   UNL     1      -0.199  10.241  23.132  0.00  0.00    +0.000 NA
ATOM     12  N   UNL     1       0.330   9.728  21.991  0.00  0.00    +0.000 N 
ATOM     13  C   UNL     1       1.074   8.553  21.841  0.00  0.00    +0.000 A 
BRANCH  10  14
ATOM     14  O   UNL     1      -1.332  12.229  23.633  0.00  0.00    +0.000 OA
BRANCH  14  15
ATOM     15  C   UNL     1      -2.106  13.284  23.048  0.00  0.00    +0.000 C 
ATOM     16  C   UNL     1      -3.602  13.039  23.261  0.00  0.00    +0.000 C 
ATOM     17  C   UNL     1      -1.722  14.592  23.743  0.00  0.00    +0.000 C 
ENDBRANCH  14  15
ENDBRANCH  10  14
ENDBRANCH   3   5
BRANCH   1  23
ATOM     18  C   UNL     1       4.715   3.691  18.884  0.00  0.00    +0.000 A 
ATOM     19  C   UNL     1       4.705   2.561  19.696  0.00  0.00    +0.000 A 
ATOM     20  C   UNL     1       3.783   2.469  20.741  0.00  0.00    +0.000 A 
ATOM     21  C   UNL     1       2.858   3.493  20.960  0.00  0.00    +0.000 A 
ATOM     22  F   UNL     1       2.010   3.364  21.993  0.00  0.00    +0.000 F 
ATOM     23  C   UNL     1       2.823   4.620  20.143  0.00  0.00    +0.000 A 
ATOM     24  C   UNL     1       3.763   4.704  19.096  0.00  0.00    +0.000 A 
ATOM     25  F   UNL     1       3.816   5.771  18.285  0.00  0.00    +0.000 F 
BRANCH  18  26
ATOM     26  N   UNL     1       5.685   3.792  17.819  0.00  0.00    +0.000 N 
ATOM     27  H   UNL     1       6.098   2.879  17.593  0.00  0.00    +0.000 HD
BRANCH  26  28
ATOM     28  S   UNL     1       7.014   4.827  18.093  0.00  0.00    +0.000 S 
ATOM     29  O   UNL     1       8.169   4.079  17.673  0.00  0.00    +0.000 OA
ATOM     30  O   UNL     1       6.905   5.402  19.418  0.00  0.00    +0.000 OA
BRANCH  28  31
ATOM     31  C   UNL     1       6.717   6.128  16.877  0.00  0.00    +0.000 C 
BRANCH  31  33
ATOM     32  C   UNL     1       6.666   4.941  14.623  0.00  0.00    +0.000 C 
ATOM     33  C   UNL     1       5.853   5.604  15.727  0.00  0.00    +0.000 C 
ENDBRANCH  31  33
ENDBRANCH  28  31
ENDBRANCH  26  28
ENDBRANCH  18  26
ENDBRANCH   1  23
TORSDOF 8
ENDMDL
MODEL 2
REMARK VINA RESULT:      -8.1      2.140      2.644
REMARK  Name = 
REMARK  11 active torsions:
REMARK  status: ('A' for Active; 'I' for Inactive)
REMARK    1  A    between atoms: C_1  and  C_2
REMARK    2  A    between atoms: C_2  and  C_3
REMARK    3  A    between atoms: C_3  and  S_4
REMARK    4  A    between atoms: S_4  and  N_7
REMARK    5  A    between atoms: N_7  and  C_8
REMARK    6  A    between atoms: C_13  and  C_14
REMARK    7  A    between atoms: N_16  and  C_17
REMARK    8  A    between atoms: C_22  and  O_23
REMARK    9  A    between atoms: O_23  and  C_24
REMARK   10  A    between atoms: C_24  and  C_25
REMARK   11  A    between atoms: C_24  and  C_26
REMARK                            x       y       z     vdW  Elec       q    Type
REMARK                         _______ _______ _______ _____ _____    ______ ____
ROOT
ATOM      1  C   UNL     1       2.229   7.007  18.809  0.00  0.00    +0.000 C 
ATOM      2  O   UNL     1       1.913   7.791  17.922  0.00  0.00    +0.000 OA
ATOM      3  N   UNL     1       1.994   7.251  20.162  0.00  0.00    +0.000 N 
ATOM      4  H   UNL     1       2.330   6.559  20.830  0.00  0.00    +0.000 HD
ENDROOT
BRANCH   3   5
ATOM      5  C   UNL     1       1.380   8.376  20.697  0.00  0.00    +0.000 A 
ATOM      6  C   UNL     1       1.515   8.792  22.144  0.00  0.00    +0.000 A 
ATOM      7  N   UNL     1       0.919   9.787  22.734  0.00  0.00    +0.000 NA
ATOM      8  C   UNL     1       0.116  10.548  21.946  0.00  0.00    +0.000 A 
ATOM      9  C   UNL     1      -0.674  11.634  22.237  0.00  0.00    +0.000 A 
ATOM     10  C   UNL     1      -1.233  11.994  21.010  0.00  0.00    +0.000 A 
ATOM     11  N   UNL     1      -0.836  11.224  19.993  0.00  0.00    +0.000 NA
ATOM     12  N   UNL     1      -0.027  10.303  20.577  0.00  0.00    +0.000 N 
ATOM     13  C   UNL     1       0.604   9.209  19.977  0.00  0.00    +0.000 A 
BRANCH  10  14
ATOM     14  O   UNL     1      -2.095  13.020  20.816  0.00  0.00    +0.000 OA
BRANCH  14  15
ATOM     15  C   UNL     1      -3.394  12.832  21.394  0.00  0.00    +0.000 C 
ATOM     16  C   UNL     1      -3.670  13.893  22.461  0.00  0.00    +0.000 C 
ATOM     17  C   UNL     1      -4.431  12.979  20.278  0.00  0.00    +0.000 C 
ENDBRANCH  14  15
ENDBRANCH  10  14
ENDBRANCH   3   5
BRANCH   1  23
ATOM     18  C   UNL     1       4.903   4.325  18.394  0.00  0.00    +0.000 A 
ATOM     19  C   UNL     1       4.222   3.357  17.662  0.00  0.00    +0.000 A 
ATOM     20  C   UNL     1       2.884   3.563  17.320  0.00  0.00    +0.000 A 
ATOM     21  C   UNL     1       2.234   4.744  17.691  0.00  0.00    +0.000 A 
ATOM     22  F   UNL     1       0.940   4.880  17.357  0.00  0.00    +0.000 F 
ATOM     23  C   UNL     1       2.899   5.743  18.395  0.00  0.00    +0.000 A 
ATOM     24  C   UNL     1       4.248   5.520  18.739  0.00  0.00    +0.000 A 
ATOM     25  F   UNL     1       4.950   6.420  19.445  0.00  0.00    +0.000 F 
BRANCH  18  26
ATOM     26  N   UNL     1       6.281   4.097  18.765  0.00  0.00    +0.000 N 
ATOM     27  H   UNL     1       6.492   4.477  19.696  0.00  0.00    +0.000 HD
BRANCH  26  28
ATOM     28  S   UNL     1       7.468   4.759  17.733  0.00  0.00    +0.000 S 
ATOM     29  O   UNL     1       6.791   5.008  16.489  0.00  0.00    +0.000 OA
ATOM     30  O   UNL     1       8.670   3.956  17.812  0.00  0.00    +0.000 OA
BRANCH  28  31
ATOM     31  C   UNL     1       7.787   6.350  18.524  0.00  0.00    +0.000 C 
BRANCH  31  33
ATOM     32  C   UNL     1       8.187   8.807  17.982  0.00  0.00    +0.000 C 
ATOM     33  C   UNL     1       7.539   7.500  17.546  0.00  0.00    +0.000 C 
ENDBRANCH  31  33
ENDBRANCH  28  31
ENDBRANCH  26  28
ENDBRANCH  18  26
ENDBRANCH   1  23
TORSDOF 8
ENDMDL
MODEL 3
REMARK VINA RESULT:      -8.1      1.730      1.940
REMARK  Name = 
REMARK  11 active torsions:
REMARK  status: ('A' for Active; 'I' for Inactive)
REMARK    1  A    between atoms: C_1  and  C_2
REMARK    2  A    between atoms: C_2  and  C_3
REMARK    3  A    between atoms: C_3  and  S_4
REMARK    4  A    between atoms: S_4  and  N_7
REMARK    5  A    between atoms: N_7  and  C_8
REMARK    6  A    between atoms: C_13  and  C_14
REMARK    7  A    between atoms: N_16  and  C_17
REMARK    8  A    between atoms: C_22  and  O_23
REMARK    9  A    between atoms: O_23  and  C_24
REMARK   10  A    between atoms: C_24  and  C_25
REMARK   11  A    between atoms: C_24  and  C_26
REMARK                            x       y       z     vdW  Elec       q    Type
REMARK                         _______ _______ _______ _____ _____    ______ ____
ROOT
ATOM      1  C   UNL     1       2.043   6.430  19.739  0.00  0.00    +0.000 C 
ATOM      2  O   UNL     1       1.549   6.248  20.844  0.00  0.00    +0.000 OA
ATOM      3  N   UNL     1       1.965   7.644  19.057  0.00  0.00    +0.000 N 
ATOM      4  H   UNL     1       2.370   7.687  18.123  0.00  0.00    +0.000 HD
ENDROOT
BRANCH   3   5
ATOM      5  C   UNL     1       1.343   8.800  19.513  0.00  0.00    +0.000 A 
ATOM      6  C   UNL     1       1.028   9.983  18.626  0.00  0.00    +0.000 A 
ATOM      7  N   UNL     1       0.515  11.122  18.990  0.00  0.00    +0.000 NA
ATOM      8  C   UNL     1       0.200  11.236  20.306  0.00  0.00    +0.000 A 
ATOM      9  C   UNL     1      -0.319  12.286  21.026  0.00  0.00    +0.000 A 
ATOM     10  C   UNL     1      -0.444  11.787  22.324  0.00  0.00    +0.000 A 
ATOM     11  N   UNL     1      -0.057  10.514  22.448  0.00  0.00    +0.000 NA
ATOM     12  N   UNL     1       0.377  10.182  21.205  0.00  0.00    +0.000 N 
ATOM     13  C   UNL     1       0.958   8.978  20.791  0.00  0.00    +0.000 A 
BRANCH  10  14
ATOM     14  O   UNL     1      -0.911  12.484  23.386  0.00  0.00    +0.000 OA
BRANCH  14  15
ATOM     15  C   UNL     1      -2.123  13.211  23.144  0.00  0.00    +0.000 C 
ATOM     16  C   UNL     1      -3.341  12.392  23.579  0.00  0.00    +0.000 C 
ATOM     17  C   UNL     1      -2.076  14.495  23.975  0.00  0.00    +0.000 C 
ENDBRANCH  14  15
ENDBRANCH  10  14
ENDBRANCH   3   5
BRANCH   1  23
ATOM     18  C   UNL     1       4.857   4.117  18.620  0.00  0.00    +0.000 A 
ATOM     19  C   UNL     1       4.153   3.112  17.963  0.00  0.00    +0.000 A 
ATOM     20  C   UNL     1       2.759   3.171  17.902  0.00  0.00    +0.000 A 
ATOM     21  C   UNL     1       2.071   4.243  18.477  0.00  0.00    +0.000 A 
ATOM     22  F   UNL     1       0.731   4.238  18.410  0.00  0.00    +0.000 F 
ATOM     23  C   UNL     1       2.752   5.279  19.111  0.00  0.00    +0.000 A 
ATOM     24  C   UNL     1       4.158   5.204  19.171  0.00  0.00    +0.000 A 
ATOM     25  F   UNL     1       4.884   6.146  19.793  0.00  0.00    +0.000 F 
BRANCH  18  26
ATOM     26  N   UNL     1       6.297   4.039  18.699  0.00  0.00    +0.000 N 
ATOM     27  H   UNL     1       6.648   4.398  19.595  0.00  0.00    +0.000 HD
BRANCH  26  28
ATOM     28  S   UNL     1       7.174   4.886  17.505  0.00  0.00    +0.000 S 
ATOM     29  O   UNL     1       6.199   5.268  16.519  0.00  0.00    +0.000 OA
ATOM     30  O   UNL     1       8.365   4.135  17.165  0.00  0.00    +0.000 OA
BRANCH  28  31
ATOM     31  C   UNL     1       7.670   6.371  18.406  0.00  0.00    +0.000 C 
BRANCH  31  33
ATOM     32  C   UNL     1       8.305   8.815  18.075  0.00  0.00    +0.000 C 
ATOM     33  C   UNL     1       7.577   7.605  17.506  0.00  0.00    +0.000 C 
ENDBRANCH  31  33
ENDBRANCH  28  31
ENDBRANCH  26  28
ENDBRANCH  18  26
ENDBRANCH   1  23
TORSDOF 8
ENDMDL
MODEL 4
REMARK VINA RESULT:      -8.0      1.989      2.442
REMARK  Name = 
REMARK  11 active torsions:
REMARK  status: ('A' for Active; 'I' for Inactive)
REMARK    1  A    between atoms: C_1  and  C_2
REMARK    2  A    between atoms: C_2  and  C_3
REMARK    3  A    between atoms: C_3  and  S_4
REMARK    4  A    between atoms: S_4  and  N_7
REMARK    5  A    between atoms: N_7  and  C_8
REMARK    6  A    between atoms: C_13  and  C_14
REMARK    7  A    between atoms: N_16  and  C_17
REMARK    8  A    between atoms: C_22  and  O_23
REMARK    9  A    between atoms: O_23  and  C_24
REMARK   10  A    between atoms: C_24  and  C_25
REMARK   11  A    between atoms: C_24  and  C_26
REMARK                            x       y       z     vdW  Elec       q    Type
REMARK                         _______ _______ _______ _____ _____    ______ ____
ROOT
ATOM      1  C   UNL     1       1.941   5.993  20.037  0.00  0.00    +0.000 C 
ATOM      2  O   UNL     1       1.350   5.500  20.990  0.00  0.00    +0.000 OA
ATOM      3  N   UNL     1       1.969   7.364  19.782  0.00  0.00    +0.000 N 
ATOM      4  H   UNL     1       2.450   7.678  18.941  0.00  0.00    +0.000 HD
ENDROOT
BRANCH   3   5
ATOM      5  C   UNL     1       1.360   8.352  20.548  0.00  0.00    +0.000 A 
ATOM      6  C   UNL     1       1.683   8.595  22.005  0.00  0.00    +0.000 A 
ATOM      7  N   UNL     1       1.111   9.448  22.804  0.00  0.00    +0.000 NA
ATOM      8  C   UNL     1       0.143  10.222  22.249  0.00  0.00    +0.000 A 
ATOM      9  C   UNL     1      -0.672  11.185  22.795  0.00  0.00    +0.000 A 
ATOM     10  C   UNL     1      -1.436  11.640  21.720  0.00  0.00    +0.000 A 
ATOM     11  N   UNL     1      -1.143  11.044  20.561  0.00  0.00    +0.000 NA
ATOM     12  N   UNL     1      -0.188  10.137  20.894  0.00  0.00    +0.000 N 
ATOM     13  C   UNL     1       0.424   9.191  20.066  0.00  0.00    +0.000 A 
BRANCH  10  14
ATOM     14  O   UNL     1      -2.393  12.597  21.792  0.00  0.00    +0.000 OA
BRANCH  14  15
ATOM     15  C   UNL     1      -2.690  13.247  20.549  0.00  0.00    +0.000 C 
ATOM     16  C   UNL     1      -4.201  13.297  20.313  0.00  0.00    +0.000 C 
ATOM     17  C   UNL     1      -2.160  14.680  20.629  0.00  0.00    +0.000 C 
ENDBRANCH  14  15
ENDBRANCH  10  14
ENDBRANCH   3   5
BRANCH   1  23
ATOM     18  C   UNL     1       4.761   4.156  18.251  0.00  0.00    +0.000 A 
ATOM     19  C   UNL     1       4.054   3.299  17.413  0.00  0.00    +0.000 A 
ATOM     20  C   UNL     1       2.658   3.298  17.443  0.00  0.00    +0.000 A 
ATOM     21  C   UNL     1       1.969   4.169  18.293  0.00  0.00    +0.000 A 
ATOM     22  F   UNL     1       0.628   4.110  18.299  0.00  0.00    +0.000 F 
ATOM     23  C   UNL     1       2.650   5.061  19.117  0.00  0.00    +0.000 A 
ATOM     24  C   UNL     1       4.059   5.047  19.081  0.00  0.00    +0.000 A 
ATOM     25  F   UNL     1       4.788   5.852  19.869  0.00  0.00    +0.000 F 
BRANCH  18  26
ATOM     26  N   UNL     1       6.205   4.137  18.232  0.00  0.00    +0.000 N 
ATOM     27  H   UNL     1       6.601   4.419  19.137  0.00  0.00    +0.000 HD
BRANCH  26  28
ATOM     28  S   UNL     1       6.967   5.139  17.080  0.00  0.00    +0.000 S 
ATOM     29  O   UNL     1       5.895   5.731  16.326  0.00  0.00    +0.000 OA
ATOM     30  O   UNL     1       8.044   4.405  16.447  0.00  0.00    +0.000 OA
BRANCH  28  31
ATOM     31  C   UNL     1       7.685   6.419  18.132  0.00  0.00    +0.000 C 
BRANCH  31  33
ATOM     32  C   UNL     1       8.380   8.870  18.145  0.00  0.00    +0.000 C 
ATOM     33  C   UNL     1       7.511   7.801  17.496  0.00  0.00    +0.000 C 
ENDBRANCH  31  33
ENDBRANCH  28  31
ENDBRANCH  26  28
ENDBRANCH  18  26
ENDBRANCH   1  23
TORSDOF 8
ENDMDL
MODEL 5
REMARK VINA RESULT:      -7.8      1.764      2.421
REMARK  Name = 
REMARK  11 active torsions:
REMARK  status: ('A' for Active; 'I' for Inactive)
REMARK    1  A    between atoms: C_1  and  C_2
REMARK    2  A    between atoms: C_2  and  C_3
REMARK    3  A    between atoms: C_3  and  S_4
REMARK    4  A    between atoms: S_4  and  N_7
REMARK    5  A    between atoms: N_7  and  C_8
REMARK    6  A    between atoms: C_13  and  C_14
REMARK    7  A    between atoms: N_16  and  C_17
REMARK    8  A    between atoms: C_22  and  O_23
REMARK    9  A    between atoms: O_23  and  C_24
REMARK   10  A    between atoms: C_24  and  C_25
REMARK   11  A    between atoms: C_24  and  C_26
REMARK                            x       y       z     vdW  Elec       q    Type
REMARK                         _______ _______ _______ _____ _____    ______ ____
ROOT
ATOM      1  C   UNL     1       2.039   7.283  19.321  0.00  0.00    +0.000 C 
ATOM      2  O   UNL     1       1.943   8.147  18.459  0.00  0.00    +0.000 OA
ATOM      3  N   UNL     1       1.596   7.460  20.632  0.00  0.00    +0.000 N 
ATOM      4  H   UNL     1       1.757   6.700  21.291  0.00  0.00    +0.000 HD
ENDROOT
BRANCH   3   5
ATOM      5  C   UNL     1       0.990   8.602  21.144  0.00  0.00    +0.000 A 
ATOM      6  C   UNL     1       1.177   9.078  22.567  0.00  0.00    +0.000 A 
ATOM      7  N   UNL     1       0.593  10.090  23.138  0.00  0.00    +0.000 NA
ATOM      8  C   UNL     1      -0.248  10.811  22.351  0.00  0.00    +0.000 A 
ATOM      9  C   UNL     1      -1.038  11.901  22.629  0.00  0.00    +0.000 A 
ATOM     10  C   UNL     1      -1.646  12.205  21.410  0.00  0.00    +0.000 A 
ATOM     11  N   UNL     1      -1.280  11.398  20.411  0.00  0.00    +0.000 NA
ATOM     12  N   UNL     1      -0.440  10.509  21.001  0.00  0.00    +0.000 N 
ATOM     13  C   UNL     1       0.180   9.397  20.421  0.00  0.00    +0.000 A 
BRANCH  10  14
ATOM     14  O   UNL     1      -2.527  13.214  21.208  0.00  0.00    +0.000 OA
BRANCH  14  15
ATOM     15  C   UNL     1      -3.906  12.845  21.337  0.00  0.00    +0.000 C 
ATOM     16  C   UNL     1      -4.366  12.969  22.792  0.00  0.00    +0.000 C 
ATOM     17  C   UNL     1      -4.733  13.806  20.480  0.00  0.00    +0.000 C 
ENDBRANCH  14  15
ENDBRANCH  10  14
ENDBRANCH   3   5
BRANCH   1  23
ATOM     18  C   UNL     1       4.481   4.795  17.783  0.00  0.00    +0.000 A 
ATOM     19  C   UNL     1       3.925   3.579  18.166  0.00  0.00    +0.000 A 
ATOM     20  C   UNL     1       2.766   3.563  18.946  0.00  0.00    +0.000 A 
ATOM     21  C   UNL     1       2.153   4.761  19.324  0.00  0.00    +0.000 A 
ATOM     22  F   UNL     1       1.055   4.689  20.093  0.00  0.00    +0.000 F 
ATOM     23  C   UNL     1       2.668   5.992  18.927  0.00  0.00    +0.000 A 
ATOM     24  C   UNL     1       3.841   5.993  18.144  0.00  0.00    +0.000 A 
ATOM     25  F   UNL     1       4.418   7.138  17.749  0.00  0.00    +0.000 F 
BRANCH  18  26
ATOM     26  N   UNL     1       5.691   4.806  16.995  0.00  0.00    +0.000 N 
ATOM     27  H   UNL     1       5.846   3.907  16.522  0.00  0.00    +0.000 HD
BRANCH  26  28
ATOM     28  S   UNL     1       7.144   5.126  17.832  0.00  0.00    +0.000 S 
ATOM     29  O   UNL     1       8.117   4.239  17.252  0.00  0.00    +0.000 OA
ATOM     30  O   UNL     1       6.877   5.156  19.255  0.00  0.00    +0.000 OA
BRANCH  28  31
ATOM     31  C   UNL     1       7.516   6.804  17.281  0.00  0.00    +0.000 C 
BRANCH  31  33
ATOM     32  C   UNL     1       8.326   9.088  18.068  0.00  0.00    +0.000 C 
ATOM     33  C   UNL     1       8.154   7.615  18.412  0.00  0.00    +0.000 C 
ENDBRANCH  31  33
ENDBRANCH  28  31
ENDBRANCH  26  28
ENDBRANCH  18  26
ENDBRANCH   1  23
TORSDOF 8
ENDMDL
MODEL 6
REMARK VINA RESULT:      -7.8      2.980      3.623
REMARK  Name = 
REMARK  11 active torsions:
REMARK  status: ('A' for Active; 'I' for Inactive)
REMARK    1  A    between atoms: C_1  and  C_2
REMARK    2  A    between atoms: C_2  and  C_3
REMARK    3  A    between atoms: C_3  and  S_4
REMARK    4  A    between atoms: S_4  and  N_7
REMARK    5  A    between atoms: N_7  and  C_8
REMARK    6  A    between atoms: C_13  and  C_14
REMARK    7  A    between atoms: N_16  and  C_17
REMARK    8  A    between atoms: C_22  and  O_23
REMARK    9  A    between atoms: O_23  and  C_24
REMARK   10  A    between atoms: C_24  and  C_25
REMARK   11  A    between atoms: C_24  and  C_26
REMARK                            x       y       z     vdW  Elec       q    Type
REMARK                         _______ _______ _______ _____ _____    ______ ____
ROOT
ATOM      1  C   UNL     1       2.156   7.577  19.119  0.00  0.00    +0.000 C 
ATOM      2  O   UNL     1       2.078   7.814  20.317  0.00  0.00    +0.000 OA
ATOM      3  N   UNL     1       1.762   8.483  18.134  0.00  0.00    +0.000 N 
ATOM      4  H   UNL     1       1.824   8.181  17.163  0.00  0.00    +0.000 HD
ENDROOT
BRANCH   3   5
ATOM      5  C   UNL     1       1.247   9.755  18.351  0.00  0.00    +0.000 A 
ATOM      6  C   UNL     1      -0.207  10.023  18.667  0.00  0.00    +0.000 A 
ATOM      7  N   UNL     1      -0.777  11.184  18.814  0.00  0.00    +0.000 NA
ATOM      8  C   UNL     1       0.039  12.263  18.702  0.00  0.00    +0.000 A 
ATOM      9  C   UNL     1      -0.226  13.610  18.768  0.00  0.00    +0.000 A 
ATOM     10  C   UNL     1       1.022  14.216  18.607  0.00  0.00    +0.000 A 
ATOM     11  N   UNL     1       2.026  13.346  18.464  0.00  0.00    +0.000 NA
ATOM     12  N   UNL     1       1.414  12.134  18.486  0.00  0.00    +0.000 N 
ATOM     13  C   UNL     1       1.994  10.874  18.304  0.00  0.00    +0.000 A 
BRANCH  10  14
ATOM     14  O   UNL     1       1.245  15.551  18.596  0.00  0.00    +0.000 OA
BRANCH  14  15
ATOM     15  C   UNL     1       0.217  16.339  19.209  0.00  0.00    +0.000 C 
ATOM     16  C   UNL     1       0.806  17.253  20.286  0.00  0.00    +0.000 C 
ATOM     17  C   UNL     1      -0.419  17.211  18.124  0.00  0.00    +0.000 C 
ENDBRANCH  14  15
ENDBRANCH  10  14
ENDBRANCH   3   5
BRANCH   1  23
ATOM     18  C   UNL     1       4.377   4.934  17.506  0.00  0.00    +0.000 A 
ATOM     19  C   UNL     1       3.781   3.756  17.946  0.00  0.00    +0.000 A 
ATOM     20  C   UNL     1       2.668   3.817  18.788  0.00  0.00    +0.000 A 
ATOM     21  C   UNL     1       2.139   5.053  19.171  0.00  0.00    +0.000 A 
ATOM     22  F   UNL     1       1.083   5.055  20.000  0.00  0.00    +0.000 F 
ATOM     23  C   UNL     1       2.695   6.247  18.720  0.00  0.00    +0.000 A 
ATOM     24  C   UNL     1       3.822   6.171  17.875  0.00  0.00    +0.000 A 
ATOM     25  F   UNL     1       4.435   7.276  17.424  0.00  0.00    +0.000 F 
BRANCH  18  26
ATOM     26  N   UNL     1       5.542   4.865  16.654  0.00  0.00    +0.000 N 
ATOM     27  H   UNL     1       5.593   3.970  16.152  0.00  0.00    +0.000 HD
BRANCH  26  28
ATOM     28  S   UNL     1       7.058   5.037  17.418  0.00  0.00    +0.000 S 
ATOM     29  O   UNL     1       7.960   4.214  16.657  0.00  0.00    +0.000 OA
ATOM     30  O   UNL     1       6.891   4.883  18.848  0.00  0.00    +0.000 OA
BRANCH  28  31
ATOM     31  C   UNL     1       7.445   6.765  17.068  0.00  0.00    +0.000 C 
BRANCH  31  33
ATOM     32  C   UNL     1       8.286   8.936  18.101  0.00  0.00    +0.000 C 
ATOM     33  C   UNL     1       8.029   7.449  18.306  0.00  0.00    +0.000 C 
ENDBRANCH  31  33
ENDBRANCH  28  31
ENDBRANCH  26  28
ENDBRANCH  18  26
ENDBRANCH   1  23
TORSDOF 8
ENDMDL
MODEL 7
REMARK VINA RESULT:      -7.8      2.232      2.731
REMARK  Name = 
REMARK  11 active torsions:
REMARK  status: ('A' for Active; 'I' for Inactive)
REMARK    1  A    between atoms: C_1  and  C_2
REMARK    2  A    between atoms: C_2  and  C_3
REMARK    3  A    between atoms: C_3  and  S_4
REMARK    4  A    between atoms: S_4  and  N_7
REMARK    5  A    between atoms: N_7  and  C_8
REMARK    6  A    between atoms: C_13  and  C_14
REMARK    7  A    between atoms: N_16  and  C_17
REMARK    8  A    between atoms: C_22  and  O_23
REMARK    9  A    between atoms: O_23  and  C_24
REMARK   10  A    between atoms: C_24  and  C_25
REMARK   11  A    between atoms: C_24  and  C_26
REMARK                            x       y       z     vdW  Elec       q    Type
REMARK                         _______ _______ _______ _____ _____    ______ ____
ROOT
ATOM      1  C   UNL     1       2.227   6.998  18.768  0.00  0.00    +0.000 C 
ATOM      2  O   UNL     1       1.939   7.781  17.872  0.00  0.00    +0.000 OA
ATOM      3  N   UNL     1       1.972   7.251  20.115  0.00  0.00    +0.000 N 
ATOM      4  H   UNL     1       2.286   6.559  20.793  0.00  0.00    +0.000 HD
ENDROOT
BRANCH   3   5
ATOM      5  C   UNL     1       1.363   8.388  20.634  0.00  0.00    +0.000 A 
ATOM      6  C   UNL     1       1.342   8.725  22.107  0.00  0.00    +0.000 A 
ATOM      7  N   UNL     1       0.736   9.727  22.675  0.00  0.00    +0.000 NA
ATOM      8  C   UNL     1       0.084  10.575  21.839  0.00  0.00    +0.000 A 
ATOM      9  C   UNL     1      -0.671  11.696  22.092  0.00  0.00    +0.000 A 
ATOM     10  C   UNL     1      -1.051  12.150  20.828  0.00  0.00    +0.000 A 
ATOM     11  N   UNL     1      -0.576  11.405  19.825  0.00  0.00    +0.000 NA
ATOM     12  N   UNL     1       0.098  10.406  20.452  0.00  0.00    +0.000 N 
ATOM     13  C   UNL     1       0.733   9.303  19.872  0.00  0.00    +0.000 A 
BRANCH  10  14
ATOM     14  O   UNL     1      -1.820  13.237  20.588  0.00  0.00    +0.000 OA
BRANCH  14  15
ATOM     15  C   UNL     1      -1.257  14.482  21.023  0.00  0.00    +0.000 C 
ATOM     16  C   UNL     1      -0.059  14.867  20.152  0.00  0.00    +0.000 C 
ATOM     17  C   UNL     1      -2.332  15.561  20.880  0.00  0.00    +0.000 C 
ENDBRANCH  14  15
ENDBRANCH  10  14
ENDBRANCH   3   5
BRANCH   1  23
ATOM     18  C   UNL     1       4.879   4.287  18.398  0.00  0.00    +0.000 A 
ATOM     19  C   UNL     1       4.192   3.316  17.675  0.00  0.00    +0.000 A 
ATOM     20  C   UNL     1       2.857   3.530  17.325  0.00  0.00    +0.000 A 
ATOM     21  C   UNL     1       2.216   4.721  17.678  0.00  0.00    +0.000 A 
ATOM     22  F   UNL     1       0.925   4.864  17.338  0.00  0.00    +0.000 F 
ATOM     23  C   UNL     1       2.888   5.723  18.372  0.00  0.00    +0.000 A 
ATOM     24  C   UNL     1       4.234   5.492  18.724  0.00  0.00    +0.000 A 
ATOM     25  F   UNL     1       4.940   6.394  19.422  0.00  0.00    +0.000 F 
BRANCH  18  26
ATOM     26  N   UNL     1       6.253   4.052  18.776  0.00  0.00    +0.000 N 
ATOM     27  H   UNL     1       6.463   4.436  19.705  0.00  0.00    +0.000 HD
BRANCH  26  28
ATOM     28  S   UNL     1       7.450   4.698  17.745  0.00  0.00    +0.000 S 
ATOM     29  O   UNL     1       6.789   4.912  16.486  0.00  0.00    +0.000 OA
ATOM     30  O   UNL     1       8.657   3.905  17.861  0.00  0.00    +0.000 OA
BRANCH  28  31
ATOM     31  C   UNL     1       7.747   6.309  18.503  0.00  0.00    +0.000 C 
BRANCH  31  33
ATOM     32  C   UNL     1       8.038   8.771  17.914  0.00  0.00    +0.000 C 
ATOM     33  C   UNL     1       7.417   7.437  17.521  0.00  0.00    +0.000 C 
ENDBRANCH  31  33
ENDBRANCH  28  31
ENDBRANCH  26  28
ENDBRANCH  18  26
ENDBRANCH   1  23
TORSDOF 8
ENDMDL
MODEL 8
REMARK VINA RESULT:      -7.8      3.193      3.761
REMARK  Name = 
REMARK  11 active torsions:
REMARK  status: ('A' for Active; 'I' for Inactive)
REMARK    1  A    between atoms: C_1  and  C_2
REMARK    2  A    between atoms: C_2  and  C_3
REMARK    3  A    between atoms: C_3  and  S_4
REMARK    4  A    between atoms: S_4  and  N_7
REMARK    5  A    between atoms: N_7  and  C_8
REMARK    6  A    between atoms: C_13  and  C_14
REMARK    7  A    between atoms: N_16  and  C_17
REMARK    8  A    between atoms: C_22  and  O_23
REMARK    9  A    between atoms: O_23  and  C_24
REMARK   10  A    between atoms: C_24  and  C_25
REMARK   11  A    between atoms: C_24  and  C_26
REMARK                            x       y       z     vdW  Elec       q    Type
REMARK                         _______ _______ _______ _____ _____    ______ ____
ROOT
ATOM      1  C   UNL     1       2.454   7.193  18.722  0.00  0.00    +0.000 C 
ATOM      2  O   UNL     1       2.326   7.263  19.938  0.00  0.00    +0.000 OA
ATOM      3  N   UNL     1       2.098   8.226  17.856  0.00  0.00    +0.000 N 
ATOM      4  H   UNL     1       2.202   8.060  16.856  0.00  0.00    +0.000 HD
ENDROOT
BRANCH   3   5
ATOM      5  C   UNL     1       1.570   9.458  18.224  0.00  0.00    +0.000 A 
ATOM      6  C   UNL     1       0.211   9.625  18.865  0.00  0.00    +0.000 A 
ATOM      7  N   UNL     1      -0.380  10.742  19.172  0.00  0.00    +0.000 NA
ATOM      8  C   UNL     1       0.325  11.875  18.917  0.00  0.00    +0.000 A 
ATOM      9  C   UNL     1       0.002  13.200  19.084  0.00  0.00    +0.000 A 
ATOM     10  C   UNL     1       1.143  13.889  18.670  0.00  0.00    +0.000 A 
ATOM     11  N   UNL     1       2.139  13.090  18.278  0.00  0.00    +0.000 NA
ATOM     12  N   UNL     1       1.621  11.840  18.396  0.00  0.00    +0.000 N 
ATOM     13  C   UNL     1       2.219  10.624  18.048  0.00  0.00    +0.000 A 
BRANCH  10  14
ATOM     14  O   UNL     1       1.278  15.236  18.652  0.00  0.00    +0.000 OA
BRANCH  14  15
ATOM     15  C   UNL     1       0.193  15.958  19.250  0.00  0.00    +0.000 C 
ATOM     16  C   UNL     1       0.662  16.699  20.504  0.00  0.00    +0.000 C 
ATOM     17  C   UNL     1      -0.305  16.987  18.232  0.00  0.00    +0.000 C 
ENDBRANCH  14  15
ENDBRANCH  10  14
ENDBRANCH   3   5
BRANCH   1  23
ATOM     18  C   UNL     1       4.901   4.724  17.162  0.00  0.00    +0.000 A 
ATOM     19  C   UNL     1       4.142   3.559  17.124  0.00  0.00    +0.000 A 
ATOM     20  C   UNL     1       2.839   3.565  17.628  0.00  0.00    +0.000 A 
ATOM     21  C   UNL     1       2.289   4.740  18.148  0.00  0.00    +0.000 A 
ATOM     22  F   UNL     1       1.041   4.685  18.640  0.00  0.00    +0.000 F 
ATOM     23  C   UNL     1       3.014   5.929  18.167  0.00  0.00    +0.000 A 
ATOM     24  C   UNL     1       4.329   5.907  17.661  0.00  0.00    +0.000 A 
ATOM     25  F   UNL     1       5.104   7.002  17.675  0.00  0.00    +0.000 F 
BRANCH  18  26
ATOM     26  N   UNL     1       6.256   4.706  16.660  0.00  0.00    +0.000 N 
ATOM     27  H   UNL     1       6.868   5.333  17.195  0.00  0.00    +0.000 HD
BRANCH  26  28
ATOM     28  S   UNL     1       6.471   5.157  15.028  0.00  0.00    +0.000 S 
ATOM     29  O   UNL     1       7.870   5.469  14.904  0.00  0.00    +0.000 OA
ATOM     30  O   UNL     1       5.434   6.095  14.652  0.00  0.00    +0.000 OA
BRANCH  28  31
ATOM     31  C   UNL     1       6.168   3.593  14.178  0.00  0.00    +0.000 C 
BRANCH  31  33
ATOM     32  C   UNL     1       4.962   3.250  11.960  0.00  0.00    +0.000 C 
ATOM     33  C   UNL     1       6.203   3.788  12.661  0.00  0.00    +0.000 C 
ENDBRANCH  31  33
ENDBRANCH  28  31
ENDBRANCH  26  28
ENDBRANCH  18  26
ENDBRANCH   1  23
TORSDOF 8
ENDMDL
MODEL 9
REMARK VINA RESULT:      -7.7      2.291      2.574
REMARK  Name = 
REMARK  11 active torsions:
REMARK  status: ('A' for Active; 'I' for Inactive)
REMARK    1  A    between atoms: C_1  and  C_2
REMARK    2  A    between atoms: C_2  and  C_3
REMARK    3  A    between atoms: C_3  and  S_4
REMARK    4  A    between atoms: S_4  and  N_7
REMARK    5  A    between atoms: N_7  and  C_8
REMARK    6  A    between atoms: C_13  and  C_14
REMARK    7  A    between atoms: N_16  and  C_17
REMARK    8  A    between atoms: C_22  and  O_23
REMARK    9  A    between atoms: O_23  and  C_24
REMARK   10  A    between atoms: C_24  and  C_25
REMARK   11  A    between atoms: C_24  and  C_26
REMARK                            x       y       z     vdW  Elec       q    Type
REMARK                         _______ _______ _______ _____ _____    ______ ____
ROOT
ATOM      1  C   UNL     1       2.332   7.108  18.909  0.00  0.00    +0.000 C 
ATOM      2  O   UNL     1       2.017   7.184  20.089  0.00  0.00    +0.000 OA
ATOM      3  N   UNL     1       2.131   8.143  17.996  0.00  0.00    +0.000 N 
ATOM      4  H   UNL     1       2.386   7.972  17.025  0.00  0.00    +0.000 HD
ENDROOT
BRANCH   3   5
ATOM      5  C   UNL     1       1.571   9.384  18.277  0.00  0.00    +0.000 A 
ATOM      6  C   UNL     1       2.314  10.690  18.115  0.00  0.00    +0.000 A 
ATOM      7  N   UNL     1       1.886  11.880  18.421  0.00  0.00    +0.000 NA
ATOM      8  C   UNL     1       0.618  11.947  18.905  0.00  0.00    +0.000 A 
ATOM      9  C   UNL     1      -0.128  13.013  19.348  0.00  0.00    +0.000 A 
ATOM     10  C   UNL     1      -1.359  12.453  19.693  0.00  0.00    +0.000 A 
ATOM     11  N   UNL     1      -1.428  11.136  19.481  0.00  0.00    +0.000 NA
ATOM     12  N   UNL     1      -0.189  10.813  19.027  0.00  0.00    +0.000 N 
ATOM     13  C   UNL     1       0.309   9.543  18.717  0.00  0.00    +0.000 A 
BRANCH  10  14
ATOM     14  O   UNL     1      -2.415  13.138  20.192  0.00  0.00    +0.000 OA
BRANCH  14  15
ATOM     15  C   UNL     1      -2.944  12.618  21.419  0.00  0.00    +0.000 C 
ATOM     16  C   UNL     1      -2.195  13.199  22.620  0.00  0.00    +0.000 C 
ATOM     17  C   UNL     1      -4.414  13.035  21.512  0.00  0.00    +0.000 C 
ENDBRANCH  14  15
ENDBRANCH  10  14
ENDBRANCH   3   5
BRANCH   1  23
ATOM     18  C   UNL     1       4.904   4.348  18.372  0.00  0.00    +0.000 A 
ATOM     19  C   UNL     1       4.178   3.425  17.627  0.00  0.00    +0.000 A 
ATOM     20  C   UNL     1       2.841   3.685  17.317  0.00  0.00    +0.000 A 
ATOM     21  C   UNL     1       2.239   4.877  17.731  0.00  0.00    +0.000 A 
ATOM     22  F   UNL     1       0.946   5.066  17.425  0.00  0.00    +0.000 F 
ATOM     23  C   UNL     1       2.952   5.833  18.449  0.00  0.00    +0.000 A 
ATOM     24  C   UNL     1       4.298   5.555  18.761  0.00  0.00    +0.000 A 
ATOM     25  F   UNL     1       5.043   6.411  19.477  0.00  0.00    +0.000 F 
BRANCH  18  26
ATOM     26  N   UNL     1       6.280   4.063  18.710  0.00  0.00    +0.000 N 
ATOM     27  H   UNL     1       6.470   4.232  19.706  0.00  0.00    +0.000 HD
BRANCH  26  28
ATOM     28  S   UNL     1       7.471   4.952  17.872  0.00  0.00    +0.000 S 
ATOM     29  O   UNL     1       8.443   3.979  17.451  0.00  0.00    +0.000 OA
ATOM     30  O   UNL     1       7.833   6.118  18.651  0.00  0.00    +0.000 OA
BRANCH  28  31
ATOM     31  C   UNL     1       6.556   5.497  16.414  0.00  0.00    +0.000 C 
BRANCH  31  33
ATOM     32  C   UNL     1       5.815   4.164  14.373  0.00  0.00    +0.000 C 
ATOM     33  C   UNL     1       6.989   4.705  15.178  0.00  0.00    +0.000 C 
ENDBRANCH  31  33
ENDBRANCH  28  31
ENDBRANCH  26  28
ENDBRANCH  18  26
ENDBRANCH   1  23
TORSDOF 8
ENDMDL
