MODEL 1
REMARK VINA RESULT:      -7.7      0.000      0.000
REMARK  Name = 
REMARK  10 active torsions:
REMARK  status: ('A' for Active; 'I' for Inactive)
REMARK    1  A    between atoms: C_1  and  O_2
REMARK    2  A    between atoms: O_2  and  C_3
REMARK    3  A    between atoms: C_3  and  C_4
REMARK    4  A    between atoms: C_4  and  N_5
REMARK    5  A    between atoms: C_8  and  C_9
REMARK    6  A    between atoms: C_9  and  N_10
REMARK    7  A    between atoms: C_11  and  C_13
REMARK    8  A    between atoms: C_19  and  C_20
REMARK    9  A    between atoms: C_23  and  O_24
REMARK   10  A    between atoms: O_24  and  C_25
REMARK                            x       y       z     vdW  Elec       q    Type
REMARK                         _______ _______ _______ _____ _____    ______ ____
ROOT
ATOM      1  C   UNL     1       5.001   3.840  19.113  0.00  0.00    +0.000 A 
ATOM      2  N   UNL     1       4.873   2.593  19.608  0.00  0.00    +0.000 NA
ATOM      3  N   UNL     1       3.726   2.620  20.297  0.00  0.00    +0.000 N 
ATOM      4  C   UNL     1       3.089   3.827  20.280  0.00  0.00    +0.000 A 
ATOM      5  C   UNL     1       1.882   4.245  20.844  0.00  0.00    +0.000 A 
ATOM      6  C   UNL     1       1.494   5.570  20.610  0.00  0.00    +0.000 A 
ATOM      7  C   UNL     1       2.271   6.469  19.854  0.00  0.00    +0.000 A 
ATOM      8  C   UNL     1       3.478   5.989  19.305  0.00  0.00    +0.000 A 
ATOM      9  C   UNL     1       3.898   4.659  19.519  0.00  0.00    +0.000 A 
ATOM     10  H   UNL     1       3.423   1.767  20.754  0.00  0.00    +0.000 HD
ENDROOT
BRANCH   7  11
ATOM     11  C   UNL     1       1.842   7.871  19.636  0.00  0.00    +0.000 A 
ATOM     12  C   UNL     1       2.055   8.521  18.409  0.00  0.00    +0.000 A 
ATOM     13  C   UNL     1       1.657   9.847  18.209  0.00  0.00    +0.000 A 
ATOM     14  C   UNL     1       1.001  10.549  19.216  0.00  0.00    +0.000 A 
ATOM     15  C   UNL     1       0.771   9.928  20.439  0.00  0.00    +0.000 A 
ATOM     16  C   UNL     1       1.193   8.608  20.645  0.00  0.00    +0.000 A 
BRANCH  14  17
ATOM     17  O   UNL     1       0.673  11.841  18.912  0.00  0.00    +0.000 OA
ATOM     18  C   UNL     1       1.126  12.822  19.837  0.00  0.00    +0.000 C 
ENDBRANCH  14  17
ENDBRANCH   7  11
BRANCH   1  20
ATOM     19  N   UNL     1       6.036   3.801  16.937  0.00  0.00    +0.000 N 
ATOM     20  C   UNL     1       6.143   4.204  18.256  0.00  0.00    +0.000 C 
ATOM     21  O   UNL     1       7.118   4.831  18.667  0.00  0.00    +0.000 OA
ATOM     22  H   UNL     1       5.184   3.359  16.623  0.00  0.00    +0.000 HD
BRANCH  19  23
ATOM     23  C   UNL     1       7.095   4.045  15.982  0.00  0.00    +0.000 C 
BRANCH  23  27
ATOM     24  N   UNL     1       5.623   3.850  12.589  0.00  0.00    +0.000 NA
ATOM     25  C   UNL     1       4.840   3.943  13.831  0.00  0.00    +0.000 C 
ATOM     26  C   UNL     1       5.243   5.158  14.672  0.00  0.00    +0.000 C 
ATOM     27  C   UNL     1       6.741   5.165  14.991  0.00  0.00    +0.000 C 
ATOM     28  C   UNL     1       7.513   5.050  13.669  0.00  0.00    +0.000 C 
ATOM     29  C   UNL     1       7.072   3.832  12.852  0.00  0.00    +0.000 C 
BRANCH  24  30
ATOM     30  C   UNL     1       5.246   2.653  11.802  0.00  0.00    +0.000 C 
BRANCH  30  31
ATOM     31  C   UNL     1       3.956   2.834  10.987  0.00  0.00    +0.000 C 
BRANCH  31  33
ATOM     32  C   UNL     1       2.838   4.327   9.565  0.00  0.00    +0.000 C 
ATOM     33  O   UNL     1       3.798   4.204  10.607  0.00  0.00    +0.000 OA
ENDBRANCH  31  33
ENDBRANCH  30  31
ENDBRANCH  24  30
ENDBRANCH  23  27
ENDBRANCH  19  23
ENDBRANCH   1  20
TORSDOF 8
ENDMDL
MODEL 2
REMARK VINA RESULT:      -7.6      5.880     11.696
REMARK  Name = 
REMARK  10 active torsions:
REMARK  status: ('A' for Active; 'I' for Inactive)
REMARK    1  A    between atoms: C_1  and  O_2
REMARK    2  A    between atoms: O_2  and  C_3
REMARK    3  A    between atoms: C_3  and  C_4
REMARK    4  A    between atoms: C_4  and  N_5
REMARK    5  A    between atoms: C_8  and  C_9
REMARK    6  A    between atoms: C_9  and  N_10
REMARK    7  A    between atoms: C_11  and  C_13
REMARK    8  A    between atoms: C_19  and  C_20
REMARK    9  A    between atoms: C_23  and  O_24
REMARK   10  A    between atoms: O_24  and  C_25
REMARK                            x       y       z     vdW  Elec       q    Type
REMARK                         _______ _______ _______ _____ _____    ______ ____
ROOT
ATOM      1  C   UNL     1       0.252  11.046  20.590  0.00  0.00    +0.000 A 
ATOM      2  N   UNL     1       0.192  12.132  19.794  0.00  0.00    +0.000 NA
ATOM      3  N   UNL     1       0.818  11.759  18.670  0.00  0.00    +0.000 N 
ATOM      4  C   UNL     1       1.287  10.477  18.687  0.00  0.00    +0.000 A 
ATOM      5  C   UNL     1       1.957   9.725  17.721  0.00  0.00    +0.000 A 
ATOM      6  C   UNL     1       2.280   8.403  18.053  0.00  0.00    +0.000 A 
ATOM      7  C   UNL     1       1.967   7.834  19.303  0.00  0.00    +0.000 A 
ATOM      8  C   UNL     1       1.284   8.641  20.238  0.00  0.00    +0.000 A 
ATOM      9  C   UNL     1       0.942   9.977  19.934  0.00  0.00    +0.000 A 
ATOM     10  H   UNL     1       0.883  12.432  17.914  0.00  0.00    +0.000 HD
ENDROOT
BRANCH   7  11
ATOM     11  C   UNL     1       2.335   6.436  19.633  0.00  0.00    +0.000 A 
ATOM     12  C   UNL     1       1.728   5.751  20.699  0.00  0.00    +0.000 A 
ATOM     13  C   UNL     1       2.083   4.434  21.013  0.00  0.00    +0.000 A 
ATOM     14  C   UNL     1       3.027   3.754  20.249  0.00  0.00    +0.000 A 
ATOM     15  C   UNL     1       3.639   4.407  19.184  0.00  0.00    +0.000 A 
ATOM     16  C   UNL     1       3.299   5.733  18.887  0.00  0.00    +0.000 A 
BRANCH  14  17
ATOM     17  O   UNL     1       3.305   2.480  20.659  0.00  0.00    +0.000 OA
ATOM     18  C   UNL     1       4.595   1.991  20.311  0.00  0.00    +0.000 C 
ENDBRANCH  14  17
ENDBRANCH   7  11
BRANCH   1  20
ATOM     19  N   UNL     1      -1.552  11.760  22.021  0.00  0.00    +0.000 N 
ATOM     20  C   UNL     1      -0.368  11.051  21.927  0.00  0.00    +0.000 C 
ATOM     21  O   UNL     1       0.115  10.461  22.893  0.00  0.00    +0.000 OA
ATOM     22  H   UNL     1      -1.953  12.162  21.186  0.00  0.00    +0.000 HD
BRANCH  19  23
ATOM     23  C   UNL     1      -2.257  11.894  23.277  0.00  0.00    +0.000 C 
BRANCH  23  27
ATOM     24  N   UNL     1      -5.699  13.212  22.916  0.00  0.00    +0.000 NA
ATOM     25  C   UNL     1      -5.156  12.635  24.155  0.00  0.00    +0.000 C 
ATOM     26  C   UNL     1      -3.864  13.332  24.593  0.00  0.00    +0.000 C 
ATOM     27  C   UNL     1      -2.800  13.315  23.493  0.00  0.00    +0.000 C 
ATOM     28  C   UNL     1      -3.418  13.910  22.220  0.00  0.00    +0.000 C 
ATOM     29  C   UNL     1      -4.713  13.196  21.823  0.00  0.00    +0.000 C 
BRANCH  24  30
ATOM     30  C   UNL     1      -6.929  12.507  22.486  0.00  0.00    +0.000 C 
BRANCH  30  31
ATOM     31  C   UNL     1      -6.944  12.154  20.991  0.00  0.00    +0.000 C 
BRANCH  31  33
ATOM     32  C   UNL     1      -7.281   9.954  20.250  0.00  0.00    +0.000 C 
ATOM     33  O   UNL     1      -7.913  11.134  20.733  0.00  0.00    +0.000 OA
ENDBRANCH  31  33
ENDBRANCH  30  31
ENDBRANCH  24  30
ENDBRANCH  23  27
ENDBRANCH  19  23
ENDBRANCH   1  20
TORSDOF 8
ENDMDL
MODEL 3
REMARK VINA RESULT:      -7.4      1.359      1.814
REMARK  Name = 
REMARK  10 active torsions:
REMARK  status: ('A' for Active; 'I' for Inactive)
REMARK    1  A    between atoms: C_1  and  O_2
REMARK    2  A    between atoms: O_2  and  C_3
REMARK    3  A    between atoms: C_3  and  C_4
REMARK    4  A    between atoms: C_4  and  N_5
REMARK    5  A    between atoms: C_8  and  C_9
REMARK    6  A    between atoms: C_9  and  N_10
REMARK    7  A    between atoms: C_11  and  C_13
REMARK    8  A    between atoms: C_19  and  C_20
REMARK    9  A    between atoms: C_23  and  O_24
REMARK   10  A    between atoms: O_24  and  C_25
REMARK                            x       y       z     vdW  Elec       q    Type
REMARK                         _______ _______ _______ _____ _____    ______ ____
ROOT
ATOM      1  C   UNL     1       4.903   3.750  19.085  0.00  0.00    +0.000 A 
ATOM      2  N   UNL     1       4.792   2.520  19.624  0.00  0.00    +0.000 NA
ATOM      3  N   UNL     1       3.683   2.580  20.371  0.00  0.00    +0.000 N 
ATOM      4  C   UNL     1       3.055   3.791  20.350  0.00  0.00    +0.000 A 
ATOM      5  C   UNL     1       1.883   4.237  20.962  0.00  0.00    +0.000 A 
ATOM      6  C   UNL     1       1.493   5.558  20.708  0.00  0.00    +0.000 A 
ATOM      7  C   UNL     1       2.236   6.426  19.884  0.00  0.00    +0.000 A 
ATOM      8  C   UNL     1       3.409   5.918  19.287  0.00  0.00    +0.000 A 
ATOM      9  C   UNL     1       3.829   4.591  19.522  0.00  0.00    +0.000 A 
ATOM     10  H   UNL     1       3.398   1.744  20.870  0.00  0.00    +0.000 HD
ENDROOT
BRANCH   7  11
ATOM     11  C   UNL     1       1.807   7.825  19.644  0.00  0.00    +0.000 A 
ATOM     12  C   UNL     1       1.207   8.592  20.657  0.00  0.00    +0.000 A 
ATOM     13  C   UNL     1       0.796   9.909  20.425  0.00  0.00    +0.000 A 
ATOM     14  C   UNL     1       1.006  10.509  19.187  0.00  0.00    +0.000 A 
ATOM     15  C   UNL     1       1.603   9.774  18.168  0.00  0.00    +0.000 A 
ATOM     16  C   UNL     1       1.992   8.448  18.396  0.00  0.00    +0.000 A 
BRANCH  14  17
ATOM     17  O   UNL     1       0.549  11.792  19.072  0.00  0.00    +0.000 OA
ATOM     18  C   UNL     1       0.906  12.668  20.136  0.00  0.00    +0.000 C 
ENDBRANCH  14  17
ENDBRANCH   7  11
BRANCH   1  20
ATOM     19  N   UNL     1       5.743   3.805  16.826  0.00  0.00    +0.000 N 
ATOM     20  C   UNL     1       6.001   4.076  18.158  0.00  0.00    +0.000 C 
ATOM     21  O   UNL     1       7.068   4.566  18.527  0.00  0.00    +0.000 OA
ATOM     22  H   UNL     1       4.827   3.477  16.558  0.00  0.00    +0.000 HD
BRANCH  19  23
ATOM     23  C   UNL     1       6.739   4.030  15.801  0.00  0.00    +0.000 C 
BRANCH  23  27
ATOM     24  N   UNL     1       6.605   3.698  12.114  0.00  0.00    +0.000 NA
ATOM     25  C   UNL     1       5.519   3.304  13.024  0.00  0.00    +0.000 C 
ATOM     26  C   UNL     1       5.089   4.456  13.936  0.00  0.00    +0.000 C 
ATOM     27  C   UNL     1       6.263   5.028  14.734  0.00  0.00    +0.000 C 
ATOM     28  C   UNL     1       7.374   5.409  13.745  0.00  0.00    +0.000 C 
ATOM     29  C   UNL     1       7.766   4.236  12.844  0.00  0.00    +0.000 C 
BRANCH  24  30
ATOM     30  C   UNL     1       7.035   2.566  11.262  0.00  0.00    +0.000 C 
BRANCH  30  31
ATOM     31  C   UNL     1       5.999   1.434  11.175  0.00  0.00    +0.000 C 
BRANCH  31  33
ATOM     32  C   UNL     1       5.800  -0.898  11.332  0.00  0.00    +0.000 C 
ATOM     33  O   UNL     1       6.652   0.180  10.961  0.00  0.00    +0.000 OA
ENDBRANCH  31  33
ENDBRANCH  30  31
ENDBRANCH  24  30
ENDBRANCH  23  27
ENDBRANCH  19  23
ENDBRANCH   1  20
TORSDOF 8
ENDMDL
MODEL 4
REMARK VINA RESULT:      -7.3      3.912      6.678
REMARK  Name = 
REMARK  10 active torsions:
REMARK  status: ('A' for Active; 'I' for Inactive)
REMARK    1  A    between atoms: C_1  and  O_2
REMARK    2  A    between atoms: O_2  and  C_3
REMARK    3  A    between atoms: C_3  and  C_4
REMARK    4  A    between atoms: C_4  and  N_5
REMARK    5  A    between atoms: C_8  and  C_9
REMARK    6  A    between atoms: C_9  and  N_10
REMARK    7  A    between atoms: C_11  and  C_13
REMARK    8  A    between atoms: C_19  and  C_20
REMARK    9  A    between atoms: C_23  and  O_24
REMARK   10  A    between atoms: O_24  and  C_25
REMARK                            x       y       z     vdW  Elec       q    Type
REMARK                         _______ _______ _______ _____ _____    ______ ____
ROOT
ATOM      1  C   UNL     1       1.470   9.015  19.347  0.00  0.00    +0.000 A 
ATOM      2  N   UNL     1       2.293   9.215  18.298  0.00  0.00    +0.000 NA
ATOM      3  N   UNL     1       1.961  10.428  17.838  0.00  0.00    +0.000 N 
ATOM      4  C   UNL     1       0.959  11.039  18.534  0.00  0.00    +0.000 A 
ATOM      5  C   UNL     1       0.359  12.291  18.386  0.00  0.00    +0.000 A 
ATOM      6  C   UNL     1      -0.643  12.630  19.303  0.00  0.00    +0.000 A 
ATOM      7  C   UNL     1      -1.058  11.762  20.333  0.00  0.00    +0.000 A 
ATOM      8  C   UNL     1      -0.412  10.512  20.437  0.00  0.00    +0.000 A 
ATOM      9  C   UNL     1       0.603  10.140  19.530  0.00  0.00    +0.000 A 
ATOM     10  H   UNL     1       2.471  10.791  17.040  0.00  0.00    +0.000 HD
ENDROOT
BRANCH   7  11
ATOM     11  C   UNL     1      -2.133  12.142  21.281  0.00  0.00    +0.000 A 
ATOM     12  C   UNL     1      -3.344  12.695  20.833  0.00  0.00    +0.000 A 
ATOM     13  C   UNL     1      -4.353  13.060  21.731  0.00  0.00    +0.000 A 
ATOM     14  C   UNL     1      -4.196  12.848  23.097  0.00  0.00    +0.000 A 
ATOM     15  C   UNL     1      -3.009  12.296  23.568  0.00  0.00    +0.000 A 
ATOM     16  C   UNL     1      -1.990  11.954  22.668  0.00  0.00    +0.000 A 
BRANCH  14  17
ATOM     17  O   UNL     1      -5.240  13.258  23.878  0.00  0.00    +0.000 OA
ATOM     18  C   UNL     1      -5.598  14.629  23.754  0.00  0.00    +0.000 C 
ENDBRANCH  14  17
ENDBRANCH   7  11
BRANCH   1  20
ATOM     19  N   UNL     1       2.258   6.747  19.566  0.00  0.00    +0.000 N 
ATOM     20  C   UNL     1       1.553   7.784  20.152  0.00  0.00    +0.000 C 
ATOM     21  O   UNL     1       1.047   7.677  21.269  0.00  0.00    +0.000 OA
ATOM     22  H   UNL     1       2.723   6.904  18.684  0.00  0.00    +0.000 HD
BRANCH  19  23
ATOM     23  C   UNL     1       2.390   5.460  20.213  0.00  0.00    +0.000 C 
BRANCH  23  27
ATOM     24  N   UNL     1       4.941   4.132  17.879  0.00  0.00    +0.000 NA
ATOM     25  C   UNL     1       4.771   3.681  19.269  0.00  0.00    +0.000 C 
ATOM     26  C   UNL     1       3.339   3.215  19.549  0.00  0.00    +0.000 C 
ATOM     27  C   UNL     1       2.306   4.295  19.216  0.00  0.00    +0.000 C 
ATOM     28  C   UNL     1       2.534   4.742  17.765  0.00  0.00    +0.000 C 
ATOM     29  C   UNL     1       3.978   5.188  17.522  0.00  0.00    +0.000 C 
BRANCH  24  30
ATOM     30  C   UNL     1       6.320   4.611  17.631  0.00  0.00    +0.000 C 
BRANCH  30  31
ATOM     31  C   UNL     1       6.381   5.912  16.816  0.00  0.00    +0.000 C 
BRANCH  31  33
ATOM     32  C   UNL     1       6.983   4.792  14.845  0.00  0.00    +0.000 C 
ATOM     33  O   UNL     1       7.358   5.800  15.777  0.00  0.00    +0.000 OA
ENDBRANCH  31  33
ENDBRANCH  30  31
ENDBRANCH  24  30
ENDBRANCH  23  27
ENDBRANCH  19  23
ENDBRANCH   1  20
TORSDOF 8
ENDMDL
MODEL 5
REMARK VINA RESULT:      -7.3      1.292      1.575
REMARK  Name = 
REMARK  10 active torsions:
REMARK  status: ('A' for Active; 'I' for Inactive)
REMARK    1  A    between atoms: C_1  and  O_2
REMARK    2  A    between atoms: O_2  and  C_3
REMARK    3  A    between atoms: C_3  and  C_4
REMARK    4  A    between atoms: C_4  and  N_5
REMARK    5  A    between atoms: C_8  and  C_9
REMARK    6  A    between atoms: C_9  and  N_10
REMARK    7  A    between atoms: C_11  and  C_13
REMARK    8  A    between atoms: C_19  and  C_20
REMARK    9  A    between atoms: C_23  and  O_24
REMARK   10  A    between atoms: O_24  and  C_25
REMARK                            x       y       z     vdW  Elec       q    Type
REMARK                         _______ _______ _______ _____ _____    ______ ____
ROOT
ATOM      1  C   UNL     1       5.057   3.882  19.008  0.00  0.00    +0.000 A 
ATOM      2  N   UNL     1       4.952   2.653  19.550  0.00  0.00    +0.000 NA
ATOM      3  N   UNL     1       3.826   2.698  20.272  0.00  0.00    +0.000 N 
ATOM      4  C   UNL     1       3.180   3.900  20.231  0.00  0.00    +0.000 A 
ATOM      5  C   UNL     1       1.988   4.331  20.816  0.00  0.00    +0.000 A 
ATOM      6  C   UNL     1       1.584   5.644  20.548  0.00  0.00    +0.000 A 
ATOM      7  C   UNL     1       2.332   6.521  19.737  0.00  0.00    +0.000 A 
ATOM      8  C   UNL     1       3.526   6.028  19.168  0.00  0.00    +0.000 A 
ATOM      9  C   UNL     1       3.961   4.708  19.417  0.00  0.00    +0.000 A 
ATOM     10  H   UNL     1       3.542   1.860  20.768  0.00  0.00    +0.000 HD
ENDROOT
BRANCH   7  11
ATOM     11  C   UNL     1       1.888   7.912  19.482  0.00  0.00    +0.000 A 
ATOM     12  C   UNL     1       2.100   8.533  18.240  0.00  0.00    +0.000 A 
ATOM     13  C   UNL     1       1.686   9.849  18.005  0.00  0.00    +0.000 A 
ATOM     14  C   UNL     1       1.017  10.568  18.991  0.00  0.00    +0.000 A 
ATOM     15  C   UNL     1       0.788   9.974  20.228  0.00  0.00    +0.000 A 
ATOM     16  C   UNL     1       1.225   8.665  20.469  0.00  0.00    +0.000 A 
BRANCH  14  17
ATOM     17  O   UNL     1       0.676  11.847  18.654  0.00  0.00    +0.000 OA
ATOM     18  C   UNL     1      -0.604  12.280  19.102  0.00  0.00    +0.000 C 
ENDBRANCH  14  17
ENDBRANCH   7  11
BRANCH   1  20
ATOM     19  N   UNL     1       5.981   3.861  16.781  0.00  0.00    +0.000 N 
ATOM     20  C   UNL     1       6.170   4.221  18.104  0.00  0.00    +0.000 C 
ATOM     21  O   UNL     1       7.191   4.793  18.482  0.00  0.00    +0.000 OA
ATOM     22  H   UNL     1       5.095   3.465  16.500  0.00  0.00    +0.000 HD
BRANCH  19  23
ATOM     23  C   UNL     1       7.001   4.087  15.782  0.00  0.00    +0.000 C 
BRANCH  23  27
ATOM     24  N   UNL     1       5.807   3.564  12.315  0.00  0.00    +0.000 NA
ATOM     25  C   UNL     1       4.935   3.590  13.499  0.00  0.00    +0.000 C 
ATOM     26  C   UNL     1       5.107   4.878  14.309  0.00  0.00    +0.000 C 
ATOM     27  C   UNL     1       6.563   5.110  14.721  0.00  0.00    +0.000 C 
ATOM     28  C   UNL     1       7.432   5.058  13.457  0.00  0.00    +0.000 C 
ATOM     29  C   UNL     1       7.223   3.762  12.669  0.00  0.00    +0.000 C 
BRANCH  24  30
ATOM     30  C   UNL     1       5.656   2.299  11.560  0.00  0.00    +0.000 C 
BRANCH  30  31
ATOM     31  C   UNL     1       6.981   1.747  11.013  0.00  0.00    +0.000 C 
BRANCH  31  33
ATOM     32  C   UNL     1       5.954  -0.349  11.248  0.00  0.00    +0.000 C 
ATOM     33  O   UNL     1       7.159   0.388  11.424  0.00  0.00    +0.000 OA
ENDBRANCH  31  33
ENDBRANCH  30  31
ENDBRANCH  24  30
ENDBRANCH  23  27
ENDBRANCH  19  23
ENDBRANCH   1  20
TORSDOF 8
ENDMDL
MODEL 6
REMARK VINA RESULT:      -7.3      2.937      5.571
REMARK  Name = 
REMARK  10 active torsions:
REMARK  status: ('A' for Active; 'I' for Inactive)
REMARK    1  A    between atoms: C_1  and  O_2
REMARK    2  A    between atoms: O_2  and  C_3
REMARK    3  A    between atoms: C_3  and  C_4
REMARK    4  A    between atoms: C_4  and  N_5
REMARK    5  A    between atoms: C_8  and  C_9
REMARK    6  A    between atoms: C_9  and  N_10
REMARK    7  A    between atoms: C_11  and  C_13
REMARK    8  A    between atoms: C_19  and  C_20
REMARK    9  A    between atoms: C_23  and  O_24
REMARK   10  A    between atoms: O_24  and  C_25
REMARK                            x       y       z     vdW  Elec       q    Type
REMARK                         _______ _______ _______ _____ _____    ______ ____
ROOT
ATOM      1  C   UNL     1       2.316   6.926  19.035  0.00  0.00    +0.000 A 
ATOM      2  N   UNL     1       3.132   6.889  17.963  0.00  0.00    +0.000 NA
ATOM      3  N   UNL     1       3.071   8.125  17.452  0.00  0.00    +0.000 N 
ATOM      4  C   UNL     1       2.254   8.977  18.136  0.00  0.00    +0.000 A 
ATOM      5  C   UNL     1       1.950  10.325  17.940  0.00  0.00    +0.000 A 
ATOM      6  C   UNL     1       1.077  10.922  18.858  0.00  0.00    +0.000 A 
ATOM      7  C   UNL     1       0.506  10.217  19.935  0.00  0.00    +0.000 A 
ATOM      8  C   UNL     1       0.854   8.858  20.087  0.00  0.00    +0.000 A 
ATOM      9  C   UNL     1       1.733   8.226  19.180  0.00  0.00    +0.000 A 
ATOM     10  H   UNL     1       3.627   8.328  16.628  0.00  0.00    +0.000 HD
ENDROOT
BRANCH   7  11
ATOM     11  C   UNL     1      -0.427  10.871  20.883  0.00  0.00    +0.000 A 
ATOM     12  C   UNL     1      -0.466  10.510  22.240  0.00  0.00    +0.000 A 
ATOM     13  C   UNL     1      -1.354  11.124  23.131  0.00  0.00    +0.000 A 
ATOM     14  C   UNL     1      -2.200  12.140  22.700  0.00  0.00    +0.000 A 
ATOM     15  C   UNL     1      -2.178  12.522  21.362  0.00  0.00    +0.000 A 
ATOM     16  C   UNL     1      -1.305  11.889  20.467  0.00  0.00    +0.000 A 
BRANCH  14  17
ATOM     17  O   UNL     1      -3.033  12.654  23.653  0.00  0.00    +0.000 OA
ATOM     18  C   UNL     1      -4.338  13.004  23.206  0.00  0.00    +0.000 C 
ENDBRANCH  14  17
ENDBRANCH   7  11
BRANCH   1  20
ATOM     19  N   UNL     1       1.940   4.553  19.222  0.00  0.00    +0.000 N 
ATOM     20  C   UNL     1       2.140   5.744  19.897  0.00  0.00    +0.000 C 
ATOM     21  O   UNL     1       2.180   5.796  21.125  0.00  0.00    +0.000 OA
ATOM     22  H   UNL     1       1.993   4.542  18.213  0.00  0.00    +0.000 HD
BRANCH  19  23
ATOM     23  C   UNL     1       1.707   3.312  19.928  0.00  0.00    +0.000 C 
BRANCH  23  27
ATOM     24  N   UNL     1       4.713   3.371  17.765  0.00  0.00    +0.000 NA
ATOM     25  C   UNL     1       4.746   3.406  19.235  0.00  0.00    +0.000 C 
ATOM     26  C   UNL     1       3.989   2.228  19.853  0.00  0.00    +0.000 C 
ATOM     27  C   UNL     1       2.541   2.152  19.360  0.00  0.00    +0.000 C 
ATOM     28  C   UNL     1       2.558   2.134  17.825  0.00  0.00    +0.000 C 
ATOM     29  C   UNL     1       3.335   3.320  17.246  0.00  0.00    +0.000 C 
BRANCH  24  30
ATOM     30  C   UNL     1       5.421   4.534  17.180  0.00  0.00    +0.000 C 
BRANCH  30  31
ATOM     31  C   UNL     1       6.951   4.392  17.193  0.00  0.00    +0.000 C 
BRANCH  31  33
ATOM     32  C   UNL     1       6.498   4.676  14.909  0.00  0.00    +0.000 C 
ATOM     33  O   UNL     1       7.493   4.765  15.922  0.00  0.00    +0.000 OA
ENDBRANCH  31  33
ENDBRANCH  30  31
ENDBRANCH  24  30
ENDBRANCH  23  27
ENDBRANCH  19  23
ENDBRANCH   1  20
TORSDOF 8
ENDMDL
MODEL 7
REMARK VINA RESULT:      -7.2      4.183      6.914
REMARK  Name = 
REMARK  10 active torsions:
REMARK  status: ('A' for Active; 'I' for Inactive)
REMARK    1  A    between atoms: C_1  and  O_2
REMARK    2  A    between atoms: O_2  and  C_3
REMARK    3  A    between atoms: C_3  and  C_4
REMARK    4  A    between atoms: C_4  and  N_5
REMARK    5  A    between atoms: C_8  and  C_9
REMARK    6  A    between atoms: C_9  and  N_10
REMARK    7  A    between atoms: C_11  and  C_13
REMARK    8  A    between atoms: C_19  and  C_20
REMARK    9  A    between atoms: C_23  and  O_24
REMARK   10  A    between atoms: O_24  and  C_25
REMARK                            x       y       z     vdW  Elec       q    Type
REMARK                         _______ _______ _______ _____ _____    ______ ____
ROOT
ATOM      1  C   UNL     1       1.257   9.345  19.482  0.00  0.00    +0.000 A 
ATOM      2  N   UNL     1       2.006   9.544  18.379  0.00  0.00    +0.000 NA
ATOM      3  N   UNL     1       1.552  10.695  17.868  0.00  0.00    +0.000 N 
ATOM      4  C   UNL     1       0.539  11.267  18.582  0.00  0.00    +0.000 A 
ATOM      5  C   UNL     1      -0.169  12.455  18.396  0.00  0.00    +0.000 A 
ATOM      6  C   UNL     1      -1.148  12.769  19.346  0.00  0.00    +0.000 A 
ATOM      7  C   UNL     1      -1.437  11.938  20.446  0.00  0.00    +0.000 A 
ATOM      8  C   UNL     1      -0.685  10.752  20.586  0.00  0.00    +0.000 A 
ATOM      9  C   UNL     1       0.311  10.406  19.647  0.00  0.00    +0.000 A 
ATOM     10  H   UNL     1       1.989  11.048  17.024  0.00  0.00    +0.000 HD
ENDROOT
BRANCH   7  11
ATOM     11  C   UNL     1      -2.491  12.288  21.428  0.00  0.00    +0.000 A 
ATOM     12  C   UNL     1      -2.346  11.996  22.794  0.00  0.00    +0.000 A 
ATOM     13  C   UNL     1      -3.345  12.321  23.718  0.00  0.00    +0.000 A 
ATOM     14  C   UNL     1      -4.500  12.981  23.309  0.00  0.00    +0.000 A 
ATOM     15  C   UNL     1      -4.667  13.288  21.962  0.00  0.00    +0.000 A 
ATOM     16  C   UNL     1      -3.675  12.940  21.036  0.00  0.00    +0.000 A 
BRANCH  14  17
ATOM     17  O   UNL     1      -5.412  13.233  24.295  0.00  0.00    +0.000 OA
ATOM     18  C   UNL     1      -6.733  12.767  24.043  0.00  0.00    +0.000 C 
ENDBRANCH  14  17
ENDBRANCH   7  11
BRANCH   1  20
ATOM     19  N   UNL     1       1.977   7.055  19.709  0.00  0.00    +0.000 N 
ATOM     20  C   UNL     1       1.482   8.176  20.351  0.00  0.00    +0.000 C 
ATOM     21  O   UNL     1       1.263   8.188  21.562  0.00  0.00    +0.000 OA
ATOM     22  H   UNL     1       2.217   7.113  18.730  0.00  0.00    +0.000 HD
BRANCH  19  23
ATOM     23  C   UNL     1       2.208   5.816  20.419  0.00  0.00    +0.000 C 
BRANCH  23  27
ATOM     24  N   UNL     1       4.337   4.105  17.917  0.00  0.00    +0.000 NA
ATOM     25  C   UNL     1       4.320   3.785  19.352  0.00  0.00    +0.000 C 
ATOM     26  C   UNL     1       2.910   3.456  19.849  0.00  0.00    +0.000 C 
ATOM     27  C   UNL     1       1.917   4.583  19.549  0.00  0.00    +0.000 C 
ATOM     28  C   UNL     1       1.983   4.891  18.047  0.00  0.00    +0.000 C 
ATOM     29  C   UNL     1       3.410   5.200  17.587  0.00  0.00    +0.000 C 
BRANCH  24  30
ATOM     30  C   UNL     1       5.701   4.453  17.457  0.00  0.00    +0.000 C 
BRANCH  30  31
ATOM     31  C   UNL     1       5.778   4.790  15.960  0.00  0.00    +0.000 C 
BRANCH  31  33
ATOM     32  C   UNL     1       6.302   3.948  13.834  0.00  0.00    +0.000 C 
ATOM     33  O   UNL     1       6.111   3.621  15.205  0.00  0.00    +0.000 OA
ENDBRANCH  31  33
ENDBRANCH  30  31
ENDBRANCH  24  30
ENDBRANCH  23  27
ENDBRANCH  19  23
ENDBRANCH   1  20
TORSDOF 8
ENDMDL
MODEL 8
REMARK VINA RESULT:      -7.2      3.088      9.088
REMARK  Name = 
REMARK  10 active torsions:
REMARK  status: ('A' for Active; 'I' for Inactive)
REMARK    1  A    between atoms: C_1  and  O_2
REMARK    2  A    between atoms: O_2  and  C_3
REMARK    3  A    between atoms: C_3  and  C_4
REMARK    4  A    between atoms: C_4  and  N_5
REMARK    5  A    between atoms: C_8  and  C_9
REMARK    6  A    between atoms: C_9  and  N_10
REMARK    7  A    between atoms: C_11  and  C_13
REMARK    8  A    between atoms: C_19  and  C_20
REMARK    9  A    between atoms: C_23  and  O_24
REMARK   10  A    between atoms: O_24  and  C_25
REMARK                            x       y       z     vdW  Elec       q    Type
REMARK                         _______ _______ _______ _____ _____    ______ ____
ROOT
ATOM      1  C   UNL     1       1.927   5.794  20.033  0.00  0.00    +0.000 A 
ATOM      2  N   UNL     1       1.196   4.992  20.832  0.00  0.00    +0.000 NA
ATOM      3  N   UNL     1       1.538   3.751  20.464  0.00  0.00    +0.000 N 
ATOM      4  C   UNL     1       2.460   3.695  19.459  0.00  0.00    +0.000 A 
ATOM      5  C   UNL     1       3.077   2.615  18.827  0.00  0.00    +0.000 A 
ATOM      6  C   UNL     1       4.017   2.910  17.833  0.00  0.00    +0.000 A 
ATOM      7  C   UNL     1       4.340   4.228  17.456  0.00  0.00    +0.000 A 
ATOM      8  C   UNL     1       3.688   5.281  18.133  0.00  0.00    +0.000 A 
ATOM      9  C   UNL     1       2.736   5.018  19.142  0.00  0.00    +0.000 A 
ATOM     10  H   UNL     1       1.107   2.973  20.951  0.00  0.00    +0.000 HD
ENDROOT
BRANCH   7  11
ATOM     11  C   UNL     1       5.329   4.511  16.389  0.00  0.00    +0.000 A 
ATOM     12  C   UNL     1       6.426   5.359  16.612  0.00  0.00    +0.000 A 
ATOM     13  C   UNL     1       7.354   5.630  15.600  0.00  0.00    +0.000 A 
ATOM     14  C   UNL     1       7.232   5.032  14.349  0.00  0.00    +0.000 A 
ATOM     15  C   UNL     1       6.159   4.183  14.103  0.00  0.00    +0.000 A 
ATOM     16  C   UNL     1       5.218   3.932  15.110  0.00  0.00    +0.000 A 
BRANCH  14  17
ATOM     17  O   UNL     1       8.187   5.383  13.436  0.00  0.00    +0.000 OA
ATOM     18  C   UNL     1       7.773   5.358  12.075  0.00  0.00    +0.000 C 
ENDBRANCH  14  17
ENDBRANCH   7  11
BRANCH   1  20
ATOM     19  N   UNL     1       1.329   7.720  21.353  0.00  0.00    +0.000 N 
ATOM     20  C   UNL     1       1.853   7.261  20.158  0.00  0.00    +0.000 C 
ATOM     21  O   UNL     1       2.238   8.030  19.279  0.00  0.00    +0.000 OA
ATOM     22  H   UNL     1       1.098   7.057  22.079  0.00  0.00    +0.000 HD
BRANCH  19  23
ATOM     23  C   UNL     1       1.151   9.133  21.608  0.00  0.00    +0.000 C 
BRANCH  23  27
ATOM     24  N   UNL     1      -0.162  12.381  20.406  0.00  0.00    +0.000 NA
ATOM     25  C   UNL     1       0.208  11.258  19.530  0.00  0.00    +0.000 C 
ATOM     26  C   UNL     1      -0.524   9.969  19.912  0.00  0.00    +0.000 C 
ATOM     27  C   UNL     1      -0.298   9.590  21.378  0.00  0.00    +0.000 C 
ATOM     28  C   UNL     1      -0.682  10.795  22.248  0.00  0.00    +0.000 C 
ATOM     29  C   UNL     1       0.060  12.066  21.827  0.00  0.00    +0.000 C 
BRANCH  24  30
ATOM     30  C   UNL     1       0.577  13.613  20.047  0.00  0.00    +0.000 C 
BRANCH  30  31
ATOM     31  C   UNL     1       1.651  13.394  18.970  0.00  0.00    +0.000 C 
BRANCH  31  33
ATOM     32  C   UNL     1       3.725  14.277  18.322  0.00  0.00    +0.000 C 
ATOM     33  O   UNL     1       2.915  13.886  19.424  0.00  0.00    +0.000 OA
ENDBRANCH  31  33
ENDBRANCH  30  31
ENDBRANCH  24  30
ENDBRANCH  23  27
ENDBRANCH  19  23
ENDBRANCH   1  20
TORSDOF 8
ENDMDL
MODEL 9
REMARK VINA RESULT:      -7.2      2.987      9.051
REMARK  Name = 
REMARK  10 active torsions:
REMARK  status: ('A' for Active; 'I' for Inactive)
REMARK    1  A    between atoms: C_1  and  O_2
REMARK    2  A    between atoms: O_2  and  C_3
REMARK    3  A    between atoms: C_3  and  C_4
REMARK    4  A    between atoms: C_4  and  N_5
REMARK    5  A    between atoms: C_8  and  C_9
REMARK    6  A    between atoms: C_9  and  N_10
REMARK    7  A    between atoms: C_11  and  C_13
REMARK    8  A    between atoms: C_19  and  C_20
REMARK    9  A    between atoms: C_23  and  O_24
REMARK   10  A    between atoms: O_24  and  C_25
REMARK                            x       y       z     vdW  Elec       q    Type
REMARK                         _______ _______ _______ _____ _____    ______ ____
ROOT
ATOM      1  C   UNL     1       1.990   5.682  19.988  0.00  0.00    +0.000 A 
ATOM      2  N   UNL     1       1.291   4.899  20.833  0.00  0.00    +0.000 NA
ATOM      3  N   UNL     1       1.606   3.649  20.470  0.00  0.00    +0.000 N 
ATOM      4  C   UNL     1       2.481   3.570  19.426  0.00  0.00    +0.000 A 
ATOM      5  C   UNL     1       3.060   2.474  18.785  0.00  0.00    +0.000 A 
ATOM      6  C   UNL     1       3.957   2.744  17.745  0.00  0.00    +0.000 A 
ATOM      7  C   UNL     1       4.272   4.054  17.332  0.00  0.00    +0.000 A 
ATOM      8  C   UNL     1       3.660   5.123  18.020  0.00  0.00    +0.000 A 
ATOM      9  C   UNL     1       2.753   4.885  19.075  0.00  0.00    +0.000 A 
ATOM     10  H   UNL     1       1.192   2.883  20.990  0.00  0.00    +0.000 HD
ENDROOT
BRANCH   7  11
ATOM     11  C   UNL     1       5.214   4.310  16.216  0.00  0.00    +0.000 A 
ATOM     12  C   UNL     1       4.955   3.846  14.916  0.00  0.00    +0.000 A 
ATOM     13  C   UNL     1       5.850   4.082  13.867  0.00  0.00    +0.000 A 
ATOM     14  C   UNL     1       7.010   4.821  14.079  0.00  0.00    +0.000 A 
ATOM     15  C   UNL     1       7.289   5.299  15.356  0.00  0.00    +0.000 A 
ATOM     16  C   UNL     1       6.402   5.039  16.409  0.00  0.00    +0.000 A 
BRANCH  14  17
ATOM     17  O   UNL     1       7.816   4.975  12.986  0.00  0.00    +0.000 OA
ATOM     18  C   UNL     1       7.306   4.444  11.768  0.00  0.00    +0.000 C 
ENDBRANCH  14  17
ENDBRANCH   7  11
BRANCH   1  20
ATOM     19  N   UNL     1       1.432   7.634  21.287  0.00  0.00    +0.000 N 
ATOM     20  C   UNL     1       1.934   7.151  20.092  0.00  0.00    +0.000 C 
ATOM     21  O   UNL     1       2.314   7.903  19.196  0.00  0.00    +0.000 OA
ATOM     22  H   UNL     1       1.205   6.984  22.026  0.00  0.00    +0.000 HD
BRANCH  19  23
ATOM     23  C   UNL     1       1.273   9.052  21.524  0.00  0.00    +0.000 C 
BRANCH  23  27
ATOM     24  N   UNL     1      -0.072  12.206  20.121  0.00  0.00    +0.000 NA
ATOM     25  C   UNL     1       0.228  11.005  19.327  0.00  0.00    +0.000 C 
ATOM     26  C   UNL     1      -0.496   9.767  19.866  0.00  0.00    +0.000 C 
ATOM     27  C   UNL     1      -0.182   9.514  21.343  0.00  0.00    +0.000 C 
ATOM     28  C   UNL     1      -0.495  10.798  22.125  0.00  0.00    +0.000 C 
ATOM     29  C   UNL     1       0.236  12.013  21.548  0.00  0.00    +0.000 C 
BRANCH  24  30
ATOM     30  C   UNL     1       0.660  13.388  19.610  0.00  0.00    +0.000 C 
BRANCH  30  31
ATOM     31  C   UNL     1       1.926  13.031  18.815  0.00  0.00    +0.000 C 
BRANCH  31  33
ATOM     32  C   UNL     1       1.947  15.372  18.666  0.00  0.00    +0.000 C 
ATOM     33  O   UNL     1       2.742  14.192  18.636  0.00  0.00    +0.000 OA
ENDBRANCH  31  33
ENDBRANCH  30  31
ENDBRANCH  24  30
ENDBRANCH  23  27
ENDBRANCH  19  23
ENDBRANCH   1  20
TORSDOF 8
ENDMDL
