MODEL 1
REMARK VINA RESULT:      -7.6      0.000      0.000
REMARK  Name = 
REMARK  5 active torsions:
REMARK  status: ('A' for Active; 'I' for Inactive)
REMARK    1  A    between atoms: C_1  and  C_2
REMARK    2  A    between atoms: C_2  and  S_3
REMARK    3  A    between atoms: S_3  and  N_6
REMARK    4  A    between atoms: C_9  and  N_10
REMARK    5  A    between atoms: C_11  and  C_12
REMARK                            x       y       z     vdW  Elec       q    Type
REMARK                         _______ _______ _______ _____ _____    ______ ____
ROOT
ATOM      1  N   UNL     1       5.579   4.294  17.050  0.00  0.00    +0.000 NA
ATOM      2  C   UNL     1       5.722   4.260  18.530  0.00  0.00    +0.000 C 
ATOM      3  C   UNL     1       4.818   3.234  19.184  0.00  0.00    +0.000 C 
ATOM      4  C   UNL     1       3.340   3.454  18.837  0.00  0.00    +0.000 C 
ATOM      5  C   UNL     1       3.239   3.346  17.305  0.00  0.00    +0.000 C 
ATOM      6  C   UNL     1       4.172   4.288  16.543  0.00  0.00    +0.000 C 
ENDROOT
BRANCH   4   7
ATOM      7  N   UNL     1       2.729   4.613  19.490  0.00  0.00    +0.000 N 
ATOM      8  C   UNL     1       2.037   4.602  20.701  0.00  0.00    +0.000 A 
ATOM      9  C   UNL     1       1.764   3.410  21.549  0.00  0.00    +0.000 C 
ATOM     10  N   UNL     1       1.619   5.812  21.028  0.00  0.00    +0.000 NA
ATOM     11  C   UNL     1       1.973   6.622  19.990  0.00  0.00    +0.000 A 
ATOM     12  C   UNL     1       1.777   7.994  19.788  0.00  0.00    +0.000 A 
ATOM     13  C   UNL     1       2.271   8.547  18.607  0.00  0.00    +0.000 A 
ATOM     14  C   UNL     1       2.887   7.714  17.685  0.00  0.00    +0.000 A 
ATOM     15  N   UNL     1       3.051   6.379  17.818  0.00  0.00    +0.000 NA
ATOM     16  C   UNL     1       2.621   5.898  19.000  0.00  0.00    +0.000 A 
ENDBRANCH   4   7
BRANCH   1  17
ATOM     17  S   UNL     1       6.532   5.591  16.387  0.00  0.00    +0.000 S 
ATOM     18  O   UNL     1       5.631   6.450  15.654  0.00  0.00    +0.000 OA
ATOM     19  O   UNL     1       7.710   5.023  15.761  0.00  0.00    +0.000 OA
BRANCH  17  21
ATOM     20  C   UNL     1       7.697   7.774  17.507  0.00  0.00    +0.000 C 
ATOM     21  C   UNL     1       7.020   6.464  17.865  0.00  0.00    +0.000 C 
ENDBRANCH  17  21
ENDBRANCH   1  17
TORSDOF 3
ENDMDL
MODEL 2
REMARK VINA RESULT:      -7.4      1.339      1.546
REMARK  Name = 
REMARK  5 active torsions:
REMARK  status: ('A' for Active; 'I' for Inactive)
REMARK    1  A    between atoms: C_1  and  C_2
REMARK    2  A    between atoms: C_2  and  S_3
REMARK    3  A    between atoms: S_3  and  N_6
REMARK    4  A    between atoms: C_9  and  N_10
REMARK    5  A    between atoms: C_11  and  C_12
REMARK                            x       y       z     vdW  Elec       q    Type
REMARK                         _______ _______ _______ _____ _____    ______ ____
ROOT
ATOM      1  N   UNL     1       5.806   4.209  17.983  0.00  0.00    +0.000 NA
ATOM      2  C   UNL     1       5.198   3.685  19.235  0.00  0.00    +0.000 C 
ATOM      3  C   UNL     1       3.826   3.080  19.014  0.00  0.00    +0.000 C 
ATOM      4  C   UNL     1       2.849   4.073  18.369  0.00  0.00    +0.000 C 
ATOM      5  C   UNL     1       3.473   4.475  17.021  0.00  0.00    +0.000 C 
ATOM      6  C   UNL     1       4.896   5.026  17.124  0.00  0.00    +0.000 C 
ENDROOT
BRANCH   4   7
ATOM      7  N   UNL     1       2.389   5.138  19.262  0.00  0.00    +0.000 N 
ATOM      8  C   UNL     1       1.957   4.976  20.578  0.00  0.00    +0.000 A 
ATOM      9  C   UNL     1       1.855   3.690  21.320  0.00  0.00    +0.000 C 
ATOM     10  N   UNL     1       1.620   6.133  21.121  0.00  0.00    +0.000 NA
ATOM     11  C   UNL     1       1.761   7.062  20.134  0.00  0.00    +0.000 A 
ATOM     12  C   UNL     1       1.534   8.445  20.136  0.00  0.00    +0.000 A 
ATOM     13  C   UNL     1       1.783   9.139  18.951  0.00  0.00    +0.000 A 
ATOM     14  C   UNL     1       2.194   8.428  17.834  0.00  0.00    +0.000 A 
ATOM     15  N   UNL     1       2.375   7.090  17.775  0.00  0.00    +0.000 NA
ATOM     16  C   UNL     1       2.190   6.469  18.956  0.00  0.00    +0.000 A 
ENDBRANCH   4   7
BRANCH   1  17
ATOM     17  S   UNL     1       7.307   5.016  18.339  0.00  0.00    +0.000 S 
ATOM     18  O   UNL     1       8.370   4.186  17.823  0.00  0.00    +0.000 OA
ATOM     19  O   UNL     1       7.284   5.438  19.726  0.00  0.00    +0.000 OA
BRANCH  17  21
ATOM     20  C   UNL     1       7.884   7.641  17.939  0.00  0.00    +0.000 C 
ATOM     21  C   UNL     1       7.194   6.455  17.289  0.00  0.00    +0.000 C 
ENDBRANCH  17  21
ENDBRANCH   1  17
TORSDOF 3
ENDMDL
MODEL 3
REMARK VINA RESULT:      -7.1      1.207      1.590
REMARK  Name = 
REMARK  5 active torsions:
REMARK  status: ('A' for Active; 'I' for Inactive)
REMARK    1  A    between atoms: C_1  and  C_2
REMARK    2  A    between atoms: C_2  and  S_3
REMARK    3  A    between atoms: S_3  and  N_6
REMARK    4  A    between atoms: C_9  and  N_10
REMARK    5  A    between atoms: C_11  and  C_12
REMARK                            x       y       z     vdW  Elec       q    Type
REMARK                         _______ _______ _______ _____ _____    ______ ____
ROOT
ATOM      1  N   UNL     1       5.461   3.941  17.210  0.00  0.00    +0.000 NA
ATOM      2  C   UNL     1       5.540   3.856  18.693  0.00  0.00    +0.000 C 
ATOM      3  C   UNL     1       4.517   2.904  19.282  0.00  0.00    +0.000 C 
ATOM      4  C   UNL     1       3.082   3.272  18.884  0.00  0.00    +0.000 C 
ATOM      5  C   UNL     1       3.034   3.213  17.346  0.00  0.00    +0.000 C 
ATOM      6  C   UNL     1       4.083   4.082  16.650  0.00  0.00    +0.000 C 
ENDROOT
BRANCH   4   7
ATOM      7  N   UNL     1       2.555   4.467  19.546  0.00  0.00    +0.000 N 
ATOM      8  C   UNL     1       1.900   4.501  20.777  0.00  0.00    +0.000 A 
ATOM      9  C   UNL     1       1.585   3.330  21.640  0.00  0.00    +0.000 C 
ATOM     10  N   UNL     1       1.560   5.734  21.108  0.00  0.00    +0.000 NA
ATOM     11  C   UNL     1       1.928   6.517  20.055  0.00  0.00    +0.000 A 
ATOM     12  C   UNL     1       1.802   7.897  19.849  0.00  0.00    +0.000 A 
ATOM     13  C   UNL     1       2.292   8.415  18.650  0.00  0.00    +0.000 A 
ATOM     14  C   UNL     1       2.833   7.545  17.717  0.00  0.00    +0.000 A 
ATOM     15  N   UNL     1       2.926   6.203  17.854  0.00  0.00    +0.000 NA
ATOM     16  C   UNL     1       2.505   5.753  19.051  0.00  0.00    +0.000 A 
ENDBRANCH   4   7
BRANCH   1  17
ATOM     17  S   UNL     1       6.559   5.159  16.623  0.00  0.00    +0.000 S 
ATOM     18  O   UNL     1       7.866   4.550  16.544  0.00  0.00    +0.000 OA
ATOM     19  O   UNL     1       6.338   6.378  17.374  0.00  0.00    +0.000 OA
BRANCH  17  21
ATOM     20  C   UNL     1       6.555   4.327  14.037  0.00  0.00    +0.000 C 
ATOM     21  C   UNL     1       5.973   5.388  14.952  0.00  0.00    +0.000 C 
ENDBRANCH  17  21
ENDBRANCH   1  17
TORSDOF 3
ENDMDL
MODEL 4
REMARK VINA RESULT:      -6.9      2.826      5.725
REMARK  Name = 
REMARK  5 active torsions:
REMARK  status: ('A' for Active; 'I' for Inactive)
REMARK    1  A    between atoms: C_1  and  C_2
REMARK    2  A    between atoms: C_2  and  S_3
REMARK    3  A    between atoms: S_3  and  N_6
REMARK    4  A    between atoms: C_9  and  N_10
REMARK    5  A    between atoms: C_11  and  C_12
REMARK                            x       y       z     vdW  Elec       q    Type
REMARK                         _______ _______ _______ _____ _____    ______ ____
ROOT
ATOM      1  N   UNL     1       3.226   3.877  18.768  0.00  0.00    +0.000 NA
ATOM      2  C   UNL     1       4.657   3.783  19.167  0.00  0.00    +0.000 C 
ATOM      3  C   UNL     1       5.237   5.119  19.589  0.00  0.00    +0.000 C 
ATOM      4  C   UNL     1       5.099   6.185  18.494  0.00  0.00    +0.000 C 
ATOM      5  C   UNL     1       3.591   6.328  18.222  0.00  0.00    +0.000 C 
ATOM      6  C   UNL     1       2.889   5.018  17.863  0.00  0.00    +0.000 C 
ENDROOT
BRANCH   4   7
ATOM      7  N   UNL     1       5.994   6.001  17.350  0.00  0.00    +0.000 N 
ATOM      8  C   UNL     1       7.220   6.637  17.155  0.00  0.00    +0.000 A 
ATOM      9  C   UNL     1       7.842   7.645  18.057  0.00  0.00    +0.000 C 
ATOM     10  N   UNL     1       7.793   6.246  16.031  0.00  0.00    +0.000 NA
ATOM     11  C   UNL     1       6.907   5.396  15.438  0.00  0.00    +0.000 A 
ATOM     12  C   UNL     1       6.979   4.694  14.228  0.00  0.00    +0.000 A 
ATOM     13  C   UNL     1       5.897   3.881  13.891  0.00  0.00    +0.000 A 
ATOM     14  C   UNL     1       4.800   3.843  14.739  0.00  0.00    +0.000 A 
ATOM     15  N   UNL     1       4.669   4.543  15.887  0.00  0.00    +0.000 NA
ATOM     16  C   UNL     1       5.762   5.261  16.208  0.00  0.00    +0.000 A 
ENDBRANCH   4   7
BRANCH   1  17
ATOM     17  S   UNL     1       2.675   2.342  18.158  0.00  0.00    +0.000 S 
ATOM     18  O   UNL     1       3.708   1.375  18.444  0.00  0.00    +0.000 OA
ATOM     19  O   UNL     1       2.173   2.535  16.813  0.00  0.00    +0.000 OA
BRANCH  17  21
ATOM     20  C   UNL     1       1.269   3.003  20.387  0.00  0.00    +0.000 C 
ATOM     21  C   UNL     1       1.304   1.999  19.250  0.00  0.00    +0.000 C 
ENDBRANCH  17  21
ENDBRANCH   1  17
TORSDOF 3
ENDMDL
MODEL 5
REMARK VINA RESULT:      -6.4      3.058      5.418
REMARK  Name = 
REMARK  5 active torsions:
REMARK  status: ('A' for Active; 'I' for Inactive)
REMARK    1  A    between atoms: C_1  and  C_2
REMARK    2  A    between atoms: C_2  and  S_3
REMARK    3  A    between atoms: S_3  and  N_6
REMARK    4  A    between atoms: C_9  and  N_10
REMARK    5  A    between atoms: C_11  and  C_12
REMARK                            x       y       z     vdW  Elec       q    Type
REMARK                         _______ _______ _______ _____ _____    ______ ____
ROOT
ATOM      1  N   UNL     1       2.504   3.734  19.259  0.00  0.00    +0.000 NA
ATOM      2  C   UNL     1       2.342   4.272  17.882  0.00  0.00    +0.000 C 
ATOM      3  C   UNL     1       2.930   3.361  16.822  0.00  0.00    +0.000 C 
ATOM      4  C   UNL     1       4.416   3.068  17.066  0.00  0.00    +0.000 C 
ATOM      5  C   UNL     1       4.500   2.394  18.447  0.00  0.00    +0.000 C 
ATOM      6  C   UNL     1       3.862   3.198  19.581  0.00  0.00    +0.000 C 
ENDROOT
BRANCH   4   7
ATOM      7  N   UNL     1       5.310   4.195  16.792  0.00  0.00    +0.000 N 
ATOM      8  C   UNL     1       5.555   4.763  15.541  0.00  0.00    +0.000 A 
ATOM      9  C   UNL     1       4.978   4.318  14.244  0.00  0.00    +0.000 C 
ATOM     10  N   UNL     1       6.400   5.774  15.629  0.00  0.00    +0.000 NA
ATOM     11  C   UNL     1       6.776   5.834  16.937  0.00  0.00    +0.000 A 
ATOM     12  C   UNL     1       7.658   6.696  17.601  0.00  0.00    +0.000 A 
ATOM     13  C   UNL     1       7.832   6.509  18.972  0.00  0.00    +0.000 A 
ATOM     14  C   UNL     1       7.164   5.464  19.593  0.00  0.00    +0.000 A 
ATOM     15  N   UNL     1       6.346   4.579  18.982  0.00  0.00    +0.000 NA
ATOM     16  C   UNL     1       6.154   4.837  17.674  0.00  0.00    +0.000 A 
ENDBRANCH   4   7
BRANCH   1  17
ATOM     17  S   UNL     1       1.941   4.897  20.426  0.00  0.00    +0.000 S 
ATOM     18  O   UNL     1       2.666   4.655  21.651  0.00  0.00    +0.000 OA
ATOM     19  O   UNL     1       0.492   4.914  20.397  0.00  0.00    +0.000 OA
BRANCH  17  21
ATOM     20  C   UNL     1       1.833   7.610  20.338  0.00  0.00    +0.000 C 
ATOM     21  C   UNL     1       2.557   6.422  19.731  0.00  0.00    +0.000 C 
ENDBRANCH  17  21
ENDBRANCH   1  17
TORSDOF 3
ENDMDL
MODEL 6
REMARK VINA RESULT:      -6.4      3.094      5.604
REMARK  Name = 
REMARK  5 active torsions:
REMARK  status: ('A' for Active; 'I' for Inactive)
REMARK    1  A    between atoms: C_1  and  C_2
REMARK    2  A    between atoms: C_2  and  S_3
REMARK    3  A    between atoms: S_3  and  N_6
REMARK    4  A    between atoms: C_9  and  N_10
REMARK    5  A    between atoms: C_11  and  C_12
REMARK                            x       y       z     vdW  Elec       q    Type
REMARK                         _______ _______ _______ _____ _____    ______ ____
ROOT
ATOM      1  N   UNL     1       2.531   3.654  19.055  0.00  0.00    +0.000 NA
ATOM      2  C   UNL     1       2.377   4.357  17.753  0.00  0.00    +0.000 C 
ATOM      3  C   UNL     1       2.842   3.523  16.576  0.00  0.00    +0.000 C 
ATOM      4  C   UNL     1       4.301   3.071  16.723  0.00  0.00    +0.000 C 
ATOM      5  C   UNL     1       4.365   2.240  18.016  0.00  0.00    +0.000 C 
ATOM      6  C   UNL     1       3.842   2.965  19.258  0.00  0.00    +0.000 C 
ENDROOT
BRANCH   4   7
ATOM      7  N   UNL     1       5.288   4.136  16.536  0.00  0.00    +0.000 N 
ATOM      8  C   UNL     1       5.715   4.654  15.313  0.00  0.00    +0.000 A 
ATOM      9  C   UNL     1       5.271   4.209  13.964  0.00  0.00    +0.000 C 
ATOM     10  N   UNL     1       6.603   5.617  15.482  0.00  0.00    +0.000 NA
ATOM     11  C   UNL     1       6.823   5.690  16.825  0.00  0.00    +0.000 A 
ATOM     12  C   UNL     1       7.671   6.518  17.573  0.00  0.00    +0.000 A 
ATOM     13  C   UNL     1       7.667   6.358  18.959  0.00  0.00    +0.000 A 
ATOM     14  C   UNL     1       6.868   5.371  19.515  0.00  0.00    +0.000 A 
ATOM     15  N   UNL     1       6.076   4.519  18.827  0.00  0.00    +0.000 NA
ATOM     16  C   UNL     1       6.058   4.752  17.501  0.00  0.00    +0.000 A 
ENDBRANCH   4   7
BRANCH   1  17
ATOM     17  S   UNL     1       2.119   4.724  20.365  0.00  0.00    +0.000 S 
ATOM     18  O   UNL     1       0.697   4.964  20.286  0.00  0.00    +0.000 OA
ATOM     19  O   UNL     1       3.069   5.818  20.382  0.00  0.00    +0.000 OA
BRANCH  17  21
ATOM     20  C   UNL     1       1.437   2.511  21.785  0.00  0.00    +0.000 C 
ATOM     21  C   UNL     1       2.408   3.677  21.782  0.00  0.00    +0.000 C 
ENDBRANCH  17  21
ENDBRANCH   1  17
TORSDOF 3
ENDMDL
MODEL 7
REMARK VINA RESULT:      -6.4      3.053      5.779
REMARK  Name = 
REMARK  5 active torsions:
REMARK  status: ('A' for Active; 'I' for Inactive)
REMARK    1  A    between atoms: C_1  and  C_2
REMARK    2  A    between atoms: C_2  and  S_3
REMARK    3  A    between atoms: S_3  and  N_6
REMARK    4  A    between atoms: C_9  and  N_10
REMARK    5  A    between atoms: C_11  and  C_12
REMARK                            x       y       z     vdW  Elec       q    Type
REMARK                         _______ _______ _______ _____ _____    ______ ____
ROOT
ATOM      1  N   UNL     1       2.770   4.054  18.923  0.00  0.00    +0.000 NA
ATOM      2  C   UNL     1       4.102   4.087  19.585  0.00  0.00    +0.000 C 
ATOM      3  C   UNL     1       4.717   5.472  19.599  0.00  0.00    +0.000 C 
ATOM      4  C   UNL     1       4.852   6.064  18.189  0.00  0.00    +0.000 C 
ATOM      5  C   UNL     1       3.427   6.124  17.611  0.00  0.00    +0.000 C 
ATOM      6  C   UNL     1       2.684   4.788  17.623  0.00  0.00    +0.000 C 
ENDROOT
BRANCH   4   7
ATOM      7  N   UNL     1       5.904   5.453  17.373  0.00  0.00    +0.000 N 
ATOM      8  C   UNL     1       7.230   5.254  17.758  0.00  0.00    +0.000 A 
ATOM      9  C   UNL     1       7.838   5.647  19.057  0.00  0.00    +0.000 C 
ATOM     10  N   UNL     1       7.926   4.666  16.801  0.00  0.00    +0.000 NA
ATOM     11  C   UNL     1       7.074   4.538  15.745  0.00  0.00    +0.000 A 
ATOM     12  C   UNL     1       7.270   4.000  14.467  0.00  0.00    +0.000 A 
ATOM     13  C   UNL     1       6.182   4.003  13.594  0.00  0.00    +0.000 A 
ATOM     14  C   UNL     1       4.989   4.570  14.014  0.00  0.00    +0.000 A 
ATOM     15  N   UNL     1       4.773   5.145  15.218  0.00  0.00    +0.000 NA
ATOM     16  C   UNL     1       5.826   5.060  16.053  0.00  0.00    +0.000 A 
ENDBRANCH   4   7
BRANCH   1  17
ATOM     17  S   UNL     1       2.197   2.414  18.814  0.00  0.00    +0.000 S 
ATOM     18  O   UNL     1       3.303   1.606  18.354  0.00  0.00    +0.000 OA
ATOM     19  O   UNL     1       0.925   2.416  18.120  0.00  0.00    +0.000 OA
BRANCH  17  21
ATOM     20  C   UNL     1       1.241   3.174  21.240  0.00  0.00    +0.000 C 
ATOM     21  C   UNL     1       1.924   2.018  20.533  0.00  0.00    +0.000 C 
ENDBRANCH  17  21
ENDBRANCH   1  17
TORSDOF 3
ENDMDL
MODEL 8
REMARK VINA RESULT:      -6.3      1.408      2.711
REMARK  Name = 
REMARK  5 active torsions:
REMARK  status: ('A' for Active; 'I' for Inactive)
REMARK    1  A    between atoms: C_1  and  C_2
REMARK    2  A    between atoms: C_2  and  S_3
REMARK    3  A    between atoms: S_3  and  N_6
REMARK    4  A    between atoms: C_9  and  N_10
REMARK    5  A    between atoms: C_11  and  C_12
REMARK                            x       y       z     vdW  Elec       q    Type
REMARK                         _______ _______ _______ _____ _____    ______ ____
ROOT
ATOM      1  N   UNL     1       5.876   4.495  18.001  0.00  0.00    +0.000 NA
ATOM      2  C   UNL     1       5.536   5.147  19.294  0.00  0.00    +0.000 C 
ATOM      3  C   UNL     1       4.155   4.774  19.796  0.00  0.00    +0.000 C 
ATOM      4  C   UNL     1       3.057   5.100  18.775  0.00  0.00    +0.000 C 
ATOM      5  C   UNL     1       3.395   4.293  17.509  0.00  0.00    +0.000 C 
ATOM      6  C   UNL     1       4.802   4.538  16.962  0.00  0.00    +0.000 C 
ENDROOT
BRANCH   4   7
ATOM      7  N   UNL     1       2.769   6.528  18.628  0.00  0.00    +0.000 N 
ATOM      8  C   UNL     1       3.251   7.363  17.620  0.00  0.00    +0.000 A 
ATOM      9  C   UNL     1       4.170   6.972  16.517  0.00  0.00    +0.000 C 
ATOM     10  N   UNL     1       2.797   8.596  17.758  0.00  0.00    +0.000 NA
ATOM     11  C   UNL     1       2.066   8.598  18.908  0.00  0.00    +0.000 A 
ATOM     12  C   UNL     1       1.365   9.627  19.549  0.00  0.00    +0.000 A 
ATOM     13  C   UNL     1       0.693   9.310  20.729  0.00  0.00    +0.000 A 
ATOM     14  C   UNL     1       0.786   8.019  21.226  0.00  0.00    +0.000 A 
ATOM     15  N   UNL     1       1.492   7.011  20.667  0.00  0.00    +0.000 NA
ATOM     16  C   UNL     1       2.069   7.341  19.496  0.00  0.00    +0.000 A 
ENDBRANCH   4   7
BRANCH   1  17
ATOM     17  S   UNL     1       7.407   5.085  17.418  0.00  0.00    +0.000 S 
ATOM     18  O   UNL     1       7.198   5.546  16.065  0.00  0.00    +0.000 OA
ATOM     19  O   UNL     1       8.428   4.105  17.732  0.00  0.00    +0.000 OA
BRANCH  17  21
ATOM     20  C   UNL     1       7.705   7.780  17.590  0.00  0.00    +0.000 C 
ATOM     21  C   UNL     1       7.645   6.527  18.444  0.00  0.00    +0.000 C 
ENDBRANCH  17  21
ENDBRANCH   1  17
TORSDOF 3
ENDMDL
MODEL 9
REMARK VINA RESULT:      -6.3      6.622      9.294
REMARK  Name = 
REMARK  5 active torsions:
REMARK  status: ('A' for Active; 'I' for Inactive)
REMARK    1  A    between atoms: C_1  and  C_2
REMARK    2  A    between atoms: C_2  and  S_3
REMARK    3  A    between atoms: S_3  and  N_6
REMARK    4  A    between atoms: C_9  and  N_10
REMARK    5  A    between atoms: C_11  and  C_12
REMARK                            x       y       z     vdW  Elec       q    Type
REMARK                         _______ _______ _______ _____ _____    ______ ____
ROOT
ATOM      1  N   UNL     1      -2.981  11.939  18.234  0.00  0.00    +0.000 NA
ATOM      2  C   UNL     1      -3.392  12.248  19.629  0.00  0.00    +0.000 C 
ATOM      3  C   UNL     1      -2.534  13.321  20.271  0.00  0.00    +0.000 C 
ATOM      4  C   UNL     1      -1.044  12.956  20.265  0.00  0.00    +0.000 C 
ATOM      5  C   UNL     1      -0.651  12.779  18.788  0.00  0.00    +0.000 C 
ATOM      6  C   UNL     1      -1.510  11.771  18.023  0.00  0.00    +0.000 C 
ENDROOT
BRANCH   4   7
ATOM      7  N   UNL     1      -0.674  11.900  21.210  0.00  0.00    +0.000 N 
ATOM      8  C   UNL     1      -0.914  11.907  22.584  0.00  0.00    +0.000 A 
ATOM      9  C   UNL     1      -1.567  12.997  23.358  0.00  0.00    +0.000 C 
ATOM     10  N   UNL     1      -0.471  10.802  23.155  0.00  0.00    +0.000 NA
ATOM     11  C   UNL     1       0.133  10.086  22.165  0.00  0.00    +0.000 A 
ATOM     12  C   UNL     1       0.784   8.846  22.195  0.00  0.00    +0.000 A 
ATOM     13  C   UNL     1       1.301   8.362  20.993  0.00  0.00    +0.000 A 
ATOM     14  C   UNL     1       1.185   9.142  19.853  0.00  0.00    +0.000 A 
ATOM     15  N   UNL     1       0.611  10.364  19.792  0.00  0.00    +0.000 NA
ATOM     16  C   UNL     1       0.065  10.763  20.957  0.00  0.00    +0.000 A 
ENDBRANCH   4   7
BRANCH   1  17
ATOM     17  S   UNL     1      -3.910  10.602  17.619  0.00  0.00    +0.000 S 
ATOM     18  O   UNL     1      -5.238  10.715  18.176  0.00  0.00    +0.000 OA
ATOM     19  O   UNL     1      -3.129   9.390  17.770  0.00  0.00    +0.000 OA
BRANCH  17  21
ATOM     20  C   UNL     1      -2.906  10.337  15.109  0.00  0.00    +0.000 C 
ATOM     21  C   UNL     1      -4.021  11.014  15.885  0.00  0.00    +0.000 C 
ENDBRANCH  17  21
ENDBRANCH   1  17
TORSDOF 3
ENDMDL
