MODEL 1
REMARK VINA RESULT:      -8.0      0.000      0.000
REMARK  Name = 
REMARK  10 active torsions:
REMARK  status: ('A' for Active; 'I' for Inactive)
REMARK    1  A    between atoms: C_1  and  C_2
REMARK    2  A    between atoms: C_2  and  O_3
REMARK    3  A    between atoms: O_3  and  C_4
REMARK    4  A    between atoms: C_9  and  C_10
REMARK    5  A    between atoms: C_10  and  N_11
REMARK    6  A    between atoms: N_11  and  C_12
REMARK    7  A    between atoms: N_11  and  C_23
REMARK    8  A    between atoms: C_12  and  C_13
REMARK    9  A    between atoms: C_13  and  C_14
REMARK   10  A    between atoms: C_23  and  C_24
REMARK                            x       y       z     vdW  Elec       q    Type
REMARK                         _______ _______ _______ _____ _____    ______ ____
ROOT
ATOM      1  N   UNL     1       4.690   4.090  17.778  0.00  0.00    +0.000 NA
ENDROOT
BRANCH   1   2
ATOM      2  C   UNL     1       4.300   4.489  16.402  0.00  0.00    +0.000 C 
BRANCH   2   8
ATOM      3  C   UNL     1       6.415   5.512  15.349  0.00  0.00    +0.000 A 
ATOM      4  C   UNL     1       7.282   5.588  14.250  0.00  0.00    +0.000 A 
ATOM      5  C   UNL     1       7.207   4.663  13.209  0.00  0.00    +0.000 A 
ATOM      6  C   UNL     1       6.274   3.638  13.264  0.00  0.00    +0.000 A 
ATOM      7  C   UNL     1       5.401   3.558  14.347  0.00  0.00    +0.000 A 
ATOM      8  C   UNL     1       5.441   4.501  15.399  0.00  0.00    +0.000 A 
BRANCH   3   9
ATOM      9  O   UNL     1       6.499   6.576  16.208  0.00  0.00    +0.000 OA
BRANCH   9  11
ATOM     10  C   UNL     1       7.851   7.844  17.732  0.00  0.00    +0.000 C 
ATOM     11  C   UNL     1       7.456   6.452  17.263  0.00  0.00    +0.000 C 
ENDBRANCH   9  11
ENDBRANCH   3   9
ENDBRANCH   2   8
ENDBRANCH   1   2
BRANCH   1  12
ATOM     12  C   UNL     1       4.358   5.154  18.756  0.00  0.00    +0.000 C 
BRANCH  12  13
ATOM     13  C   UNL     1       3.676   6.348  18.070  0.00  0.00    +0.000 C 
BRANCH  13  14
ATOM     14  C   UNL     1       2.561   7.111  18.738  0.00  0.00    +0.000 A 
ATOM     15  C   UNL     1       2.152   6.911  20.069  0.00  0.00    +0.000 A 
ATOM     16  C   UNL     1       1.412   7.891  20.745  0.00  0.00    +0.000 A 
ATOM     17  C   UNL     1       1.144   9.064  20.069  0.00  0.00    +0.000 A 
ATOM     18  C   UNL     1       1.478   9.229  18.747  0.00  0.00    +0.000 A 
ATOM     19  C   UNL     1       2.139   8.258  18.042  0.00  0.00    +0.000 A 
ATOM     20  O   UNL     1       1.217  10.485  18.293  0.00  0.00    +0.000 OA
ATOM     21  C   UNL     1       1.006  11.141  19.557  0.00  0.00    +0.000 C 
ATOM     22  O   UNL     1       0.639  10.214  20.603  0.00  0.00    +0.000 OA
ENDBRANCH  13  14
ENDBRANCH  12  13
ENDBRANCH   1  12
BRANCH   1  23
ATOM     23  C   UNL     1       4.020   2.805  18.119  0.00  0.00    +0.000 C 
BRANCH  23  24
ATOM     24  C   UNL     1       3.020   2.892  19.256  0.00  0.00    +0.000 A 
ATOM     25  C   UNL     1       1.704   3.281  19.007  0.00  0.00    +0.000 A 
ATOM     26  C   UNL     1       0.822   3.379  20.075  0.00  0.00    +0.000 A 
ATOM     27  C   UNL     1       1.268   3.067  21.353  0.00  0.00    +0.000 A 
ATOM     28  C   UNL     1       2.582   2.656  21.509  0.00  0.00    +0.000 A 
ATOM     29  N   UNL     1       3.466   2.565  20.494  0.00  0.00    +0.000 NA
ENDBRANCH  23  24
ENDBRANCH   1  23
TORSDOF 9
ENDMDL
MODEL 2
REMARK VINA RESULT:      -7.8      1.888      3.467
REMARK  Name = 
REMARK  10 active torsions:
REMARK  status: ('A' for Active; 'I' for Inactive)
REMARK    1  A    between atoms: C_1  and  C_2
REMARK    2  A    between atoms: C_2  and  O_3
REMARK    3  A    between atoms: O_3  and  C_4
REMARK    4  A    between atoms: C_9  and  C_10
REMARK    5  A    between atoms: C_10  and  N_11
REMARK    6  A    between atoms: N_11  and  C_12
REMARK    7  A    between atoms: N_11  and  C_23
REMARK    8  A    between atoms: C_12  and  C_13
REMARK    9  A    between atoms: C_13  and  C_14
REMARK   10  A    between atoms: C_23  and  C_24
REMARK                            x       y       z     vdW  Elec       q    Type
REMARK                         _______ _______ _______ _____ _____    ______ ____
ROOT
ATOM      1  N   UNL     1       3.153   6.662  18.249  0.00  0.00    +0.000 NA
ENDROOT
BRANCH   1   2
ATOM      2  C   UNL     1       4.062   6.664  17.076  0.00  0.00    +0.000 C 
BRANCH   2   8
ATOM      3  C   UNL     1       6.296   5.618  16.340  0.00  0.00    +0.000 A 
ATOM      4  C   UNL     1       7.446   4.894  16.689  0.00  0.00    +0.000 A 
ATOM      5  C   UNL     1       7.774   4.664  18.024  0.00  0.00    +0.000 A 
ATOM      6  C   UNL     1       6.964   5.171  19.030  0.00  0.00    +0.000 A 
ATOM      7  C   UNL     1       5.815   5.883  18.696  0.00  0.00    +0.000 A 
ATOM      8  C   UNL     1       5.448   6.104  17.348  0.00  0.00    +0.000 A 
BRANCH   3   9
ATOM      9  O   UNL     1       6.020   5.626  14.998  0.00  0.00    +0.000 OA
BRANCH   9  11
ATOM     10  C   UNL     1       5.931   3.762  13.489  0.00  0.00    +0.000 C 
ATOM     11  C   UNL     1       6.830   4.769  14.190  0.00  0.00    +0.000 C 
ENDBRANCH   9  11
ENDBRANCH   3   9
ENDBRANCH   2   8
ENDBRANCH   1   2
BRANCH   1  12
ATOM     12  C   UNL     1       2.417   7.946  18.354  0.00  0.00    +0.000 C 
BRANCH  12  13
ATOM     13  C   UNL     1       1.688   8.061  19.702  0.00  0.00    +0.000 C 
BRANCH  13  14
ATOM     14  C   UNL     1       1.009   9.339  20.124  0.00  0.00    +0.000 A 
ATOM     15  C   UNL     1       0.186  10.113  19.286  0.00  0.00    +0.000 A 
ATOM     16  C   UNL     1      -0.718  11.038  19.827  0.00  0.00    +0.000 A 
ATOM     17  C   UNL     1      -0.793  11.124  21.202  0.00  0.00    +0.000 A 
ATOM     18  C   UNL     1       0.061  10.423  22.018  0.00  0.00    +0.000 A 
ATOM     19  C   UNL     1       1.001   9.564  21.513  0.00  0.00    +0.000 A 
ATOM     20  O   UNL     1      -0.239  10.567  23.338  0.00  0.00    +0.000 OA
ATOM     21  C   UNL     1      -1.548  11.151  23.208  0.00  0.00    +0.000 C 
ATOM     22  O   UNL     1      -1.743  11.786  21.924  0.00  0.00    +0.000 OA
ENDBRANCH  13  14
ENDBRANCH  12  13
ENDBRANCH   1  12
BRANCH   1  23
ATOM     23  C   UNL     1       2.222   5.506  18.139  0.00  0.00    +0.000 C 
BRANCH  23  24
ATOM     24  C   UNL     1       2.344   4.483  19.253  0.00  0.00    +0.000 A 
ATOM     25  C   UNL     1       1.417   4.465  20.295  0.00  0.00    +0.000 A 
ATOM     26  C   UNL     1       1.576   3.535  21.314  0.00  0.00    +0.000 A 
ATOM     27  C   UNL     1       2.635   2.639  21.256  0.00  0.00    +0.000 A 
ATOM     28  C   UNL     1       3.490   2.702  20.168  0.00  0.00    +0.000 A 
ATOM     29  N   UNL     1       3.372   3.602  19.170  0.00  0.00    +0.000 NA
ENDBRANCH  23  24
ENDBRANCH   1  23
TORSDOF 9
ENDMDL
MODEL 3
REMARK VINA RESULT:      -7.7      1.975      5.304
REMARK  Name = 
REMARK  10 active torsions:
REMARK  status: ('A' for Active; 'I' for Inactive)
REMARK    1  A    between atoms: C_1  and  C_2
REMARK    2  A    between atoms: C_2  and  O_3
REMARK    3  A    between atoms: O_3  and  C_4
REMARK    4  A    between atoms: C_9  and  C_10
REMARK    5  A    between atoms: C_10  and  N_11
REMARK    6  A    between atoms: N_11  and  C_12
REMARK    7  A    between atoms: N_11  and  C_23
REMARK    8  A    between atoms: C_12  and  C_13
REMARK    9  A    between atoms: C_13  and  C_14
REMARK   10  A    between atoms: C_23  and  C_24
REMARK                            x       y       z     vdW  Elec       q    Type
REMARK                         _______ _______ _______ _____ _____    ______ ____
ROOT
ATOM      1  N   UNL     1       4.031   4.916  17.111  0.00  0.00    +0.000 NA
ENDROOT
BRANCH   1   2
ATOM      2  C   UNL     1       3.584   3.568  17.540  0.00  0.00    +0.000 C 
BRANCH   2   8
ATOM      3  C   UNL     1       3.481   3.030  20.056  0.00  0.00    +0.000 A 
ATOM      4  C   UNL     1       2.695   2.801  21.195  0.00  0.00    +0.000 A 
ATOM      5  C   UNL     1       1.330   3.083  21.196  0.00  0.00    +0.000 A 
ATOM      6  C   UNL     1       0.735   3.614  20.060  0.00  0.00    +0.000 A 
ATOM      7  C   UNL     1       1.504   3.837  18.920  0.00  0.00    +0.000 A 
ATOM      8  C   UNL     1       2.884   3.533  18.888  0.00  0.00    +0.000 A 
BRANCH   3   9
ATOM      9  O   UNL     1       4.763   2.558  20.151  0.00  0.00    +0.000 OA
BRANCH   9  11
ATOM     10  C   UNL     1       5.618   0.793  21.535  0.00  0.00    +0.000 C 
ATOM     11  C   UNL     1       4.901   1.138  20.238  0.00  0.00    +0.000 C 
ENDBRANCH   9  11
ENDBRANCH   3   9
ENDBRANCH   2   8
ENDBRANCH   1   2
BRANCH   1  12
ATOM     12  C   UNL     1       3.951   5.886  18.231  0.00  0.00    +0.000 C 
BRANCH  12  13
ATOM     13  C   UNL     1       3.203   7.160  17.811  0.00  0.00    +0.000 C 
BRANCH  13  14
ATOM     14  C   UNL     1       2.172   7.801  18.706  0.00  0.00    +0.000 A 
ATOM     15  C   UNL     1       1.947   7.432  20.045  0.00  0.00    +0.000 A 
ATOM     16  C   UNL     1       1.287   8.300  20.924  0.00  0.00    +0.000 A 
ATOM     17  C   UNL     1       0.909   9.534  20.436  0.00  0.00    +0.000 A 
ATOM     18  C   UNL     1       1.062   9.865  19.112  0.00  0.00    +0.000 A 
ATOM     19  C   UNL     1       1.641   9.008  18.214  0.00  0.00    +0.000 A 
ATOM     20  O   UNL     1       0.721  11.157  18.851  0.00  0.00    +0.000 OA
ATOM     21  C   UNL     1       0.667  11.651  20.202  0.00  0.00    +0.000 C 
ATOM     22  O   UNL     1       0.460  10.595  21.167  0.00  0.00    +0.000 OA
ENDBRANCH  13  14
ENDBRANCH  12  13
ENDBRANCH   1  12
BRANCH   1  23
ATOM     23  C   UNL     1       5.415   4.819  16.570  0.00  0.00    +0.000 C 
BRANCH  23  24
ATOM     24  C   UNL     1       6.439   5.682  17.284  0.00  0.00    +0.000 A 
ATOM     25  C   UNL     1       7.082   5.208  18.427  0.00  0.00    +0.000 A 
ATOM     26  C   UNL     1       7.992   6.036  19.073  0.00  0.00    +0.000 A 
ATOM     27  C   UNL     1       8.250   7.297  18.551  0.00  0.00    +0.000 A 
ATOM     28  C   UNL     1       7.593   7.676  17.392  0.00  0.00    +0.000 A 
ATOM     29  N   UNL     1       6.694   6.902  16.750  0.00  0.00    +0.000 NA
ENDBRANCH  23  24
ENDBRANCH   1  23
TORSDOF 9
ENDMDL
MODEL 4
REMARK VINA RESULT:      -7.6      2.408      3.579
REMARK  Name = 
REMARK  10 active torsions:
REMARK  status: ('A' for Active; 'I' for Inactive)
REMARK    1  A    between atoms: C_1  and  C_2
REMARK    2  A    between atoms: C_2  and  O_3
REMARK    3  A    between atoms: O_3  and  C_4
REMARK    4  A    between atoms: C_9  and  C_10
REMARK    5  A    between atoms: C_10  and  N_11
REMARK    6  A    between atoms: N_11  and  C_12
REMARK    7  A    between atoms: N_11  and  C_23
REMARK    8  A    between atoms: C_12  and  C_13
REMARK    9  A    between atoms: C_13  and  C_14
REMARK   10  A    between atoms: C_23  and  C_24
REMARK                            x       y       z     vdW  Elec       q    Type
REMARK                         _______ _______ _______ _____ _____    ______ ____
ROOT
ATOM      1  N   UNL     1       3.174   6.707  18.040  0.00  0.00    +0.000 NA
ENDROOT
BRANCH   1   2
ATOM      2  C   UNL     1       4.196   6.115  17.141  0.00  0.00    +0.000 C 
BRANCH   2   8
ATOM      3  C   UNL     1       5.924   5.297  18.865  0.00  0.00    +0.000 A 
ATOM      4  C   UNL     1       7.166   5.484  19.490  0.00  0.00    +0.000 A 
ATOM      5  C   UNL     1       8.092   6.399  18.990  0.00  0.00    +0.000 A 
ATOM      6  C   UNL     1       7.794   7.126  17.847  0.00  0.00    +0.000 A 
ATOM      7  C   UNL     1       6.561   6.955  17.223  0.00  0.00    +0.000 A 
ATOM      8  C   UNL     1       5.596   6.053  17.728  0.00  0.00    +0.000 A 
BRANCH   3   9
ATOM      9  O   UNL     1       5.061   4.488  19.556  0.00  0.00    +0.000 OA
BRANCH   9  11
ATOM     10  C   UNL     1       4.596   2.195  20.089  0.00  0.00    +0.000 C 
ATOM     11  C   UNL     1       4.803   3.209  18.974  0.00  0.00    +0.000 C 
ENDBRANCH   9  11
ENDBRANCH   3   9
ENDBRANCH   2   8
ENDBRANCH   1   2
BRANCH   1  12
ATOM     12  C   UNL     1       3.085   8.175  17.851  0.00  0.00    +0.000 C 
BRANCH  12  13
ATOM     13  C   UNL     1       1.622   8.644  17.812  0.00  0.00    +0.000 C 
BRANCH  13  14
ATOM     14  C   UNL     1       0.995   9.370  18.975  0.00  0.00    +0.000 A 
ATOM     15  C   UNL     1       1.084   8.945  20.313  0.00  0.00    +0.000 A 
ATOM     16  C   UNL     1       0.841   9.840  21.365  0.00  0.00    +0.000 A 
ATOM     17  C   UNL     1       0.555  11.149  21.033  0.00  0.00    +0.000 A 
ATOM     18  C   UNL     1       0.395  11.545  19.728  0.00  0.00    +0.000 A 
ATOM     19  C   UNL     1       0.558  10.675  18.683  0.00  0.00    +0.000 A 
ATOM     20  O   UNL     1       0.216  12.889  19.606  0.00  0.00    +0.000 OA
ATOM     21  C   UNL     1       0.614  13.289  20.930  0.00  0.00    +0.000 C 
ATOM     22  O   UNL     1       0.504  12.212  21.888  0.00  0.00    +0.000 OA
ENDBRANCH  13  14
ENDBRANCH  12  13
ENDBRANCH   1  12
BRANCH   1  23
ATOM     23  C   UNL     1       1.865   6.043  17.790  0.00  0.00    +0.000 C 
BRANCH  23  24
ATOM     24  C   UNL     1       1.576   4.850  18.682  0.00  0.00    +0.000 A 
ATOM     25  C   UNL     1       1.638   4.979  20.069  0.00  0.00    +0.000 A 
ATOM     26  C   UNL     1       1.397   3.860  20.856  0.00  0.00    +0.000 A 
ATOM     27  C   UNL     1       1.081   2.655  20.241  0.00  0.00    +0.000 A 
ATOM     28  C   UNL     1       1.008   2.621  18.858  0.00  0.00    +0.000 A 
ATOM     29  N   UNL     1       1.250   3.686  18.067  0.00  0.00    +0.000 NA
ENDBRANCH  23  24
ENDBRANCH   1  23
TORSDOF 9
ENDMDL
MODEL 5
REMARK VINA RESULT:      -7.6      1.729      3.111
REMARK  Name = 
REMARK  10 active torsions:
REMARK  status: ('A' for Active; 'I' for Inactive)
REMARK    1  A    between atoms: C_1  and  C_2
REMARK    2  A    between atoms: C_2  and  O_3
REMARK    3  A    between atoms: O_3  and  C_4
REMARK    4  A    between atoms: C_9  and  C_10
REMARK    5  A    between atoms: C_10  and  N_11
REMARK    6  A    between atoms: N_11  and  C_12
REMARK    7  A    between atoms: N_11  and  C_23
REMARK    8  A    between atoms: C_12  and  C_13
REMARK    9  A    between atoms: C_13  and  C_14
REMARK   10  A    between atoms: C_23  and  C_24
REMARK                            x       y       z     vdW  Elec       q    Type
REMARK                         _______ _______ _______ _____ _____    ______ ____
ROOT
ATOM      1  N   UNL     1       3.150   6.541  17.990  0.00  0.00    +0.000 NA
ENDROOT
BRANCH   1   2
ATOM      2  C   UNL     1       4.240   6.945  17.067  0.00  0.00    +0.000 C 
BRANCH   2   8
ATOM      3  C   UNL     1       6.308   5.608  16.319  0.00  0.00    +0.000 A 
ATOM      4  C   UNL     1       7.393   4.792  16.673  0.00  0.00    +0.000 A 
ATOM      5  C   UNL     1       7.766   4.630  18.006  0.00  0.00    +0.000 A 
ATOM      6  C   UNL     1       7.068   5.297  19.003  0.00  0.00    +0.000 A 
ATOM      7  C   UNL     1       5.984   6.103  18.664  0.00  0.00    +0.000 A 
ATOM      8  C   UNL     1       5.572   6.260  17.322  0.00  0.00    +0.000 A 
BRANCH   3   9
ATOM      9  O   UNL     1       5.963   5.544  14.995  0.00  0.00    +0.000 OA
BRANCH   9  11
ATOM     10  C   UNL     1       6.228   3.900  13.267  0.00  0.00    +0.000 C 
ATOM     11  C   UNL     1       5.482   4.278  14.537  0.00  0.00    +0.000 C 
ENDBRANCH   9  11
ENDBRANCH   3   9
ENDBRANCH   2   8
ENDBRANCH   1   2
BRANCH   1  12
ATOM     12  C   UNL     1       1.959   7.409  17.822  0.00  0.00    +0.000 C 
BRANCH  12  13
ATOM     13  C   UNL     1       2.081   8.690  18.660  0.00  0.00    +0.000 C 
BRANCH  13  14
ATOM     14  C   UNL     1       1.209   8.931  19.866  0.00  0.00    +0.000 A 
ATOM     15  C   UNL     1       1.445   8.377  21.137  0.00  0.00    +0.000 A 
ATOM     16  C   UNL     1       0.860   8.938  22.281  0.00  0.00    +0.000 A 
ATOM     17  C   UNL     1       0.085  10.066  22.111  0.00  0.00    +0.000 A 
ATOM     18  C   UNL     1      -0.207  10.562  20.864  0.00  0.00    +0.000 A 
ATOM     19  C   UNL     1       0.295   9.992  19.724  0.00  0.00    +0.000 A 
ATOM     20  O   UNL     1      -0.900  11.732  20.913  0.00  0.00    +0.000 OA
ATOM     21  C   UNL     1      -0.703  12.050  22.303  0.00  0.00    +0.000 C 
ATOM     22  O   UNL     1      -0.389  10.884  23.096  0.00  0.00    +0.000 OA
ENDBRANCH  13  14
ENDBRANCH  12  13
ENDBRANCH   1  12
BRANCH   1  23
ATOM     23  C   UNL     1       2.819   5.109  17.753  0.00  0.00    +0.000 C 
BRANCH  23  24
ATOM     24  C   UNL     1       2.293   4.367  18.967  0.00  0.00    +0.000 A 
ATOM     25  C   UNL     1       1.464   3.257  18.807  0.00  0.00    +0.000 A 
ATOM     26  C   UNL     1       0.975   2.620  19.941  0.00  0.00    +0.000 A 
ATOM     27  C   UNL     1       1.341   3.091  21.195  0.00  0.00    +0.000 A 
ATOM     28  C   UNL     1       2.195   4.179  21.265  0.00  0.00    +0.000 A 
ATOM     29  N   UNL     1       2.676   4.828  20.184  0.00  0.00    +0.000 NA
ENDBRANCH  23  24
ENDBRANCH   1  23
TORSDOF 9
ENDMDL
MODEL 6
REMARK VINA RESULT:      -7.5      1.717      2.455
REMARK  Name = 
REMARK  10 active torsions:
REMARK  status: ('A' for Active; 'I' for Inactive)
REMARK    1  A    between atoms: C_1  and  C_2
REMARK    2  A    between atoms: C_2  and  O_3
REMARK    3  A    between atoms: O_3  and  C_4
REMARK    4  A    between atoms: C_9  and  C_10
REMARK    5  A    between atoms: C_10  and  N_11
REMARK    6  A    between atoms: N_11  and  C_12
REMARK    7  A    between atoms: N_11  and  C_23
REMARK    8  A    between atoms: C_12  and  C_13
REMARK    9  A    between atoms: C_13  and  C_14
REMARK   10  A    between atoms: C_23  and  C_24
REMARK                            x       y       z     vdW  Elec       q    Type
REMARK                         _______ _______ _______ _____ _____    ______ ____
ROOT
ATOM      1  N   UNL     1       3.449   6.506  18.353  0.00  0.00    +0.000 NA
ENDROOT
BRANCH   1   2
ATOM      2  C   UNL     1       4.303   7.027  17.256  0.00  0.00    +0.000 C 
BRANCH   2   8
ATOM      3  C   UNL     1       6.392   5.523  17.303  0.00  0.00    +0.000 A 
ATOM      4  C   UNL     1       7.340   4.777  16.588  0.00  0.00    +0.000 A 
ATOM      5  C   UNL     1       7.157   4.486  15.237  0.00  0.00    +0.000 A 
ATOM      6  C   UNL     1       6.012   4.924  14.587  0.00  0.00    +0.000 A 
ATOM      7  C   UNL     1       5.067   5.673  15.284  0.00  0.00    +0.000 A 
ATOM      8  C   UNL     1       5.246   6.003  16.647  0.00  0.00    +0.000 A 
BRANCH   3   9
ATOM      9  O   UNL     1       6.782   5.864  18.571  0.00  0.00    +0.000 OA
BRANCH   9  11
ATOM     10  C   UNL     1       7.907   7.901  17.983  0.00  0.00    +0.000 C 
ATOM     11  C   UNL     1       8.031   6.552  18.675  0.00  0.00    +0.000 C 
ENDBRANCH   9  11
ENDBRANCH   3   9
ENDBRANCH   2   8
ENDBRANCH   1   2
BRANCH   1  12
ATOM     12  C   UNL     1       2.353   7.453  18.670  0.00  0.00    +0.000 C 
BRANCH  12  13
ATOM     13  C   UNL     1       2.347   8.643  17.700  0.00  0.00    +0.000 C 
BRANCH  13  14
ATOM     14  C   UNL     1       1.509   9.870  17.960  0.00  0.00    +0.000 A 
ATOM     15  C   UNL     1       0.141   9.840  18.283  0.00  0.00    +0.000 A 
ATOM     16  C   UNL     1      -0.474  10.941  18.894  0.00  0.00    +0.000 A 
ATOM     17  C   UNL     1       0.322  12.025  19.200  0.00  0.00    +0.000 A 
ATOM     18  C   UNL     1       1.640  12.084  18.819  0.00  0.00    +0.000 A 
ATOM     19  C   UNL     1       2.249  11.051  18.157  0.00  0.00    +0.000 A 
ATOM     20  O   UNL     1       2.276  13.188  19.299  0.00  0.00    +0.000 OA
ATOM     21  C   UNL     1       1.299  13.604  20.271  0.00  0.00    +0.000 C 
ATOM     22  O   UNL     1      -0.020  13.091  19.980  0.00  0.00    +0.000 OA
ENDBRANCH  13  14
ENDBRANCH  12  13
ENDBRANCH   1  12
BRANCH   1  23
ATOM     23  C   UNL     1       2.922   5.169  17.964  0.00  0.00    +0.000 C 
BRANCH  23  24
ATOM     24  C   UNL     1       2.333   4.361  19.105  0.00  0.00    +0.000 A 
ATOM     25  C   UNL     1       1.202   3.572  18.896  0.00  0.00    +0.000 A 
ATOM     26  C   UNL     1       0.671   2.869  19.970  0.00  0.00    +0.000 A 
ATOM     27  C   UNL     1       1.291   2.953  21.209  0.00  0.00    +0.000 A 
ATOM     28  C   UNL     1       2.430   3.733  21.323  0.00  0.00    +0.000 A 
ATOM     29  N   UNL     1       2.962   4.439  20.304  0.00  0.00    +0.000 NA
ENDBRANCH  23  24
ENDBRANCH   1  23
TORSDOF 9
ENDMDL
MODEL 7
REMARK VINA RESULT:      -7.5      1.749      3.148
REMARK  Name = 
REMARK  10 active torsions:
REMARK  status: ('A' for Active; 'I' for Inactive)
REMARK    1  A    between atoms: C_1  and  C_2
REMARK    2  A    between atoms: C_2  and  O_3
REMARK    3  A    between atoms: O_3  and  C_4
REMARK    4  A    between atoms: C_9  and  C_10
REMARK    5  A    between atoms: C_10  and  N_11
REMARK    6  A    between atoms: N_11  and  C_12
REMARK    7  A    between atoms: N_11  and  C_23
REMARK    8  A    between atoms: C_12  and  C_13
REMARK    9  A    between atoms: C_13  and  C_14
REMARK   10  A    between atoms: C_23  and  C_24
REMARK                            x       y       z     vdW  Elec       q    Type
REMARK                         _______ _______ _______ _____ _____    ______ ____
ROOT
ATOM      1  N   UNL     1       3.233   6.472  18.261  0.00  0.00    +0.000 NA
ENDROOT
BRANCH   1   2
ATOM      2  C   UNL     1       4.128   6.714  17.101  0.00  0.00    +0.000 C 
BRANCH   2   8
ATOM      3  C   UNL     1       6.061   5.249  16.238  0.00  0.00    +0.000 A 
ATOM      4  C   UNL     1       7.218   4.509  16.526  0.00  0.00    +0.000 A 
ATOM      5  C   UNL     1       7.839   4.601  17.771  0.00  0.00    +0.000 A 
ATOM      6  C   UNL     1       7.319   5.448  18.740  0.00  0.00    +0.000 A 
ATOM      7  C   UNL     1       6.167   6.181  18.468  0.00  0.00    +0.000 A 
ATOM      8  C   UNL     1       5.505   6.082  17.222  0.00  0.00    +0.000 A 
BRANCH   3   9
ATOM      9  O   UNL     1       5.476   4.937  15.039  0.00  0.00    +0.000 OA
BRANCH   9  11
ATOM     10  C   UNL     1       5.558   3.621  13.034  0.00  0.00    +0.000 C 
ATOM     11  C   UNL     1       6.357   4.457  14.021  0.00  0.00    +0.000 C 
ENDBRANCH   9  11
ENDBRANCH   3   9
ENDBRANCH   2   8
ENDBRANCH   1   2
BRANCH   1  12
ATOM     12  C   UNL     1       2.344   7.635  18.499  0.00  0.00    +0.000 C 
BRANCH  12  13
ATOM     13  C   UNL     1       2.180   7.913  20.000  0.00  0.00    +0.000 C 
BRANCH  13  14
ATOM     14  C   UNL     1       1.020   8.714  20.533  0.00  0.00    +0.000 A 
ATOM     15  C   UNL     1       0.250   8.346  21.651  0.00  0.00    +0.000 A 
ATOM     16  C   UNL     1      -0.528   9.295  22.328  0.00  0.00    +0.000 A 
ATOM     17  C   UNL     1      -0.474  10.598  21.879  0.00  0.00    +0.000 A 
ATOM     18  C   UNL     1       0.217  10.944  20.743  0.00  0.00    +0.000 A 
ATOM     19  C   UNL     1       0.930  10.022  20.022  0.00  0.00    +0.000 A 
ATOM     20  O   UNL     1       0.229  12.287  20.525  0.00  0.00    +0.000 OA
ATOM     21  C   UNL     1      -0.237  12.728  21.813  0.00  0.00    +0.000 C 
ATOM     22  O   UNL     1      -0.971  11.699  22.515  0.00  0.00    +0.000 OA
ENDBRANCH  13  14
ENDBRANCH  12  13
ENDBRANCH   1  12
BRANCH   1  23
ATOM     23  C   UNL     1       2.453   5.227  18.019  0.00  0.00    +0.000 C 
BRANCH  23  24
ATOM     24  C   UNL     1       2.378   4.283  19.204  0.00  0.00    +0.000 A 
ATOM     25  C   UNL     1       1.268   4.300  20.048  0.00  0.00    +0.000 A 
ATOM     26  C   UNL     1       1.245   3.443  21.141  0.00  0.00    +0.000 A 
ATOM     27  C   UNL     1       2.315   2.582  21.349  0.00  0.00    +0.000 A 
ATOM     28  C   UNL     1       3.364   2.605  20.444  0.00  0.00    +0.000 A 
ATOM     29  N   UNL     1       3.422   3.435  19.382  0.00  0.00    +0.000 NA
ENDBRANCH  23  24
ENDBRANCH   1  23
TORSDOF 9
ENDMDL
MODEL 8
REMARK VINA RESULT:      -7.4      1.683      2.508
REMARK  Name = 
REMARK  10 active torsions:
REMARK  status: ('A' for Active; 'I' for Inactive)
REMARK    1  A    between atoms: C_1  and  C_2
REMARK    2  A    between atoms: C_2  and  O_3
REMARK    3  A    between atoms: O_3  and  C_4
REMARK    4  A    between atoms: C_9  and  C_10
REMARK    5  A    between atoms: C_10  and  N_11
REMARK    6  A    between atoms: N_11  and  C_12
REMARK    7  A    between atoms: N_11  and  C_23
REMARK    8  A    between atoms: C_12  and  C_13
REMARK    9  A    between atoms: C_13  and  C_14
REMARK   10  A    between atoms: C_23  and  C_24
REMARK                            x       y       z     vdW  Elec       q    Type
REMARK                         _______ _______ _______ _____ _____    ______ ____
ROOT
ATOM      1  N   UNL     1       3.123   6.699  18.378  0.00  0.00    +0.000 NA
ENDROOT
BRANCH   1   2
ATOM      2  C   UNL     1       3.856   6.969  17.115  0.00  0.00    +0.000 C 
BRANCH   2   8
ATOM      3  C   UNL     1       6.345   6.398  16.792  0.00  0.00    +0.000 A 
ATOM      4  C   UNL     1       7.310   5.518  16.279  0.00  0.00    +0.000 A 
ATOM      5  C   UNL     1       6.956   4.250  15.820  0.00  0.00    +0.000 A 
ATOM      6  C   UNL     1       5.632   3.839  15.884  0.00  0.00    +0.000 A 
ATOM      7  C   UNL     1       4.664   4.707  16.383  0.00  0.00    +0.000 A 
ATOM      8  C   UNL     1       4.996   6.007  16.828  0.00  0.00    +0.000 A 
BRANCH   3   9
ATOM      9  O   UNL     1       6.814   7.658  17.053  0.00  0.00    +0.000 OA
BRANCH   9  11
ATOM     10  C   UNL     1       8.328   9.193  18.106  0.00  0.00    +0.000 C 
ATOM     11  C   UNL     1       7.886   7.742  17.994  0.00  0.00    +0.000 C 
ENDBRANCH   9  11
ENDBRANCH   3   9
ENDBRANCH   2   8
ENDBRANCH   1   2
BRANCH   1  12
ATOM     12  C   UNL     1       2.379   7.901  18.829  0.00  0.00    +0.000 C 
BRANCH  12  13
ATOM     13  C   UNL     1       1.834   7.716  20.253  0.00  0.00    +0.000 C 
BRANCH  13  14
ATOM     14  C   UNL     1       0.876   8.706  20.865  0.00  0.00    +0.000 A 
ATOM     15  C   UNL     1       0.400   8.633  22.187  0.00  0.00    +0.000 A 
ATOM     16  C   UNL     1      -0.147   9.761  22.813  0.00  0.00    +0.000 A 
ATOM     17  C   UNL     1      -0.159  10.942  22.099  0.00  0.00    +0.000 A 
ATOM     18  C   UNL     1       0.236  10.996  20.785  0.00  0.00    +0.000 A 
ATOM     19  C   UNL     1       0.709   9.892  20.126  0.00  0.00    +0.000 A 
ATOM     20  O   UNL     1       0.242  12.264  20.291  0.00  0.00    +0.000 OA
ATOM     21  C   UNL     1       0.133  12.987  21.530  0.00  0.00    +0.000 C 
ATOM     22  O   UNL     1      -0.439  12.185  22.588  0.00  0.00    +0.000 OA
ENDBRANCH  13  14
ENDBRANCH  12  13
ENDBRANCH   1  12
BRANCH   1  23
ATOM     23  C   UNL     1       2.213   5.539  18.172  0.00  0.00    +0.000 C 
BRANCH  23  24
ATOM     24  C   UNL     1       2.248   4.499  19.276  0.00  0.00    +0.000 A 
ATOM     25  C   UNL     1       1.082   4.168  19.966  0.00  0.00    +0.000 A 
ATOM     26  C   UNL     1       1.156   3.234  20.992  0.00  0.00    +0.000 A 
ATOM     27  C   UNL     1       2.378   2.643  21.285  0.00  0.00    +0.000 A 
ATOM     28  C   UNL     1       3.481   3.004  20.529  0.00  0.00    +0.000 A 
ATOM     29  N   UNL     1       3.446   3.918  19.537  0.00  0.00    +0.000 NA
ENDBRANCH  23  24
ENDBRANCH   1  23
TORSDOF 9
ENDMDL
MODEL 9
REMARK VINA RESULT:      -7.4      1.870      2.546
REMARK  Name = 
REMARK  10 active torsions:
REMARK  status: ('A' for Active; 'I' for Inactive)
REMARK    1  A    between atoms: C_1  and  C_2
REMARK    2  A    between atoms: C_2  and  O_3
REMARK    3  A    between atoms: O_3  and  C_4
REMARK    4  A    between atoms: C_9  and  C_10
REMARK    5  A    between atoms: C_10  and  N_11
REMARK    6  A    between atoms: N_11  and  C_12
REMARK    7  A    between atoms: N_11  and  C_23
REMARK    8  A    between atoms: C_12  and  C_13
REMARK    9  A    between atoms: C_13  and  C_14
REMARK   10  A    between atoms: C_23  and  C_24
REMARK                            x       y       z     vdW  Elec       q    Type
REMARK                         _______ _______ _______ _____ _____    ______ ____
ROOT
ATOM      1  N   UNL     1       3.254   6.654  18.105  0.00  0.00    +0.000 NA
ENDROOT
BRANCH   1   2
ATOM      2  C   UNL     1       4.268   7.091  17.112  0.00  0.00    +0.000 C 
BRANCH   2   8
ATOM      3  C   UNL     1       6.246   5.463  17.368  0.00  0.00    +0.000 A 
ATOM      4  C   UNL     1       7.191   4.629  16.752  0.00  0.00    +0.000 A 
ATOM      5  C   UNL     1       7.082   4.290  15.404  0.00  0.00    +0.000 A 
ATOM      6  C   UNL     1       6.015   4.769  14.658  0.00  0.00    +0.000 A 
ATOM      7  C   UNL     1       5.076   5.606  15.256  0.00  0.00    +0.000 A 
ATOM      8  C   UNL     1       5.182   5.984  16.613  0.00  0.00    +0.000 A 
BRANCH   3   9
ATOM      9  O   UNL     1       6.570   5.835  18.646  0.00  0.00    +0.000 OA
BRANCH   9  11
ATOM     10  C   UNL     1       7.996   7.703  18.159  0.00  0.00    +0.000 C 
ATOM     11  C   UNL     1       7.893   6.343  18.831  0.00  0.00    +0.000 C 
ENDBRANCH   9  11
ENDBRANCH   3   9
ENDBRANCH   2   8
ENDBRANCH   1   2
BRANCH   1  12
ATOM     12  C   UNL     1       2.093   7.578  18.121  0.00  0.00    +0.000 C 
BRANCH  12  13
ATOM     13  C   UNL     1       2.256   8.658  19.201  0.00  0.00    +0.000 C 
BRANCH  13  14
ATOM     14  C   UNL     1       1.180   8.920  20.224  0.00  0.00    +0.000 A 
ATOM     15  C   UNL     1       1.264   8.542  21.576  0.00  0.00    +0.000 A 
ATOM     16  C   UNL     1       0.447   9.148  22.540  0.00  0.00    +0.000 A 
ATOM     17  C   UNL     1      -0.404  10.148  22.115  0.00  0.00    +0.000 A 
ATOM     18  C   UNL     1      -0.540  10.465  20.785  0.00  0.00    +0.000 A 
ATOM     19  C   UNL     1       0.196   9.839  19.814  0.00  0.00    +0.000 A 
ATOM     20  O   UNL     1      -1.350  11.539  20.583  0.00  0.00    +0.000 OA
ATOM     21  C   UNL     1      -1.415  12.029  21.934  0.00  0.00    +0.000 C 
ATOM     22  O   UNL     1      -1.113  11.004  22.907  0.00  0.00    +0.000 OA
ENDBRANCH  13  14
ENDBRANCH  12  13
ENDBRANCH   1  12
BRANCH   1  23
ATOM     23  C   UNL     1       2.838   5.260  17.792  0.00  0.00    +0.000 C 
BRANCH  23  24
ATOM     24  C   UNL     1       2.251   4.493  18.962  0.00  0.00    +0.000 A 
ATOM     25  C   UNL     1       2.605   4.827  20.269  0.00  0.00    +0.000 A 
ATOM     26  C   UNL     1       2.073   4.085  21.316  0.00  0.00    +0.000 A 
ATOM     27  C   UNL     1       1.190   3.051  21.033  0.00  0.00    +0.000 A 
ATOM     28  C   UNL     1       0.865   2.806  19.709  0.00  0.00    +0.000 A 
ATOM     29  N   UNL     1       1.376   3.499  18.670  0.00  0.00    +0.000 NA
ENDBRANCH  23  24
ENDBRANCH   1  23
TORSDOF 9
ENDMDL
