MODEL 1
REMARK VINA RESULT:      -8.0      0.000      0.000
REMARK  Name = 
REMARK  8 active torsions:
REMARK  status: ('A' for Active; 'I' for Inactive)
REMARK    1  A    between atoms: C_2  and  C_3
REMARK    2  A    between atoms: C_7  and  N_8
REMARK    3  A    between atoms: N_8  and  C_9
REMARK    4  A    between atoms: C_15  and  O_16
REMARK    5  A    between atoms: O_16  and  C_17
REMARK    6  A    between atoms: C_18  and  O_19
REMARK    7  A    between atoms: O_19  and  C_20
REMARK    8  A    between atoms: C_20  and  C_21
REMARK                            x       y       z     vdW  Elec       q    Type
REMARK                         _______ _______ _______ _____ _____    ______ ____
ROOT
ATOM      1  C   UNL     1       3.040   5.432  18.909  0.00  0.00    +0.000 A 
ATOM      2  N   UNL     1       2.070   4.508  19.060  0.00  0.00    +0.000 NA
ATOM      3  C   UNL     1       2.060   3.493  18.199  0.00  0.00    +0.000 A 
ATOM      4  N   UNL     1       2.908   3.327  17.183  0.00  0.00    +0.000 NA
ATOM      5  C   UNL     1       3.864   4.249  17.046  0.00  0.00    +0.000 A 
ATOM      6  C   UNL     1       4.717   4.126  15.963  0.00  0.00    +0.000 A 
ATOM      7  C   UNL     1       5.753   5.035  15.693  0.00  0.00    +0.000 A 
ATOM      8  C   UNL     1       5.974   6.082  16.598  0.00  0.00    +0.000 A 
ATOM      9  C   UNL     1       5.108   6.226  17.693  0.00  0.00    +0.000 A 
ATOM     10  C   UNL     1       4.028   5.329  17.909  0.00  0.00    +0.000 A 
ENDROOT
BRANCH   1  11
ATOM     11  N   UNL     1       3.026   6.551  19.773  0.00  0.00    +0.000 N 
ATOM     12  H   UNL     1       3.108   6.250  20.736  0.00  0.00    +0.000 HD
BRANCH  11  17
ATOM     13  C   UNL     1       0.657   9.356  20.470  0.00  0.00    +0.000 A 
ATOM     14  C   UNL     1       0.493   9.886  19.192  0.00  0.00    +0.000 A 
ATOM     15  C   UNL     1       1.172   9.319  18.112  0.00  0.00    +0.000 A 
ATOM     16  C   UNL     1       2.020   8.224  18.309  0.00  0.00    +0.000 A 
ATOM     17  C   UNL     1       2.227   7.703  19.591  0.00  0.00    +0.000 A 
ATOM     18  C   UNL     1       1.520   8.274  20.663  0.00  0.00    +0.000 A 
BRANCH  13  20
ATOM     19  C   UNL     1      -0.666  10.348  22.514  0.00  0.00    +0.000 C 
ATOM     20  C   UNL     1      -0.079   9.884  21.579  0.00  0.00    +0.000 C 
ENDBRANCH  13  20
ENDBRANCH  11  17
ENDBRANCH   1  11
BRANCH   7  21
ATOM     21  O   UNL     1       6.583   4.883  14.610  0.00  0.00    +0.000 OA
ATOM     22  C   UNL     1       6.205   3.877  13.665  0.00  0.00    +0.000 C 
ENDBRANCH   7  21
BRANCH   8  23
ATOM     23  O   UNL     1       7.018   6.972  16.602  0.00  0.00    +0.000 OA
BRANCH  23  24
ATOM     24  C   UNL     1       7.653   7.226  17.858  0.00  0.00    +0.000 C 
BRANCH  24  25
ATOM     25  C   UNL     1       8.107   8.685  17.905  0.00  0.00    +0.000 C 
ATOM     26  F   UNL     1       8.895   8.889  18.996  0.00  0.00    +0.000 F 
ENDBRANCH  24  25
ENDBRANCH  23  24
ENDBRANCH   8  23
TORSDOF 7
ENDMDL
MODEL 2
REMARK VINA RESULT:      -7.7      1.314      1.462
REMARK  Name = 
REMARK  8 active torsions:
REMARK  status: ('A' for Active; 'I' for Inactive)
REMARK    1  A    between atoms: C_2  and  C_3
REMARK    2  A    between atoms: C_7  and  N_8
REMARK    3  A    between atoms: N_8  and  C_9
REMARK    4  A    between atoms: C_15  and  O_16
REMARK    5  A    between atoms: O_16  and  C_17
REMARK    6  A    between atoms: C_18  and  O_19
REMARK    7  A    between atoms: O_19  and  C_20
REMARK    8  A    between atoms: C_20  and  C_21
REMARK                            x       y       z     vdW  Elec       q    Type
REMARK                         _______ _______ _______ _____ _____    ______ ____
ROOT
ATOM      1  C   UNL     1       2.283   5.216  19.829  0.00  0.00    +0.000 A 
ATOM      2  N   UNL     1       1.149   4.526  20.065  0.00  0.00    +0.000 NA
ATOM      3  C   UNL     1       0.923   3.454  19.308  0.00  0.00    +0.000 A 
ATOM      4  N   UNL     1       1.706   3.023  18.318  0.00  0.00    +0.000 NA
ATOM      5  C   UNL     1       2.826   3.715  18.097  0.00  0.00    +0.000 A 
ATOM      6  C   UNL     1       3.621   3.318  17.036  0.00  0.00    +0.000 A 
ATOM      7  C   UNL     1       4.815   3.969  16.684  0.00  0.00    +0.000 A 
ATOM      8  C   UNL     1       5.254   5.033  17.483  0.00  0.00    +0.000 A 
ATOM      9  C   UNL     1       4.451   5.455  18.554  0.00  0.00    +0.000 A 
ATOM     10  C   UNL     1       3.216   4.820  18.850  0.00  0.00    +0.000 A 
ENDROOT
BRANCH   1  11
ATOM     11  N   UNL     1       2.506   6.394  20.579  0.00  0.00    +0.000 N 
ATOM     12  H   UNL     1       2.612   6.169  21.560  0.00  0.00    +0.000 HD
BRANCH  11  17
ATOM     13  C   UNL     1       0.451   9.476  21.071  0.00  0.00    +0.000 A 
ATOM     14  C   UNL     1       0.490  10.026  19.792  0.00  0.00    +0.000 A 
ATOM     15  C   UNL     1       1.200   9.379  18.779  0.00  0.00    +0.000 A 
ATOM     16  C   UNL     1       1.877   8.185  19.045  0.00  0.00    +0.000 A 
ATOM     17  C   UNL     1       1.882   7.639  20.334  0.00  0.00    +0.000 A 
ATOM     18  C   UNL     1       1.145   8.293  21.335  0.00  0.00    +0.000 A 
BRANCH  13  20
ATOM     19  C   UNL     1      -0.996  10.617  22.947  0.00  0.00    +0.000 C 
ATOM     20  C   UNL     1      -0.323  10.092  22.106  0.00  0.00    +0.000 C 
ENDBRANCH  13  20
ENDBRANCH  11  17
ENDBRANCH   1  11
BRANCH   7  21
ATOM     21  O   UNL     1       5.582   3.548  15.626  0.00  0.00    +0.000 OA
ATOM     22  C   UNL     1       5.530   4.359  14.450  0.00  0.00    +0.000 C 
ENDBRANCH   7  21
BRANCH   8  23
ATOM     23  O   UNL     1       6.457   5.691  17.405  0.00  0.00    +0.000 OA
BRANCH  23  24
ATOM     24  C   UNL     1       7.581   5.071  18.036  0.00  0.00    +0.000 C 
BRANCH  24  25
ATOM     25  C   UNL     1       7.983   5.891  19.262  0.00  0.00    +0.000 C 
ATOM     26  F   UNL     1       8.538   7.070  18.867  0.00  0.00    +0.000 F 
ENDBRANCH  24  25
ENDBRANCH  23  24
ENDBRANCH   8  23
TORSDOF 7
ENDMDL
MODEL 3
REMARK VINA RESULT:      -7.5      0.855      1.007
REMARK  Name = 
REMARK  8 active torsions:
REMARK  status: ('A' for Active; 'I' for Inactive)
REMARK    1  A    between atoms: C_2  and  C_3
REMARK    2  A    between atoms: C_7  and  N_8
REMARK    3  A    between atoms: N_8  and  C_9
REMARK    4  A    between atoms: C_15  and  O_16
REMARK    5  A    between atoms: O_16  and  C_17
REMARK    6  A    between atoms: C_18  and  O_19
REMARK    7  A    between atoms: O_19  and  C_20
REMARK    8  A    between atoms: C_20  and  C_21
REMARK                            x       y       z     vdW  Elec       q    Type
REMARK                         _______ _______ _______ _____ _____    ______ ____
ROOT
ATOM      1  C   UNL     1       2.867   5.389  19.010  0.00  0.00    +0.000 A 
ATOM      2  N   UNL     1       1.851   4.505  19.078  0.00  0.00    +0.000 NA
ATOM      3  C   UNL     1       1.818   3.548  18.154  0.00  0.00    +0.000 A 
ATOM      4  N   UNL     1       2.684   3.405  17.151  0.00  0.00    +0.000 NA
ATOM      5  C   UNL     1       3.686   4.287  17.096  0.00  0.00    +0.000 A 
ATOM      6  C   UNL     1       4.561   4.192  16.028  0.00  0.00    +0.000 A 
ATOM      7  C   UNL     1       5.645   5.065  15.842  0.00  0.00    +0.000 A 
ATOM      8  C   UNL     1       5.889   6.041  16.817  0.00  0.00    +0.000 A 
ATOM      9  C   UNL     1       5.002   6.158  17.898  0.00  0.00    +0.000 A 
ATOM     10  C   UNL     1       3.876   5.302  18.030  0.00  0.00    +0.000 A 
ENDROOT
BRANCH   1  11
ATOM     11  N   UNL     1       2.881   6.451  19.944  0.00  0.00    +0.000 N 
ATOM     12  H   UNL     1       2.942   6.087  20.886  0.00  0.00    +0.000 HD
BRANCH  11  17
ATOM     13  C   UNL     1       0.604   9.288  20.796  0.00  0.00    +0.000 A 
ATOM     14  C   UNL     1       0.470   9.902  19.553  0.00  0.00    +0.000 A 
ATOM     15  C   UNL     1       1.139   9.379  18.445  0.00  0.00    +0.000 A 
ATOM     16  C   UNL     1       1.947   8.245  18.580  0.00  0.00    +0.000 A 
ATOM     17  C   UNL     1       2.124   7.639  19.828  0.00  0.00    +0.000 A 
ATOM     18  C   UNL     1       1.427   8.167  20.928  0.00  0.00    +0.000 A 
BRANCH  13  20
ATOM     19  C   UNL     1      -0.760  10.184  22.858  0.00  0.00    +0.000 C 
ATOM     20  C   UNL     1      -0.123   9.772  21.931  0.00  0.00    +0.000 C 
ENDBRANCH  13  20
ENDBRANCH  11  17
ENDBRANCH   1  11
BRANCH   7  21
ATOM     21  O   UNL     1       6.496   4.942  14.772  0.00  0.00    +0.000 OA
ATOM     22  C   UNL     1       6.175   3.915  13.829  0.00  0.00    +0.000 C 
ENDBRANCH   7  21
BRANCH   8  23
ATOM     23  O   UNL     1       6.973   6.879  16.903  0.00  0.00    +0.000 OA
BRANCH  23  24
ATOM     24  C   UNL     1       7.666   6.921  18.154  0.00  0.00    +0.000 C 
BRANCH  24  25
ATOM     25  C   UNL     1       7.906   5.493  18.642  0.00  0.00    +0.000 C 
ATOM     26  F   UNL     1       8.239   5.505  19.962  0.00  0.00    +0.000 F 
ENDBRANCH  24  25
ENDBRANCH  23  24
ENDBRANCH   8  23
TORSDOF 7
ENDMDL
MODEL 4
REMARK VINA RESULT:      -7.1      2.979      6.606
REMARK  Name = 
REMARK  8 active torsions:
REMARK  status: ('A' for Active; 'I' for Inactive)
REMARK    1  A    between atoms: C_2  and  C_3
REMARK    2  A    between atoms: C_7  and  N_8
REMARK    3  A    between atoms: N_8  and  C_9
REMARK    4  A    between atoms: C_15  and  O_16
REMARK    5  A    between atoms: O_16  and  C_17
REMARK    6  A    between atoms: C_18  and  O_19
REMARK    7  A    between atoms: O_19  and  C_20
REMARK    8  A    between atoms: C_20  and  C_21
REMARK                            x       y       z     vdW  Elec       q    Type
REMARK                         _______ _______ _______ _____ _____    ______ ____
ROOT
ATOM      1  C   UNL     1       2.602   3.784  18.105  0.00  0.00    +0.000 A 
ATOM      2  N   UNL     1       2.322   2.577  18.637  0.00  0.00    +0.000 NA
ATOM      3  C   UNL     1       1.763   2.562  19.845  0.00  0.00    +0.000 A 
ATOM      4  N   UNL     1       1.483   3.635  20.586  0.00  0.00    +0.000 NA
ATOM      5  C   UNL     1       1.765   4.823  20.046  0.00  0.00    +0.000 A 
ATOM      6  C   UNL     1       1.536   5.946  20.823  0.00  0.00    +0.000 A 
ATOM      7  C   UNL     1       1.805   7.253  20.383  0.00  0.00    +0.000 A 
ATOM      8  C   UNL     1       2.266   7.433  19.072  0.00  0.00    +0.000 A 
ATOM      9  C   UNL     1       2.515   6.303  18.278  0.00  0.00    +0.000 A 
ATOM     10  C   UNL     1       2.295   4.989  18.769  0.00  0.00    +0.000 A 
ENDROOT
BRANCH   1  11
ATOM     11  N   UNL     1       3.256   3.817  16.852  0.00  0.00    +0.000 N 
ATOM     12  H   UNL     1       2.890   3.091  16.247  0.00  0.00    +0.000 HD
BRANCH  11  17
ATOM     13  C   UNL     1       6.772   4.884  17.528  0.00  0.00    +0.000 A 
ATOM     14  C   UNL     1       7.321   4.809  16.250  0.00  0.00    +0.000 A 
ATOM     15  C   UNL     1       6.528   4.398  15.177  0.00  0.00    +0.000 A 
ATOM     16  C   UNL     1       5.187   4.058  15.381  0.00  0.00    +0.000 A 
ATOM     17  C   UNL     1       4.630   4.090  16.664  0.00  0.00    +0.000 A 
ATOM     18  C   UNL     1       5.437   4.525  17.728  0.00  0.00    +0.000 A 
BRANCH  13  20
ATOM     19  C   UNL     1       8.180   5.748  19.574  0.00  0.00    +0.000 C 
ATOM     20  C   UNL     1       7.552   5.363  18.629  0.00  0.00    +0.000 C 
ENDBRANCH  13  20
ENDBRANCH  11  17
ENDBRANCH   1  11
BRANCH   7  21
ATOM     21  O   UNL     1       1.565   8.346  21.179  0.00  0.00    +0.000 OA
ATOM     22  C   UNL     1       0.198   8.579  21.531  0.00  0.00    +0.000 C 
ENDBRANCH   7  21
BRANCH   8  23
ATOM     23  O   UNL     1       2.435   8.621  18.406  0.00  0.00    +0.000 OA
BRANCH  23  24
ATOM     24  C   UNL     1       1.283   9.179  17.767  0.00  0.00    +0.000 C 
BRANCH  24  25
ATOM     25  C   UNL     1       0.854  10.439  18.519  0.00  0.00    +0.000 C 
ATOM     26  F   UNL     1      -0.413  10.784  18.158  0.00  0.00    +0.000 F 
ENDBRANCH  24  25
ENDBRANCH  23  24
ENDBRANCH   8  23
TORSDOF 7
ENDMDL
MODEL 5
REMARK VINA RESULT:      -7.1      2.839      6.953
REMARK  Name = 
REMARK  8 active torsions:
REMARK  status: ('A' for Active; 'I' for Inactive)
REMARK    1  A    between atoms: C_2  and  C_3
REMARK    2  A    between atoms: C_7  and  N_8
REMARK    3  A    between atoms: N_8  and  C_9
REMARK    4  A    between atoms: C_15  and  O_16
REMARK    5  A    between atoms: O_16  and  C_17
REMARK    6  A    between atoms: C_18  and  O_19
REMARK    7  A    between atoms: O_19  and  C_20
REMARK    8  A    between atoms: C_20  and  C_21
REMARK                            x       y       z     vdW  Elec       q    Type
REMARK                         _______ _______ _______ _____ _____    ______ ____
ROOT
ATOM      1  C   UNL     1       2.584   3.784  18.282  0.00  0.00    +0.000 A 
ATOM      2  N   UNL     1       2.279   2.589  18.829  0.00  0.00    +0.000 NA
ATOM      3  C   UNL     1       1.691   2.602  20.022  0.00  0.00    +0.000 A 
ATOM      4  N   UNL     1       1.403   3.690  20.736  0.00  0.00    +0.000 NA
ATOM      5  C   UNL     1       1.709   4.866  20.182  0.00  0.00    +0.000 A 
ATOM      6  C   UNL     1       1.473   6.005  20.933  0.00  0.00    +0.000 A 
ATOM      7  C   UNL     1       1.764   7.301  20.476  0.00  0.00    +0.000 A 
ATOM      8  C   UNL     1       2.259   7.453  19.174  0.00  0.00    +0.000 A 
ATOM      9  C   UNL     1       2.517   6.306  18.407  0.00  0.00    +0.000 A 
ATOM     10  C   UNL     1       2.272   5.003  18.916  0.00  0.00    +0.000 A 
ENDROOT
BRANCH   1  11
ATOM     11  N   UNL     1       3.269   3.788  17.045  0.00  0.00    +0.000 N 
ATOM     12  H   UNL     1       2.988   2.991  16.487  0.00  0.00    +0.000 HD
BRANCH  11  17
ATOM     13  C   UNL     1       6.510   4.659  15.403  0.00  0.00    +0.000 A 
ATOM     14  C   UNL     1       7.348   4.760  16.511  0.00  0.00    +0.000 A 
ATOM     15  C   UNL     1       6.835   4.546  17.792  0.00  0.00    +0.000 A 
ATOM     16  C   UNL     1       5.482   4.238  17.967  0.00  0.00    +0.000 A 
ATOM     17  C   UNL     1       4.617   4.172  16.869  0.00  0.00    +0.000 A 
ATOM     18  C   UNL     1       5.156   4.370  15.586  0.00  0.00    +0.000 A 
BRANCH  13  20
ATOM     19  C   UNL     1       7.438   4.960  12.961  0.00  0.00    +0.000 C 
ATOM     20  C   UNL     1       7.031   4.813  14.078  0.00  0.00    +0.000 C 
ENDBRANCH  13  20
ENDBRANCH  11  17
ENDBRANCH   1  11
BRANCH   7  21
ATOM     21  O   UNL     1       1.515   8.410  21.246  0.00  0.00    +0.000 OA
ATOM     22  C   UNL     1       0.143   8.657  21.568  0.00  0.00    +0.000 C 
ENDBRANCH   7  21
BRANCH   8  23
ATOM     23  O   UNL     1       2.456   8.627  18.491  0.00  0.00    +0.000 OA
BRANCH  23  24
ATOM     24  C   UNL     1       1.396   9.070  17.639  0.00  0.00    +0.000 C 
BRANCH  24  25
ATOM     25  C   UNL     1       0.614  10.177  18.345  0.00  0.00    +0.000 C 
ATOM     26  F   UNL     1       1.425  10.829  19.223  0.00  0.00    +0.000 F 
ENDBRANCH  24  25
ENDBRANCH  23  24
ENDBRANCH   8  23
TORSDOF 7
ENDMDL
MODEL 6
REMARK VINA RESULT:      -7.1      3.167      5.061
REMARK  Name = 
REMARK  8 active torsions:
REMARK  status: ('A' for Active; 'I' for Inactive)
REMARK    1  A    between atoms: C_2  and  C_3
REMARK    2  A    between atoms: C_7  and  N_8
REMARK    3  A    between atoms: N_8  and  C_9
REMARK    4  A    between atoms: C_15  and  O_16
REMARK    5  A    between atoms: O_16  and  C_17
REMARK    6  A    between atoms: C_18  and  O_19
REMARK    7  A    between atoms: O_19  and  C_20
REMARK    8  A    between atoms: C_20  and  C_21
REMARK                            x       y       z     vdW  Elec       q    Type
REMARK                         _______ _______ _______ _____ _____    ______ ____
ROOT
ATOM      1  C   UNL     1       5.638   4.162  18.221  0.00  0.00    +0.000 A 
ATOM      2  N   UNL     1       6.293   4.696  19.272  0.00  0.00    +0.000 NA
ATOM      3  C   UNL     1       7.304   5.518  19.001  0.00  0.00    +0.000 A 
ATOM      4  N   UNL     1       7.742   5.837  17.783  0.00  0.00    +0.000 NA
ATOM      5  C   UNL     1       7.083   5.302  16.752  0.00  0.00    +0.000 A 
ATOM      6  C   UNL     1       7.560   5.573  15.482  0.00  0.00    +0.000 A 
ATOM      7  C   UNL     1       6.972   5.061  14.314  0.00  0.00    +0.000 A 
ATOM      8  C   UNL     1       5.808   4.289  14.437  0.00  0.00    +0.000 A 
ATOM      9  C   UNL     1       5.322   3.995  15.720  0.00  0.00    +0.000 A 
ATOM     10  C   UNL     1       5.973   4.473  16.888  0.00  0.00    +0.000 A 
ENDROOT
BRANCH   1  11
ATOM     11  N   UNL     1       4.604   3.235  18.490  0.00  0.00    +0.000 N 
ATOM     12  H   UNL     1       4.543   2.554  17.744  0.00  0.00    +0.000 HD
BRANCH  11  17
ATOM     13  C   UNL     1       1.885   5.175  20.165  0.00  0.00    +0.000 A 
ATOM     14  C   UNL     1       0.965   4.163  20.432  0.00  0.00    +0.000 A 
ATOM     15  C   UNL     1       1.246   2.850  20.049  0.00  0.00    +0.000 A 
ATOM     16  C   UNL     1       2.445   2.548  19.395  0.00  0.00    +0.000 A 
ATOM     17  C   UNL     1       3.363   3.558  19.084  0.00  0.00    +0.000 A 
ATOM     18  C   UNL     1       3.072   4.870  19.495  0.00  0.00    +0.000 A 
BRANCH  13  20
ATOM     19  C   UNL     1       1.474   7.646  20.965  0.00  0.00    +0.000 C 
ATOM     20  C   UNL     1       1.642   6.515  20.606  0.00  0.00    +0.000 C 
ENDBRANCH  13  20
ENDBRANCH  11  17
ENDBRANCH   1  11
BRANCH   7  21
ATOM     21  O   UNL     1       7.469   5.351  13.067  0.00  0.00    +0.000 OA
ATOM     22  C   UNL     1       8.817   5.827  13.024  0.00  0.00    +0.000 C 
ENDBRANCH   7  21
BRANCH   8  23
ATOM     23  O   UNL     1       5.001   3.833  13.425  0.00  0.00    +0.000 OA
BRANCH  23  24
ATOM     24  C   UNL     1       5.624   3.063  12.392  0.00  0.00    +0.000 C 
BRANCH  24  25
ATOM     25  C   UNL     1       4.630   2.860  11.250  0.00  0.00    +0.000 C 
ATOM     26  F   UNL     1       3.714   3.867  11.249  0.00  0.00    +0.000 F 
ENDBRANCH  24  25
ENDBRANCH  23  24
ENDBRANCH   8  23
TORSDOF 7
ENDMDL
MODEL 7
REMARK VINA RESULT:      -7.0      0.796      1.586
REMARK  Name = 
REMARK  8 active torsions:
REMARK  status: ('A' for Active; 'I' for Inactive)
REMARK    1  A    between atoms: C_2  and  C_3
REMARK    2  A    between atoms: C_7  and  N_8
REMARK    3  A    between atoms: N_8  and  C_9
REMARK    4  A    between atoms: C_15  and  O_16
REMARK    5  A    between atoms: O_16  and  C_17
REMARK    6  A    between atoms: C_18  and  O_19
REMARK    7  A    between atoms: O_19  and  C_20
REMARK    8  A    between atoms: C_20  and  C_21
REMARK                            x       y       z     vdW  Elec       q    Type
REMARK                         _______ _______ _______ _____ _____    ______ ____
ROOT
ATOM      1  C   UNL     1       2.898   5.965  18.924  0.00  0.00    +0.000 A 
ATOM      2  N   UNL     1       1.864   5.126  19.135  0.00  0.00    +0.000 NA
ATOM      3  C   UNL     1       1.817   4.023  18.393  0.00  0.00    +0.000 A 
ATOM      4  N   UNL     1       2.688   3.690  17.439  0.00  0.00    +0.000 NA
ATOM      5  C   UNL     1       3.708   4.529  17.242  0.00  0.00    +0.000 A 
ATOM      6  C   UNL     1       4.589   4.231  16.217  0.00  0.00    +0.000 A 
ATOM      7  C   UNL     1       5.692   5.037  15.893  0.00  0.00    +0.000 A 
ATOM      8  C   UNL     1       5.950   6.164  16.685  0.00  0.00    +0.000 A 
ATOM      9  C   UNL     1       5.057   6.486  17.719  0.00  0.00    +0.000 A 
ATOM     10  C   UNL     1       3.912   5.688  17.986  0.00  0.00    +0.000 A 
ENDROOT
BRANCH   1  11
ATOM     11  N   UNL     1       2.928   7.174  19.657  0.00  0.00    +0.000 N 
ATOM     12  H   UNL     1       3.648   7.134  20.368  0.00  0.00    +0.000 HD
BRANCH  11  17
ATOM     13  C   UNL     1       0.303   9.833  19.692  0.00  0.00    +0.000 A 
ATOM     14  C   UNL     1      -0.374   9.521  20.869  0.00  0.00    +0.000 A 
ATOM     15  C   UNL     1       0.037   8.430  21.638  0.00  0.00    +0.000 A 
ATOM     16  C   UNL     1       1.121   7.647  21.228  0.00  0.00    +0.000 A 
ATOM     17  C   UNL     1       1.787   7.922  20.028  0.00  0.00    +0.000 A 
ATOM     18  C   UNL     1       1.373   9.036  19.278  0.00  0.00    +0.000 A 
BRANCH  13  20
ATOM     19  C   UNL     1      -0.405  11.945  18.294  0.00  0.00    +0.000 C 
ATOM     20  C   UNL     1      -0.064  10.984  18.924  0.00  0.00    +0.000 C 
ENDBRANCH  13  20
ENDBRANCH  11  17
ENDBRANCH   1  11
BRANCH   7  21
ATOM     21  O   UNL     1       6.548   4.711  14.870  0.00  0.00    +0.000 OA
ATOM     22  C   UNL     1       5.997   3.914  13.818  0.00  0.00    +0.000 C 
ENDBRANCH   7  21
BRANCH   8  23
ATOM     23  O   UNL     1       7.050   6.983  16.634  0.00  0.00    +0.000 OA
BRANCH  23  24
ATOM     24  C   UNL     1       7.710   7.264  17.872  0.00  0.00    +0.000 C 
BRANCH  24  25
ATOM     25  C   UNL     1       8.105   8.740  17.905  0.00  0.00    +0.000 C 
ATOM     26  F   UNL     1       8.911   8.980  18.975  0.00  0.00    +0.000 F 
ENDBRANCH  24  25
ENDBRANCH  23  24
ENDBRANCH   8  23
TORSDOF 7
ENDMDL
MODEL 8
REMARK VINA RESULT:      -7.0      3.913      7.963
REMARK  Name = 
REMARK  8 active torsions:
REMARK  status: ('A' for Active; 'I' for Inactive)
REMARK    1  A    between atoms: C_2  and  C_3
REMARK    2  A    between atoms: C_7  and  N_8
REMARK    3  A    between atoms: N_8  and  C_9
REMARK    4  A    between atoms: C_15  and  O_16
REMARK    5  A    between atoms: O_16  and  C_17
REMARK    6  A    between atoms: C_18  and  O_19
REMARK    7  A    between atoms: O_19  and  C_20
REMARK    8  A    between atoms: C_20  and  C_21
REMARK                            x       y       z     vdW  Elec       q    Type
REMARK                         _______ _______ _______ _____ _____    ______ ____
ROOT
ATOM      1  C   UNL     1       6.400   4.349  16.575  0.00  0.00    +0.000 A 
ATOM      2  N   UNL     1       7.539   5.015  16.853  0.00  0.00    +0.000 NA
ATOM      3  C   UNL     1       7.490   5.917  17.830  0.00  0.00    +0.000 A 
ATOM      4  N   UNL     1       6.406   6.240  18.537  0.00  0.00    +0.000 NA
ATOM      5  C   UNL     1       5.286   5.572  18.251  0.00  0.00    +0.000 A 
ATOM      6  C   UNL     1       4.137   5.933  18.933  0.00  0.00    +0.000 A 
ATOM      7  C   UNL     1       2.890   5.323  18.717  0.00  0.00    +0.000 A 
ATOM      8  C   UNL     1       2.819   4.255  17.813  0.00  0.00    +0.000 A 
ATOM      9  C   UNL     1       3.973   3.886  17.105  0.00  0.00    +0.000 A 
ATOM     10  C   UNL     1       5.208   4.562  17.296  0.00  0.00    +0.000 A 
ENDROOT
BRANCH   1  11
ATOM     11  N   UNL     1       6.417   3.434  15.496  0.00  0.00    +0.000 N 
ATOM     12  H   UNL     1       7.045   2.666  15.699  0.00  0.00    +0.000 HD
BRANCH  11  17
ATOM     13  C   UNL     1       5.250   3.716  11.958  0.00  0.00    +0.000 A 
ATOM     14  C   UNL     1       6.341   4.350  11.369  0.00  0.00    +0.000 A 
ATOM     15  C   UNL     1       7.451   4.688  12.147  0.00  0.00    +0.000 A 
ATOM     16  C   UNL     1       7.468   4.396  13.515  0.00  0.00    +0.000 A 
ATOM     17  C   UNL     1       6.365   3.794  14.130  0.00  0.00    +0.000 A 
ATOM     18  C   UNL     1       5.265   3.444  13.328  0.00  0.00    +0.000 A 
BRANCH  13  20
ATOM     19  C   UNL     1       3.172   2.986  10.521  0.00  0.00    +0.000 C 
ATOM     20  C   UNL     1       4.130   3.306  11.165  0.00  0.00    +0.000 C 
ENDBRANCH  13  20
ENDBRANCH  11  17
ENDBRANCH   1  11
BRANCH   7  21
ATOM     21  O   UNL     1       1.770   5.706  19.412  0.00  0.00    +0.000 OA
ATOM     22  C   UNL     1       1.868   5.659  20.838  0.00  0.00    +0.000 C 
ENDBRANCH   7  21
BRANCH   8  23
ATOM     23  O   UNL     1       1.745   3.433  17.580  0.00  0.00    +0.000 OA
BRANCH  23  24
ATOM     24  C   UNL     1       1.855   2.077  18.022  0.00  0.00    +0.000 C 
BRANCH  24  25
ATOM     25  C   UNL     1       1.237   1.952  19.415  0.00  0.00    +0.000 C 
ATOM     26  F   UNL     1       0.372   2.981  19.630  0.00  0.00    +0.000 F 
ENDBRANCH  24  25
ENDBRANCH  23  24
ENDBRANCH   8  23
TORSDOF 7
ENDMDL
MODEL 9
REMARK VINA RESULT:      -7.0      3.107      6.844
REMARK  Name = 
REMARK  8 active torsions:
REMARK  status: ('A' for Active; 'I' for Inactive)
REMARK    1  A    between atoms: C_2  and  C_3
REMARK    2  A    between atoms: C_7  and  N_8
REMARK    3  A    between atoms: N_8  and  C_9
REMARK    4  A    between atoms: C_15  and  O_16
REMARK    5  A    between atoms: O_16  and  C_17
REMARK    6  A    between atoms: C_18  and  O_19
REMARK    7  A    between atoms: O_19  and  C_20
REMARK    8  A    between atoms: C_20  and  C_21
REMARK                            x       y       z     vdW  Elec       q    Type
REMARK                         _______ _______ _______ _____ _____    ______ ____
ROOT
ATOM      1  C   UNL     1       2.818   4.747  18.499  0.00  0.00    +0.000 A 
ATOM      2  N   UNL     1       2.839   3.553  19.125  0.00  0.00    +0.000 NA
ATOM      3  C   UNL     1       2.391   3.518  20.378  0.00  0.00    +0.000 A 
ATOM      4  N   UNL     1       1.953   4.566  21.077  0.00  0.00    +0.000 NA
ATOM      5  C   UNL     1       1.937   5.741  20.444  0.00  0.00    +0.000 A 
ATOM      6  C   UNL     1       1.541   6.851  21.171  0.00  0.00    +0.000 A 
ATOM      7  C   UNL     1       1.496   8.147  20.631  0.00  0.00    +0.000 A 
ATOM      8  C   UNL     1       1.805   8.316  19.275  0.00  0.00    +0.000 A 
ATOM      9  C   UNL     1       2.222   7.202  18.530  0.00  0.00    +0.000 A 
ATOM     10  C   UNL     1       2.320   5.912  19.116  0.00  0.00    +0.000 A 
ENDROOT
BRANCH   1  11
ATOM     11  N   UNL     1       3.351   4.815  17.191  0.00  0.00    +0.000 N 
ATOM     12  H   UNL     1       2.859   4.175  16.580  0.00  0.00    +0.000 HD
BRANCH  11  17
ATOM     13  C   UNL     1       6.785   6.277  17.001  0.00  0.00    +0.000 A 
ATOM     14  C   UNL     1       7.401   5.389  16.123  0.00  0.00    +0.000 A 
ATOM     15  C   UNL     1       6.681   4.310  15.607  0.00  0.00    +0.000 A 
ATOM     16  C   UNL     1       5.345   4.115  15.973  0.00  0.00    +0.000 A 
ATOM     17  C   UNL     1       4.721   4.974  16.884  0.00  0.00    +0.000 A 
ATOM     18  C   UNL     1       5.455   6.066  17.377  0.00  0.00    +0.000 A 
BRANCH  13  20
ATOM     19  C   UNL     1       8.105   8.372  17.884  0.00  0.00    +0.000 C 
ATOM     20  C   UNL     1       7.487   7.424  17.491  0.00  0.00    +0.000 C 
ENDBRANCH  13  20
ENDBRANCH  11  17
ENDBRANCH   1  11
BRANCH   7  21
ATOM     21  O   UNL     1       1.096   9.227  21.380  0.00  0.00    +0.000 OA
ATOM     22  C   UNL     1      -0.158   9.094  22.054  0.00  0.00    +0.000 C 
ENDBRANCH   7  21
BRANCH   8  23
ATOM     23  O   UNL     1       1.671   9.459  18.527  0.00  0.00    +0.000 OA
BRANCH  23  24
ATOM     24  C   UNL     1       0.358   9.777  18.055  0.00  0.00    +0.000 C 
BRANCH  24  25
ATOM     25  C   UNL     1      -0.122  11.059  18.733  0.00  0.00    +0.000 C 
ATOM     26  F   UNL     1      -0.983  11.722  17.913  0.00  0.00    +0.000 F 
ENDBRANCH  24  25
ENDBRANCH  23  24
ENDBRANCH   8  23
TORSDOF 7
ENDMDL
