MODEL 1
REMARK VINA RESULT:      -7.6      0.000      0.000
REMARK  Name = 
REMARK  4 active torsions:
REMARK  status: ('A' for Active; 'I' for Inactive)
REMARK    1  A    between atoms: C_2  and  C_5
REMARK    2  A    between atoms: N_3  and  O_4
REMARK    3  A    between atoms: C_8  and  C_9
REMARK    4  A    between atoms: C_9  and  N_10
REMARK                            x       y       z     vdW  Elec       q    Type
REMARK                         _______ _______ _______ _____ _____    ______ ____
ROOT
ATOM      1  N   UNL     1       3.609   5.250  18.740  0.00  0.00    +0.000 N 
ATOM      2  C   UNL     1       2.584   4.290  18.916  0.00  0.00    +0.000 A 
ATOM      3  C   UNL     1       1.642   4.349  19.959  0.00  0.00    +0.000 A 
ATOM      4  C   UNL     1       0.630   3.397  20.099  0.00  0.00    +0.000 A 
ATOM      5  C   UNL     1       0.580   2.362  19.196  0.00  0.00    +0.000 A 
ATOM      6  N   UNL     1       1.460   2.231  18.192  0.00  0.00    +0.000 NA
ATOM      7  C   UNL     1       2.434   3.179  18.063  0.00  0.00    +0.000 A 
ATOM      8  S   UNL     1       3.500   2.859  16.684  0.00  0.00    +0.000 S 
ATOM      9  C   UNL     1       4.641   4.208  16.760  0.00  0.00    +0.000 A 
ATOM     10  C   UNL     1       5.620   4.255  15.753  0.00  0.00    +0.000 A 
ATOM     11  C   UNL     1       6.566   5.270  15.741  0.00  0.00    +0.000 A 
ATOM     12  C   UNL     1       6.511   6.196  16.754  0.00  0.00    +0.000 A 
ATOM     13  N   UNL     1       5.582   6.178  17.733  0.00  0.00    +0.000 NA
ATOM     14  C   UNL     1       4.621   5.212  17.739  0.00  0.00    +0.000 A 
ENDROOT
BRANCH   1  15
ATOM     15  C   UNL     1       3.687   6.443  19.609  0.00  0.00    +0.000 C 
BRANCH  15  19
ATOM     16  C   UNL     1       0.741   9.541  18.836  0.00  0.00    +0.000 A 
ATOM     17  C   UNL     1       0.881   9.017  20.122  0.00  0.00    +0.000 A 
ATOM     18  C   UNL     1       1.792   7.982  20.365  0.00  0.00    +0.000 A 
ATOM     19  C   UNL     1       2.599   7.476  19.335  0.00  0.00    +0.000 A 
ATOM     20  C   UNL     1       2.426   8.000  18.042  0.00  0.00    +0.000 A 
ATOM     21  C   UNL     1       1.506   9.021  17.788  0.00  0.00    +0.000 A 
BRANCH  16  23
ATOM     22  O   UNL     1      -1.362  10.630  18.868  0.00  0.00    +0.000 OA
ATOM     23  C   UNL     1      -0.161  10.702  18.625  0.00  0.00    +0.000 C 
ATOM     24  N   UNL     1       0.423  11.844  18.128  0.00  0.00    +0.000 N 
ATOM     25  H   UNL     1       1.280  11.817  17.586  0.00  0.00    +0.000 HD
BRANCH  24  26
ATOM     26  O   UNL     1      -0.471  12.900  17.835  0.00  0.00    +0.000 OA
ATOM     27  H   UNL     1      -0.460  13.417  18.672  0.00  0.00    +0.000 HD
ENDBRANCH  24  26
ENDBRANCH  16  23
ENDBRANCH  15  19
ENDBRANCH   1  15
TORSDOF 4
ENDMDL
MODEL 2
REMARK VINA RESULT:      -7.6      0.404      1.045
REMARK  Name = 
REMARK  4 active torsions:
REMARK  status: ('A' for Active; 'I' for Inactive)
REMARK    1  A    between atoms: C_2  and  C_5
REMARK    2  A    between atoms: N_3  and  O_4
REMARK    3  A    between atoms: C_8  and  C_9
REMARK    4  A    between atoms: C_9  and  N_10
REMARK                            x       y       z     vdW  Elec       q    Type
REMARK                         _______ _______ _______ _____ _____    ______ ____
ROOT
ATOM      1  N   UNL     1       3.435   5.376  18.777  0.00  0.00    +0.000 N 
ATOM      2  C   UNL     1       2.443   4.389  18.982  0.00  0.00    +0.000 A 
ATOM      3  C   UNL     1       1.541   4.415  20.062  0.00  0.00    +0.000 A 
ATOM      4  C   UNL     1       0.560   3.436  20.232  0.00  0.00    +0.000 A 
ATOM      5  C   UNL     1       0.500   2.409  19.321  0.00  0.00    +0.000 A 
ATOM      6  N   UNL     1       1.342   2.310  18.281  0.00  0.00    +0.000 NA
ATOM      7  C   UNL     1       2.286   3.283  18.124  0.00  0.00    +0.000 A 
ATOM      8  S   UNL     1       3.305   3.003  16.702  0.00  0.00    +0.000 S 
ATOM      9  C   UNL     1       4.414   4.379  16.747  0.00  0.00    +0.000 A 
ATOM     10  C   UNL     1       5.351   4.460  15.703  0.00  0.00    +0.000 A 
ATOM     11  C   UNL     1       6.270   5.498  15.664  0.00  0.00    +0.000 A 
ATOM     12  C   UNL     1       6.233   6.413  16.688  0.00  0.00    +0.000 A 
ATOM     13  N   UNL     1       5.343   6.363  17.702  0.00  0.00    +0.000 NA
ATOM     14  C   UNL     1       4.408   5.372  17.736  0.00  0.00    +0.000 A 
ENDROOT
BRANCH   1  15
ATOM     15  C   UNL     1       3.518   6.562  19.654  0.00  0.00    +0.000 C 
BRANCH  15  19
ATOM     16  C   UNL     1       0.539   9.552  18.622  0.00  0.00    +0.000 A 
ATOM     17  C   UNL     1       1.379   9.033  17.634  0.00  0.00    +0.000 A 
ATOM     18  C   UNL     1       2.374   8.108  17.971  0.00  0.00    +0.000 A 
ATOM     19  C   UNL     1       2.528   7.664  19.293  0.00  0.00    +0.000 A 
ATOM     20  C   UNL     1       1.690   8.217  20.277  0.00  0.00    +0.000 A 
ATOM     21  C   UNL     1       0.705   9.154  19.952  0.00  0.00    +0.000 A 
BRANCH  16  23
ATOM     22  O   UNL     1      -1.711  10.035  18.066  0.00  0.00    +0.000 OA
ATOM     23  C   UNL     1      -0.569  10.456  18.224  0.00  0.00    +0.000 C 
ATOM     24  N   UNL     1      -0.236  11.777  18.028  0.00  0.00    +0.000 N 
ATOM     25  H   UNL     1       0.707  12.063  17.787  0.00  0.00    +0.000 HD
BRANCH  24  26
ATOM     26  O   UNL     1      -1.284  12.597  17.548  0.00  0.00    +0.000 OA
ATOM     27  H   UNL     1      -1.511  12.163  16.695  0.00  0.00    +0.000 HD
ENDBRANCH  24  26
ENDBRANCH  16  23
ENDBRANCH  15  19
ENDBRANCH   1  15
TORSDOF 4
ENDMDL
MODEL 3
REMARK VINA RESULT:      -7.5      1.129      3.799
REMARK  Name = 
REMARK  4 active torsions:
REMARK  status: ('A' for Active; 'I' for Inactive)
REMARK    1  A    between atoms: C_2  and  C_5
REMARK    2  A    between atoms: N_3  and  O_4
REMARK    3  A    between atoms: C_8  and  C_9
REMARK    4  A    between atoms: C_9  and  N_10
REMARK                            x       y       z     vdW  Elec       q    Type
REMARK                         _______ _______ _______ _____ _____    ______ ____
ROOT
ATOM      1  N   UNL     1       3.351   5.523  18.740  0.00  0.00    +0.000 N 
ATOM      2  C   UNL     1       4.253   5.510  17.651  0.00  0.00    +0.000 A 
ATOM      3  C   UNL     1       5.128   6.573  17.360  0.00  0.00    +0.000 A 
ATOM      4  C   UNL     1       6.021   6.527  16.288  0.00  0.00    +0.000 A 
ATOM      5  C   UNL     1       6.018   5.411  15.486  0.00  0.00    +0.000 A 
ATOM      6  N   UNL     1       5.195   4.371  15.691  0.00  0.00    +0.000 NA
ATOM      7  C   UNL     1       4.339   4.429  16.752  0.00  0.00    +0.000 A 
ATOM      8  S   UNL     1       3.335   2.974  16.881  0.00  0.00    +0.000 S 
ATOM      9  C   UNL     1       2.342   3.318  18.303  0.00  0.00    +0.000 A 
ATOM     10  C   UNL     1       1.440   2.313  18.692  0.00  0.00    +0.000 A 
ATOM     11  C   UNL     1       0.611   2.501  19.789  0.00  0.00    +0.000 A 
ATOM     12  C   UNL     1       0.699   3.703  20.448  0.00  0.00    +0.000 A 
ATOM     13  N   UNL     1       1.557   4.685  20.099  0.00  0.00    +0.000 NA
ATOM     14  C   UNL     1       2.406   4.503  19.050  0.00  0.00    +0.000 A 
ENDROOT
BRANCH   1  15
ATOM     15  C   UNL     1       3.345   6.641  19.706  0.00  0.00    +0.000 C 
BRANCH  15  19
ATOM     16  C   UNL     1       0.536   9.842  18.846  0.00  0.00    +0.000 A 
ATOM     17  C   UNL     1       0.633   9.328  20.140  0.00  0.00    +0.000 A 
ATOM     18  C   UNL     1       1.499   8.262  20.411  0.00  0.00    +0.000 A 
ATOM     19  C   UNL     1       2.303   7.712  19.401  0.00  0.00    +0.000 A 
ATOM     20  C   UNL     1       2.174   8.228  18.100  0.00  0.00    +0.000 A 
ATOM     21  C   UNL     1       1.298   9.281  17.818  0.00  0.00    +0.000 A 
BRANCH  16  23
ATOM     22  O   UNL     1      -0.376  11.952  19.420  0.00  0.00    +0.000 OA
ATOM     23  C   UNL     1      -0.316  11.034  18.606  0.00  0.00    +0.000 C 
ATOM     24  N   UNL     1      -1.041  11.038  17.437  0.00  0.00    +0.000 N 
ATOM     25  H   UNL     1      -1.297  10.180  16.960  0.00  0.00    +0.000 HD
BRANCH  24  26
ATOM     26  O   UNL     1      -1.925  12.132  17.279  0.00  0.00    +0.000 OA
ATOM     27  H   UNL     1      -2.566  11.785  16.620  0.00  0.00    +0.000 HD
ENDBRANCH  24  26
ENDBRANCH  16  23
ENDBRANCH  15  19
ENDBRANCH   1  15
TORSDOF 4
ENDMDL
MODEL 4
REMARK VINA RESULT:      -7.5      0.971      3.881
REMARK  Name = 
REMARK  4 active torsions:
REMARK  status: ('A' for Active; 'I' for Inactive)
REMARK    1  A    between atoms: C_2  and  C_5
REMARK    2  A    between atoms: N_3  and  O_4
REMARK    3  A    between atoms: C_8  and  C_9
REMARK    4  A    between atoms: C_9  and  N_10
REMARK                            x       y       z     vdW  Elec       q    Type
REMARK                         _______ _______ _______ _____ _____    ______ ____
ROOT
ATOM      1  N   UNL     1       3.346   5.474  18.744  0.00  0.00    +0.000 N 
ATOM      2  C   UNL     1       4.259   5.467  17.663  0.00  0.00    +0.000 A 
ATOM      3  C   UNL     1       5.151   6.523  17.399  0.00  0.00    +0.000 A 
ATOM      4  C   UNL     1       6.054   6.483  16.335  0.00  0.00    +0.000 A 
ATOM      5  C   UNL     1       6.044   5.381  15.514  0.00  0.00    +0.000 A 
ATOM      6  N   UNL     1       5.206   4.349  15.693  0.00  0.00    +0.000 NA
ATOM      7  C   UNL     1       4.339   4.400  16.746  0.00  0.00    +0.000 A 
ATOM      8  S   UNL     1       3.315   2.957  16.840  0.00  0.00    +0.000 S 
ATOM      9  C   UNL     1       2.313   3.290  18.259  0.00  0.00    +0.000 A 
ATOM     10  C   UNL     1       1.394   2.291  18.622  0.00  0.00    +0.000 A 
ATOM     11  C   UNL     1       0.556   2.471  19.713  0.00  0.00    +0.000 A 
ATOM     12  C   UNL     1       0.653   3.660  20.394  0.00  0.00    +0.000 A 
ATOM     13  N   UNL     1       1.528   4.636  20.071  0.00  0.00    +0.000 NA
ATOM     14  C   UNL     1       2.385   4.461  19.026  0.00  0.00    +0.000 A 
ENDROOT
BRANCH   1  15
ATOM     15  C   UNL     1       3.346   6.575  19.728  0.00  0.00    +0.000 C 
BRANCH  15  19
ATOM     16  C   UNL     1       0.454   9.663  18.737  0.00  0.00    +0.000 A 
ATOM     17  C   UNL     1       1.266   9.120  17.739  0.00  0.00    +0.000 A 
ATOM     18  C   UNL     1       2.234   8.163  18.062  0.00  0.00    +0.000 A 
ATOM     19  C   UNL     1       2.388   7.710  19.381  0.00  0.00    +0.000 A 
ATOM     20  C   UNL     1       1.578   8.286  20.376  0.00  0.00    +0.000 A 
ATOM     21  C   UNL     1       0.621   9.256  20.064  0.00  0.00    +0.000 A 
BRANCH  16  23
ATOM     22  O   UNL     1      -1.808  10.263  18.373  0.00  0.00    +0.000 OA
ATOM     23  C   UNL     1      -0.628  10.604  18.354  0.00  0.00    +0.000 C 
ATOM     24  N   UNL     1      -0.231  11.861  17.962  0.00  0.00    +0.000 N 
ATOM     25  H   UNL     1       0.694  12.040  17.587  0.00  0.00    +0.000 HD
BRANCH  24  26
ATOM     26  O   UNL     1      -1.269  12.705  17.501  0.00  0.00    +0.000 OA
ATOM     27  H   UNL     1      -1.133  12.686  16.527  0.00  0.00    +0.000 HD
ENDBRANCH  24  26
ENDBRANCH  16  23
ENDBRANCH  15  19
ENDBRANCH   1  15
TORSDOF 4
ENDMDL
MODEL 5
REMARK VINA RESULT:      -7.5      2.096      4.414
REMARK  Name = 
REMARK  4 active torsions:
REMARK  status: ('A' for Active; 'I' for Inactive)
REMARK    1  A    between atoms: C_2  and  C_5
REMARK    2  A    between atoms: N_3  and  O_4
REMARK    3  A    between atoms: C_8  and  C_9
REMARK    4  A    between atoms: C_9  and  N_10
REMARK                            x       y       z     vdW  Elec       q    Type
REMARK                         _______ _______ _______ _____ _____    ______ ____
ROOT
ATOM      1  N   UNL     1       3.458   5.538  17.973  0.00  0.00    +0.000 N 
ATOM      2  C   UNL     1       4.860   5.695  18.073  0.00  0.00    +0.000 A 
ATOM      3  C   UNL     1       5.544   6.836  17.614  0.00  0.00    +0.000 A 
ATOM      4  C   UNL     1       6.928   6.972  17.740  0.00  0.00    +0.000 A 
ATOM      5  C   UNL     1       7.634   5.941  18.312  0.00  0.00    +0.000 A 
ATOM      6  N   UNL     1       7.050   4.816  18.750  0.00  0.00    +0.000 NA
ATOM      7  C   UNL     1       5.695   4.706  18.630  0.00  0.00    +0.000 A 
ATOM      8  S   UNL     1       5.090   3.166  19.265  0.00  0.00    +0.000 S 
ATOM      9  C   UNL     1       3.349   3.292  18.981  0.00  0.00    +0.000 A 
ATOM     10  C   UNL     1       2.566   2.209  19.417  0.00  0.00    +0.000 A 
ATOM     11  C   UNL     1       1.192   2.214  19.224  0.00  0.00    +0.000 A 
ATOM     12  C   UNL     1       0.649   3.300  18.580  0.00  0.00    +0.000 A 
ATOM     13  N   UNL     1       1.375   4.355  18.154  0.00  0.00    +0.000 NA
ATOM     14  C   UNL     1       2.720   4.385  18.369  0.00  0.00    +0.000 A 
ENDROOT
BRANCH   1  15
ATOM     15  C   UNL     1       2.608   6.629  17.454  0.00  0.00    +0.000 C 
BRANCH  15  19
ATOM     16  C   UNL     1       1.157   9.372  20.495  0.00  0.00    +0.000 A 
ATOM     17  C   UNL     1       1.191   9.768  19.156  0.00  0.00    +0.000 A 
ATOM     18  C   UNL     1       1.706   8.907  18.180  0.00  0.00    +0.000 A 
ATOM     19  C   UNL     1       2.167   7.626  18.520  0.00  0.00    +0.000 A 
ATOM     20  C   UNL     1       2.147   7.255  19.876  0.00  0.00    +0.000 A 
ATOM     21  C   UNL     1       1.651   8.116  20.859  0.00  0.00    +0.000 A 
BRANCH  16  23
ATOM     22  O   UNL     1       0.731  11.474  21.501  0.00  0.00    +0.000 OA
ATOM     23  C   UNL     1       0.518  10.264  21.494  0.00  0.00    +0.000 C 
ATOM     24  N   UNL     1      -0.305   9.656  22.414  0.00  0.00    +0.000 N 
ATOM     25  H   UNL     1      -0.204   8.678  22.662  0.00  0.00    +0.000 HD
BRANCH  24  26
ATOM     26  O   UNL     1      -0.819  10.509  23.420  0.00  0.00    +0.000 OA
ATOM     27  H   UNL     1      -1.490   9.935  23.853  0.00  0.00    +0.000 HD
ENDBRANCH  24  26
ENDBRANCH  16  23
ENDBRANCH  15  19
ENDBRANCH   1  15
TORSDOF 4
ENDMDL
MODEL 6
REMARK VINA RESULT:      -7.4      1.993      2.468
REMARK  Name = 
REMARK  4 active torsions:
REMARK  status: ('A' for Active; 'I' for Inactive)
REMARK    1  A    between atoms: C_2  and  C_5
REMARK    2  A    between atoms: N_3  and  O_4
REMARK    3  A    between atoms: C_8  and  C_9
REMARK    4  A    between atoms: C_9  and  N_10
REMARK                            x       y       z     vdW  Elec       q    Type
REMARK                         _______ _______ _______ _____ _____    ______ ____
ROOT
ATOM      1  N   UNL     1       3.367   5.665  18.013  0.00  0.00    +0.000 N 
ATOM      2  C   UNL     1       2.772   4.479  18.504  0.00  0.00    +0.000 A 
ATOM      3  C   UNL     1       1.380   4.295  18.596  0.00  0.00    +0.000 A 
ATOM      4  C   UNL     1       0.820   3.107  19.069  0.00  0.00    +0.000 A 
ATOM      5  C   UNL     1       1.666   2.104  19.476  0.00  0.00    +0.000 A 
ATOM      6  N   UNL     1       3.002   2.220  19.437  0.00  0.00    +0.000 NA
ATOM      7  C   UNL     1       3.532   3.383  18.959  0.00  0.00    +0.000 A 
ATOM      8  S   UNL     1       5.304   3.365  18.969  0.00  0.00    +0.000 S 
ATOM      9  C   UNL     1       5.708   4.960  18.320  0.00  0.00    +0.000 A 
ATOM     10  C   UNL     1       7.076   5.244  18.171  0.00  0.00    +0.000 A 
ATOM     11  C   UNL     1       7.487   6.476  17.682  0.00  0.00    +0.000 A 
ATOM     12  C   UNL     1       6.510   7.392  17.377  0.00  0.00    +0.000 A 
ATOM     13  N   UNL     1       5.189   7.146  17.507  0.00  0.00    +0.000 NA
ATOM     14  C   UNL     1       4.766   5.928  17.948  0.00  0.00    +0.000 A 
ENDROOT
BRANCH   1  15
ATOM     15  C   UNL     1       2.537   6.761  17.472  0.00  0.00    +0.000 C 
BRANCH  15  19
ATOM     16  C   UNL     1       1.103   9.565  20.466  0.00  0.00    +0.000 A 
ATOM     17  C   UNL     1       1.150   9.942  19.122  0.00  0.00    +0.000 A 
ATOM     18  C   UNL     1       1.660   9.060  18.162  0.00  0.00    +0.000 A 
ATOM     19  C   UNL     1       2.103   7.779  18.521  0.00  0.00    +0.000 A 
ATOM     20  C   UNL     1       2.070   7.427  19.882  0.00  0.00    +0.000 A 
ATOM     21  C   UNL     1       1.578   8.307  20.850  0.00  0.00    +0.000 A 
BRANCH  16  23
ATOM     22  O   UNL     1       0.716  11.681  21.455  0.00  0.00    +0.000 OA
ATOM     23  C   UNL     1       0.469  10.478  21.449  0.00  0.00    +0.000 C 
ATOM     24  N   UNL     1      -0.388   9.898  22.355  0.00  0.00    +0.000 N 
ATOM     25  H   UNL     1      -0.319   8.918  22.609  0.00  0.00    +0.000 HD
BRANCH  24  26
ATOM     26  O   UNL     1      -0.898  10.768  23.347  0.00  0.00    +0.000 OA
ATOM     27  H   UNL     1      -1.819  10.918  23.037  0.00  0.00    +0.000 HD
ENDBRANCH  24  26
ENDBRANCH  16  23
ENDBRANCH  15  19
ENDBRANCH   1  15
TORSDOF 4
ENDMDL
MODEL 7
REMARK VINA RESULT:      -7.3      2.046      2.409
REMARK  Name = 
REMARK  4 active torsions:
REMARK  status: ('A' for Active; 'I' for Inactive)
REMARK    1  A    between atoms: C_2  and  C_5
REMARK    2  A    between atoms: N_3  and  O_4
REMARK    3  A    between atoms: C_8  and  C_9
REMARK    4  A    between atoms: C_9  and  N_10
REMARK                            x       y       z     vdW  Elec       q    Type
REMARK                         _______ _______ _______ _____ _____    ______ ____
ROOT
ATOM      1  N   UNL     1       3.610   5.816  17.846  0.00  0.00    +0.000 N 
ATOM      2  C   UNL     1       2.963   4.616  18.223  0.00  0.00    +0.000 A 
ATOM      3  C   UNL     1       1.567   4.441  18.171  0.00  0.00    +0.000 A 
ATOM      4  C   UNL     1       0.956   3.240  18.533  0.00  0.00    +0.000 A 
ATOM      5  C   UNL     1       1.753   2.211  18.975  0.00  0.00    +0.000 A 
ATOM      6  N   UNL     1       3.087   2.316  19.072  0.00  0.00    +0.000 NA
ATOM      7  C   UNL     1       3.668   3.494  18.701  0.00  0.00    +0.000 A 
ATOM      8  S   UNL     1       5.430   3.457  18.883  0.00  0.00    +0.000 S 
ATOM      9  C   UNL     1       5.905   5.074  18.348  0.00  0.00    +0.000 A 
ATOM     10  C   UNL     1       7.282   5.352  18.347  0.00  0.00    +0.000 A 
ATOM     11  C   UNL     1       7.747   6.599  17.956  0.00  0.00    +0.000 A 
ATOM     12  C   UNL     1       6.809   7.538  17.599  0.00  0.00    +0.000 A 
ATOM     13  N   UNL     1       5.481   7.300  17.588  0.00  0.00    +0.000 NA
ATOM     14  C   UNL     1       5.009   6.068  17.931  0.00  0.00    +0.000 A 
ENDROOT
BRANCH   1  15
ATOM     15  C   UNL     1       2.843   6.944  17.277  0.00  0.00    +0.000 C 
BRANCH  15  19
ATOM     16  C   UNL     1       1.081   9.547  20.277  0.00  0.00    +0.000 A 
ATOM     17  C   UNL     1       1.601   8.306  20.648  0.00  0.00    +0.000 A 
ATOM     18  C   UNL     1       2.123   7.442  19.678  0.00  0.00    +0.000 A 
ATOM     19  C   UNL     1       2.161   7.815  18.326  0.00  0.00    +0.000 A 
ATOM     20  C   UNL     1       1.610   9.059  17.969  0.00  0.00    +0.000 A 
ATOM     21  C   UNL     1       1.072   9.920  18.929  0.00  0.00    +0.000 A 
BRANCH  16  23
ATOM     22  O   UNL     1       0.948  11.667  21.324  0.00  0.00    +0.000 OA
ATOM     23  C   UNL     1       0.624  10.483  21.334  0.00  0.00    +0.000 C 
ATOM     24  N   UNL     1      -0.163   9.943  22.326  0.00  0.00    +0.000 N 
ATOM     25  H   UNL     1      -0.130   8.957  22.560  0.00  0.00    +0.000 HD
BRANCH  24  26
ATOM     26  O   UNL     1      -0.498  10.828  23.378  0.00  0.00    +0.000 OA
ATOM     27  H   UNL     1      -0.610  10.212  24.136  0.00  0.00    +0.000 HD
ENDBRANCH  24  26
ENDBRANCH  16  23
ENDBRANCH  15  19
ENDBRANCH   1  15
TORSDOF 4
ENDMDL
MODEL 8
REMARK VINA RESULT:      -7.1      1.983      4.189
REMARK  Name = 
REMARK  4 active torsions:
REMARK  status: ('A' for Active; 'I' for Inactive)
REMARK    1  A    between atoms: C_2  and  C_5
REMARK    2  A    between atoms: N_3  and  O_4
REMARK    3  A    between atoms: C_8  and  C_9
REMARK    4  A    between atoms: C_9  and  N_10
REMARK                            x       y       z     vdW  Elec       q    Type
REMARK                         _______ _______ _______ _____ _____    ______ ____
ROOT
ATOM      1  N   UNL     1       3.627   5.582  17.914  0.00  0.00    +0.000 N 
ATOM      2  C   UNL     1       5.023   5.711  18.109  0.00  0.00    +0.000 A 
ATOM      3  C   UNL     1       5.762   6.828  17.677  0.00  0.00    +0.000 A 
ATOM      4  C   UNL     1       7.137   6.937  17.897  0.00  0.00    +0.000 A 
ATOM      5  C   UNL     1       7.778   5.903  18.536  0.00  0.00    +0.000 A 
ATOM      6  N   UNL     1       7.139   4.799  18.954  0.00  0.00    +0.000 NA
ATOM      7  C   UNL     1       5.794   4.716  18.742  0.00  0.00    +0.000 A 
ATOM      8  S   UNL     1       5.111   3.203  19.362  0.00  0.00    +0.000 S 
ATOM      9  C   UNL     1       3.397   3.360  18.955  0.00  0.00    +0.000 A 
ATOM     10  C   UNL     1       2.562   2.304  19.355  0.00  0.00    +0.000 A 
ATOM     11  C   UNL     1       1.205   2.335  19.066  0.00  0.00    +0.000 A 
ATOM     12  C   UNL     1       0.733   3.418  18.365  0.00  0.00    +0.000 A 
ATOM     13  N   UNL     1       1.511   4.448  17.971  0.00  0.00    +0.000 NA
ATOM     14  C   UNL     1       2.838   4.454  18.280  0.00  0.00    +0.000 A 
ENDROOT
BRANCH   1  15
ATOM     15  C   UNL     1       2.841   6.680  17.316  0.00  0.00    +0.000 C 
BRANCH  15  19
ATOM     16  C   UNL     1       1.230   9.456  20.245  0.00  0.00    +0.000 A 
ATOM     17  C   UNL     1       1.696   8.204  20.652  0.00  0.00    +0.000 A 
ATOM     18  C   UNL     1       2.168   7.287  19.705  0.00  0.00    +0.000 A 
ATOM     19  C   UNL     1       2.210   7.615  18.342  0.00  0.00    +0.000 A 
ATOM     20  C   UNL     1       1.713   8.871  17.949  0.00  0.00    +0.000 A 
ATOM     21  C   UNL     1       1.224   9.785  18.886  0.00  0.00    +0.000 A 
BRANCH  16  23
ATOM     22  O   UNL     1       0.518  10.094  22.412  0.00  0.00    +0.000 OA
ATOM     23  C   UNL     1       0.826  10.445  21.276  0.00  0.00    +0.000 C 
ATOM     24  N   UNL     1       0.801  11.762  20.879  0.00  0.00    +0.000 N 
ATOM     25  H   UNL     1       0.681  12.028  19.907  0.00  0.00    +0.000 HD
BRANCH  24  26
ATOM     26  O   UNL     1       0.313  12.673  21.844  0.00  0.00    +0.000 OA
ATOM     27  H   UNL     1       0.370  12.146  22.672  0.00  0.00    +0.000 HD
ENDBRANCH  24  26
ENDBRANCH  16  23
ENDBRANCH  15  19
ENDBRANCH   1  15
TORSDOF 4
ENDMDL
MODEL 9
REMARK VINA RESULT:      -7.1      1.822      2.183
REMARK  Name = 
REMARK  4 active torsions:
REMARK  status: ('A' for Active; 'I' for Inactive)
REMARK    1  A    between atoms: C_2  and  C_5
REMARK    2  A    between atoms: N_3  and  O_4
REMARK    3  A    between atoms: C_8  and  C_9
REMARK    4  A    between atoms: C_9  and  N_10
REMARK                            x       y       z     vdW  Elec       q    Type
REMARK                         _______ _______ _______ _____ _____    ______ ____
ROOT
ATOM      1  N   UNL     1       3.291   5.659  18.368  0.00  0.00    +0.000 N 
ATOM      2  C   UNL     1       2.732   4.597  19.118  0.00  0.00    +0.000 A 
ATOM      3  C   UNL     1       1.349   4.446  19.330  0.00  0.00    +0.000 A 
ATOM      4  C   UNL     1       0.823   3.379  20.060  0.00  0.00    +0.000 A 
ATOM      5  C   UNL     1       1.697   2.468  20.603  0.00  0.00    +0.000 A 
ATOM      6  N   UNL     1       3.028   2.563  20.459  0.00  0.00    +0.000 NA
ATOM      7  C   UNL     1       3.522   3.606  19.731  0.00  0.00    +0.000 A 
ATOM      8  S   UNL     1       5.292   3.574  19.635  0.00  0.00    +0.000 S 
ATOM      9  C   UNL     1       5.649   5.008  18.663  0.00  0.00    +0.000 A 
ATOM     10  C   UNL     1       7.004   5.246  18.377  0.00  0.00    +0.000 A 
ATOM     11  C   UNL     1       7.379   6.355  17.632  0.00  0.00    +0.000 A 
ATOM     12  C   UNL     1       6.382   7.202  17.214  0.00  0.00    +0.000 A 
ATOM     13  N   UNL     1       5.072   6.997  17.471  0.00  0.00    +0.000 NA
ATOM     14  C   UNL     1       4.682   5.893  18.167  0.00  0.00    +0.000 A 
ENDROOT
BRANCH   1  15
ATOM     15  C   UNL     1       2.425   6.636  17.676  0.00  0.00    +0.000 C 
BRANCH  15  19
ATOM     16  C   UNL     1       1.047   9.923  20.160  0.00  0.00    +0.000 A 
ATOM     17  C   UNL     1       1.195  10.103  18.783  0.00  0.00    +0.000 A 
ATOM     18  C   UNL     1       1.688   9.063  17.986  0.00  0.00    +0.000 A 
ATOM     19  C   UNL     1       2.012   7.818  18.546  0.00  0.00    +0.000 A 
ATOM     20  C   UNL     1       1.879   7.664  19.937  0.00  0.00    +0.000 A 
ATOM     21  C   UNL     1       1.404   8.704  20.742  0.00  0.00    +0.000 A 
BRANCH  16  23
ATOM     22  O   UNL     1       0.477  10.996  22.193  0.00  0.00    +0.000 OA
ATOM     23  C   UNL     1       0.432  11.008  20.966  0.00  0.00    +0.000 C 
ATOM     24  N   UNL     1      -0.201  12.005  20.261  0.00  0.00    +0.000 N 
ATOM     25  H   UNL     1      -0.570  11.854  19.328  0.00  0.00    +0.000 HD
BRANCH  24  26
ATOM     26  O   UNL     1      -0.870  12.970  21.051  0.00  0.00    +0.000 OA
ATOM     27  H   UNL     1      -1.056  12.468  21.876  0.00  0.00    +0.000 HD
ENDBRANCH  24  26
ENDBRANCH  16  23
ENDBRANCH  15  19
ENDBRANCH   1  15
TORSDOF 4
ENDMDL
