MODEL 1
REMARK VINA RESULT:      -7.8      0.000      0.000
REMARK  Name = 
REMARK  3 active torsions:
REMARK  status: ('A' for Active; 'I' for Inactive)
REMARK    1  A    between atoms: S_1  and  C_2
REMARK    2  A    between atoms: C_4  and  C_5
REMARK    3  A    between atoms: C_12  and  C_13
REMARK                            x       y       z     vdW  Elec       q    Type
REMARK                         _______ _______ _______ _____ _____    ______ ____
ROOT
ATOM      1  C   UNL     1       7.218   6.593  17.350  0.00  0.00    +0.000 C 
ATOM      2  N   UNL     1       7.325   6.291  16.098  0.00  0.00    +0.000 NA
ATOM      3  C   UNL     1       6.786   5.078  15.742  0.00  0.00    +0.000 C 
ATOM      4  C   UNL     1       6.153   4.265  16.599  0.00  0.00    +0.000 C 
ATOM      5  C   UNL     1       5.954   4.623  18.036  0.00  0.00    +0.000 C 
ATOM      6  N   UNL     1       6.644   5.850  18.331  0.00  0.00    +0.000 N 
ATOM      7  H   UNL     1       6.477   6.288  19.224  0.00  0.00    +0.000 HD
ENDROOT
BRANCH   3   8
ATOM      8  C   UNL     1       6.863   4.648  14.337  0.00  0.00    +0.000 A 
ATOM      9  C   UNL     1       7.755   5.274  13.457  0.00  0.00    +0.000 A 
ATOM     10  C   UNL     1       7.745   4.950  12.098  0.00  0.00    +0.000 A 
ATOM     11  C   UNL     1       6.846   3.998  11.616  0.00  0.00    +0.000 A 
ATOM     12  C   UNL     1       5.970   3.357  12.491  0.00  0.00    +0.000 A 
ATOM     13  C   UNL     1       5.978   3.680  13.849  0.00  0.00    +0.000 A 
ENDBRANCH   3   8
BRANCH   5  14
ATOM     14  C   UNL     1       4.484   4.746  18.390  0.00  0.00    +0.000 A 
ATOM     15  C   UNL     1       4.094   5.380  19.580  0.00  0.00    +0.000 A 
ATOM     16  C   UNL     1       2.747   5.451  19.938  0.00  0.00    +0.000 A 
ATOM     17  C   UNL     1       1.773   4.892  19.114  0.00  0.00    +0.000 A 
ATOM     18  C   UNL     1       2.141   4.269  17.924  0.00  0.00    +0.000 A 
ATOM     19  C   UNL     1       3.487   4.200  17.562  0.00  0.00    +0.000 A 
ENDBRANCH   5  14
BRANCH   1  20
ATOM     20  S   UNL     1       7.872   8.122  17.877  0.00  0.00    +0.000 S 
ATOM     21  H   UNL     1       9.099   7.636  18.110  0.00  0.00    +0.000 HD
ENDBRANCH   1  20
TORSDOF 3
ENDMDL
MODEL 2
REMARK VINA RESULT:      -7.8      0.163      1.120
REMARK  Name = 
REMARK  3 active torsions:
REMARK  status: ('A' for Active; 'I' for Inactive)
REMARK    1  A    between atoms: S_1  and  C_2
REMARK    2  A    between atoms: C_4  and  C_5
REMARK    3  A    between atoms: C_12  and  C_13
REMARK                            x       y       z     vdW  Elec       q    Type
REMARK                         _______ _______ _______ _____ _____    ______ ____
ROOT
ATOM      1  C   UNL     1       7.150   6.494  17.299  0.00  0.00    +0.000 C 
ATOM      2  N   UNL     1       7.211   6.241  16.033  0.00  0.00    +0.000 NA
ATOM      3  C   UNL     1       6.635   5.056  15.645  0.00  0.00    +0.000 C 
ATOM      4  C   UNL     1       6.011   4.221  16.489  0.00  0.00    +0.000 C 
ATOM      5  C   UNL     1       5.865   4.523  17.945  0.00  0.00    +0.000 C 
ATOM      6  N   UNL     1       6.591   5.723  18.267  0.00  0.00    +0.000 N 
ATOM      7  H   UNL     1       6.462   6.127  19.182  0.00  0.00    +0.000 HD
ENDROOT
BRANCH   3   8
ATOM      8  C   UNL     1       6.658   4.682  14.223  0.00  0.00    +0.000 A 
ATOM      9  C   UNL     1       5.763   3.723  13.732  0.00  0.00    +0.000 A 
ATOM     10  C   UNL     1       5.862   3.279  12.412  0.00  0.00    +0.000 A 
ATOM     11  C   UNL     1       6.853   3.795  11.576  0.00  0.00    +0.000 A 
ATOM     12  C   UNL     1       7.734   4.765  12.054  0.00  0.00    +0.000 A 
ATOM     13  C   UNL     1       7.637   5.209  13.373  0.00  0.00    +0.000 A 
ENDBRANCH   3   8
BRANCH   5  14
ATOM     14  C   UNL     1       4.409   4.663  18.350  0.00  0.00    +0.000 A 
ATOM     15  C   UNL     1       4.072   5.239  19.585  0.00  0.00    +0.000 A 
ATOM     16  C   UNL     1       2.739   5.324  19.989  0.00  0.00    +0.000 A 
ATOM     17  C   UNL     1       1.726   4.834  19.166  0.00  0.00    +0.000 A 
ATOM     18  C   UNL     1       2.043   4.270  17.932  0.00  0.00    +0.000 A 
ATOM     19  C   UNL     1       3.374   4.189  17.525  0.00  0.00    +0.000 A 
ENDBRANCH   5  14
BRANCH   1  20
ATOM     20  S   UNL     1       7.855   7.985  17.866  0.00  0.00    +0.000 S 
ATOM     21  H   UNL     1       6.705   8.463  18.361  0.00  0.00    +0.000 HD
ENDBRANCH   1  20
TORSDOF 3
ENDMDL
MODEL 3
REMARK VINA RESULT:      -7.8      0.066      1.109
REMARK  Name = 
REMARK  3 active torsions:
REMARK  status: ('A' for Active; 'I' for Inactive)
REMARK    1  A    between atoms: S_1  and  C_2
REMARK    2  A    between atoms: C_4  and  C_5
REMARK    3  A    between atoms: C_12  and  C_13
REMARK                            x       y       z     vdW  Elec       q    Type
REMARK                         _______ _______ _______ _____ _____    ______ ____
ROOT
ATOM      1  C   UNL     1       7.232   6.588  17.335  0.00  0.00    +0.000 C 
ATOM      2  N   UNL     1       7.328   6.289  16.081  0.00  0.00    +0.000 NA
ATOM      3  C   UNL     1       6.809   5.067  15.731  0.00  0.00    +0.000 C 
ATOM      4  C   UNL     1       6.205   4.239  16.595  0.00  0.00    +0.000 C 
ATOM      5  C   UNL     1       6.019   4.591  18.036  0.00  0.00    +0.000 C 
ATOM      6  N   UNL     1       6.688   5.831  18.323  0.00  0.00    +0.000 N 
ATOM      7  H   UNL     1       6.525   6.265  19.219  0.00  0.00    +0.000 HD
ENDROOT
BRANCH   3   8
ATOM      8  C   UNL     1       6.874   4.640  14.325  0.00  0.00    +0.000 A 
ATOM      9  C   UNL     1       7.753   5.274  13.436  0.00  0.00    +0.000 A 
ATOM     10  C   UNL     1       7.731   4.954  12.077  0.00  0.00    +0.000 A 
ATOM     11  C   UNL     1       6.835   3.996  11.602  0.00  0.00    +0.000 A 
ATOM     12  C   UNL     1       5.972   3.348  12.484  0.00  0.00    +0.000 A 
ATOM     13  C   UNL     1       5.992   3.667  13.843  0.00  0.00    +0.000 A 
ENDBRANCH   3   8
BRANCH   5  14
ATOM     14  C   UNL     1       4.551   4.684  18.410  0.00  0.00    +0.000 A 
ATOM     15  C   UNL     1       3.576   4.088  17.596  0.00  0.00    +0.000 A 
ATOM     16  C   UNL     1       2.220   4.213  17.904  0.00  0.00    +0.000 A 
ATOM     17  C   UNL     1       1.822   4.934  19.029  0.00  0.00    +0.000 A 
ATOM     18  C   UNL     1       2.778   5.521  19.854  0.00  0.00    +0.000 A 
ATOM     19  C   UNL     1       4.133   5.394  19.550  0.00  0.00    +0.000 A 
ENDBRANCH   5  14
BRANCH   1  20
ATOM     20  S   UNL     1       7.863   8.128  17.856  0.00  0.00    +0.000 S 
ATOM     21  H   UNL     1       9.075   7.932  17.319  0.00  0.00    +0.000 HD
ENDBRANCH   1  20
TORSDOF 3
ENDMDL
MODEL 4
REMARK VINA RESULT:      -7.8      0.149      1.574
REMARK  Name = 
REMARK  3 active torsions:
REMARK  status: ('A' for Active; 'I' for Inactive)
REMARK    1  A    between atoms: S_1  and  C_2
REMARK    2  A    between atoms: C_4  and  C_5
REMARK    3  A    between atoms: C_12  and  C_13
REMARK                            x       y       z     vdW  Elec       q    Type
REMARK                         _______ _______ _______ _____ _____    ______ ____
ROOT
ATOM      1  C   UNL     1       7.153   6.505  17.296  0.00  0.00    +0.000 C 
ATOM      2  N   UNL     1       7.209   6.251  16.030  0.00  0.00    +0.000 NA
ATOM      3  C   UNL     1       6.651   5.054  15.650  0.00  0.00    +0.000 C 
ATOM      4  C   UNL     1       6.049   4.211  16.500  0.00  0.00    +0.000 C 
ATOM      5  C   UNL     1       5.909   4.514  17.957  0.00  0.00    +0.000 C 
ATOM      6  N   UNL     1       6.616   5.726  18.270  0.00  0.00    +0.000 N 
ATOM      7  H   UNL     1       6.486   6.131  19.186  0.00  0.00    +0.000 HD
ENDROOT
BRANCH   3   8
ATOM      8  C   UNL     1       6.670   4.678  14.228  0.00  0.00    +0.000 A 
ATOM      9  C   UNL     1       5.791   3.699  13.747  0.00  0.00    +0.000 A 
ATOM     10  C   UNL     1       5.889   3.254  12.427  0.00  0.00    +0.000 A 
ATOM     11  C   UNL     1       6.862   3.788  11.582  0.00  0.00    +0.000 A 
ATOM     12  C   UNL     1       7.728   4.777  12.050  0.00  0.00    +0.000 A 
ATOM     13  C   UNL     1       7.632   5.222  13.369  0.00  0.00    +0.000 A 
ENDBRANCH   3   8
BRANCH   5  14
ATOM     14  C   UNL     1       4.454   4.628  18.373  0.00  0.00    +0.000 A 
ATOM     15  C   UNL     1       3.437   4.174  17.518  0.00  0.00    +0.000 A 
ATOM     16  C   UNL     1       2.095   4.323  17.870  0.00  0.00    +0.000 A 
ATOM     17  C   UNL     1       1.751   4.926  19.078  0.00  0.00    +0.000 A 
ATOM     18  C   UNL     1       2.748   5.370  19.944  0.00  0.00    +0.000 A 
ATOM     19  C   UNL     1       4.090   5.219  19.596  0.00  0.00    +0.000 A 
ENDBRANCH   5  14
BRANCH   1  20
ATOM     20  S   UNL     1       7.835   8.010  17.855  0.00  0.00    +0.000 S 
ATOM     21  H   UNL     1       8.997   7.846  17.207  0.00  0.00    +0.000 HD
ENDBRANCH   1  20
TORSDOF 3
ENDMDL
MODEL 5
REMARK VINA RESULT:      -7.4      3.270      6.815
REMARK  Name = 
REMARK  3 active torsions:
REMARK  status: ('A' for Active; 'I' for Inactive)
REMARK    1  A    between atoms: S_1  and  C_2
REMARK    2  A    between atoms: C_4  and  C_5
REMARK    3  A    between atoms: C_12  and  C_13
REMARK                            x       y       z     vdW  Elec       q    Type
REMARK                         _______ _______ _______ _____ _____    ______ ____
ROOT
ATOM      1  C   UNL     1       2.472   3.699  19.019  0.00  0.00    +0.000 C 
ATOM      2  N   UNL     1       1.908   4.854  19.155  0.00  0.00    +0.000 NA
ATOM      3  C   UNL     1       2.769   5.923  19.189  0.00  0.00    +0.000 C 
ATOM      4  C   UNL     1       4.098   5.813  19.052  0.00  0.00    +0.000 C 
ATOM      5  C   UNL     1       4.769   4.497  18.824  0.00  0.00    +0.000 C 
ATOM      6  N   UNL     1       3.800   3.438  18.914  0.00  0.00    +0.000 N 
ATOM      7  H   UNL     1       4.082   2.509  18.637  0.00  0.00    +0.000 HD
ENDROOT
BRANCH   3   8
ATOM      8  C   UNL     1       2.218   7.278  19.343  0.00  0.00    +0.000 A 
ATOM      9  C   UNL     1       1.645   7.671  20.559  0.00  0.00    +0.000 A 
ATOM     10  C   UNL     1       1.014   8.912  20.671  0.00  0.00    +0.000 A 
ATOM     11  C   UNL     1       0.958   9.767  19.570  0.00  0.00    +0.000 A 
ATOM     12  C   UNL     1       1.545   9.389  18.362  0.00  0.00    +0.000 A 
ATOM     13  C   UNL     1       2.175   8.149  18.249  0.00  0.00    +0.000 A 
ENDBRANCH   3   8
BRANCH   5  14
ATOM     14  C   UNL     1       5.480   4.450  17.485  0.00  0.00    +0.000 A 
ATOM     15  C   UNL     1       6.863   4.679  17.411  0.00  0.00    +0.000 A 
ATOM     16  C   UNL     1       7.516   4.690  16.177  0.00  0.00    +0.000 A 
ATOM     17  C   UNL     1       6.798   4.472  15.003  0.00  0.00    +0.000 A 
ATOM     18  C   UNL     1       5.427   4.231  15.060  0.00  0.00    +0.000 A 
ATOM     19  C   UNL     1       4.773   4.216  16.292  0.00  0.00    +0.000 A 
ENDBRANCH   5  14
BRANCH   1  20
ATOM     20  S   UNL     1       1.443   2.292  18.961  0.00  0.00    +0.000 S 
ATOM     21  H   UNL     1       2.303   1.505  19.621  0.00  0.00    +0.000 HD
ENDBRANCH   1  20
TORSDOF 3
ENDMDL
MODEL 6
REMARK VINA RESULT:      -7.3      3.254      6.952
REMARK  Name = 
REMARK  3 active torsions:
REMARK  status: ('A' for Active; 'I' for Inactive)
REMARK    1  A    between atoms: S_1  and  C_2
REMARK    2  A    between atoms: C_4  and  C_5
REMARK    3  A    between atoms: C_12  and  C_13
REMARK                            x       y       z     vdW  Elec       q    Type
REMARK                         _______ _______ _______ _____ _____    ______ ____
ROOT
ATOM      1  C   UNL     1       2.604   3.703  19.330  0.00  0.00    +0.000 C 
ATOM      2  N   UNL     1       1.988   4.831  19.465  0.00  0.00    +0.000 NA
ATOM      3  C   UNL     1       2.793   5.943  19.446  0.00  0.00    +0.000 C 
ATOM      4  C   UNL     1       4.120   5.898  19.261  0.00  0.00    +0.000 C 
ATOM      5  C   UNL     1       4.848   4.613  19.033  0.00  0.00    +0.000 C 
ATOM      6  N   UNL     1       3.940   3.508  19.180  0.00  0.00    +0.000 N 
ATOM      7  H   UNL     1       4.259   2.589  18.910  0.00  0.00    +0.000 HD
ENDROOT
BRANCH   3   8
ATOM      8  C   UNL     1       2.179   7.272  19.595  0.00  0.00    +0.000 A 
ATOM      9  C   UNL     1       1.546   7.624  20.794  0.00  0.00    +0.000 A 
ATOM     10  C   UNL     1       0.860   8.836  20.897  0.00  0.00    +0.000 A 
ATOM     11  C   UNL     1       0.807   9.701  19.804  0.00  0.00    +0.000 A 
ATOM     12  C   UNL     1       1.452   9.364  18.614  0.00  0.00    +0.000 A 
ATOM     13  C   UNL     1       2.138   8.153  18.510  0.00  0.00    +0.000 A 
ENDBRANCH   3   8
BRANCH   5  14
ATOM     14  C   UNL     1       5.511   4.574  17.668  0.00  0.00    +0.000 A 
ATOM     15  C   UNL     1       4.738   4.384  16.513  0.00  0.00    +0.000 A 
ATOM     16  C   UNL     1       5.345   4.294  15.259  0.00  0.00    +0.000 A 
ATOM     17  C   UNL     1       6.730   4.393  15.143  0.00  0.00    +0.000 A 
ATOM     18  C   UNL     1       7.511   4.595  16.279  0.00  0.00    +0.000 A 
ATOM     19  C   UNL     1       6.906   4.689  17.532  0.00  0.00    +0.000 A 
ENDBRANCH   5  14
BRANCH   1  20
ATOM     20  S   UNL     1       1.647   2.245  19.337  0.00  0.00    +0.000 S 
ATOM     21  H   UNL     1       1.322   2.326  18.040  0.00  0.00    +0.000 HD
ENDBRANCH   1  20
TORSDOF 3
ENDMDL
MODEL 7
REMARK VINA RESULT:      -7.3      2.758      6.340
REMARK  Name = 
REMARK  3 active torsions:
REMARK  status: ('A' for Active; 'I' for Inactive)
REMARK    1  A    between atoms: S_1  and  C_2
REMARK    2  A    between atoms: C_4  and  C_5
REMARK    3  A    between atoms: C_12  and  C_13
REMARK                            x       y       z     vdW  Elec       q    Type
REMARK                         _______ _______ _______ _____ _____    ______ ____
ROOT
ATOM      1  C   UNL     1       4.405   3.836  19.253  0.00  0.00    +0.000 C 
ATOM      2  N   UNL     1       3.507   4.757  19.372  0.00  0.00    +0.000 NA
ATOM      3  C   UNL     1       3.813   5.952  18.768  0.00  0.00    +0.000 C 
ATOM      4  C   UNL     1       4.935   6.165  18.066  0.00  0.00    +0.000 C 
ATOM      5  C   UNL     1       5.957   5.096  17.854  0.00  0.00    +0.000 C 
ATOM      6  N   UNL     1       5.599   3.927  18.612  0.00  0.00    +0.000 N 
ATOM      7  H   UNL     1       6.118   3.076  18.450  0.00  0.00    +0.000 HD
ENDROOT
BRANCH   3   8
ATOM      8  C   UNL     1       2.851   7.062  18.853  0.00  0.00    +0.000 A 
ATOM      9  C   UNL     1       2.695   7.942  17.775  0.00  0.00    +0.000 A 
ATOM     10  C   UNL     1       1.873   9.064  17.896  0.00  0.00    +0.000 A 
ATOM     11  C   UNL     1       1.200   9.308  19.094  0.00  0.00    +0.000 A 
ATOM     12  C   UNL     1       1.336   8.424  20.164  0.00  0.00    +0.000 A 
ATOM     13  C   UNL     1       2.158   7.303  20.044  0.00  0.00    +0.000 A 
ENDBRANCH   3   8
BRANCH   5  14
ATOM     14  C   UNL     1       6.114   4.746  16.386  0.00  0.00    +0.000 A 
ATOM     15  C   UNL     1       7.280   5.110  15.695  0.00  0.00    +0.000 A 
ATOM     16  C   UNL     1       7.411   4.840  14.332  0.00  0.00    +0.000 A 
ATOM     17  C   UNL     1       6.381   4.203  13.642  0.00  0.00    +0.000 A 
ATOM     18  C   UNL     1       5.222   3.824  14.316  0.00  0.00    +0.000 A 
ATOM     19  C   UNL     1       5.091   4.090  15.679  0.00  0.00    +0.000 A 
ENDBRANCH   5  14
BRANCH   1  20
ATOM     20  S   UNL     1       4.085   2.286  19.988  0.00  0.00    +0.000 S 
ATOM     21  H   UNL     1       4.765   2.559  21.110  0.00  0.00    +0.000 HD
ENDBRANCH   1  20
TORSDOF 3
ENDMDL
MODEL 8
REMARK VINA RESULT:      -7.2      1.450      6.010
REMARK  Name = 
REMARK  3 active torsions:
REMARK  status: ('A' for Active; 'I' for Inactive)
REMARK    1  A    between atoms: S_1  and  C_2
REMARK    2  A    between atoms: C_4  and  C_5
REMARK    3  A    between atoms: C_12  and  C_13
REMARK                            x       y       z     vdW  Elec       q    Type
REMARK                         _______ _______ _______ _____ _____    ______ ____
ROOT
ATOM      1  C   UNL     1       6.400   5.615  18.571  0.00  0.00    +0.000 C 
ATOM      2  N   UNL     1       5.355   5.073  19.104  0.00  0.00    +0.000 NA
ATOM      3  C   UNL     1       4.235   5.059  18.309  0.00  0.00    +0.000 C 
ATOM      4  C   UNL     1       4.208   5.530  17.054  0.00  0.00    +0.000 C 
ATOM      5  C   UNL     1       5.420   6.098  16.390  0.00  0.00    +0.000 C 
ATOM      6  N   UNL     1       6.502   6.167  17.335  0.00  0.00    +0.000 N 
ATOM      7  H   UNL     1       7.423   6.393  16.989  0.00  0.00    +0.000 HD
ENDROOT
BRANCH   3   8
ATOM      8  C   UNL     1       2.996   4.464  18.831  0.00  0.00    +0.000 A 
ATOM      9  C   UNL     1       2.588   4.727  20.145  0.00  0.00    +0.000 A 
ATOM     10  C   UNL     1       1.479   4.069  20.682  0.00  0.00    +0.000 A 
ATOM     11  C   UNL     1       0.771   3.150  19.907  0.00  0.00    +0.000 A 
ATOM     12  C   UNL     1       1.161   2.899  18.591  0.00  0.00    +0.000 A 
ATOM     13  C   UNL     1       2.269   3.555  18.054  0.00  0.00    +0.000 A 
ENDBRANCH   3   8
BRANCH   5  14
ATOM     14  C   UNL     1       5.831   5.288  15.174  0.00  0.00    +0.000 A 
ATOM     15  C   UNL     1       7.106   5.455  14.612  0.00  0.00    +0.000 A 
ATOM     16  C   UNL     1       7.473   4.753  13.463  0.00  0.00    +0.000 A 
ATOM     17  C   UNL     1       6.573   3.876  12.861  0.00  0.00    +0.000 A 
ATOM     18  C   UNL     1       5.308   3.689  13.414  0.00  0.00    +0.000 A 
ATOM     19  C   UNL     1       4.941   4.386  14.564  0.00  0.00    +0.000 A 
ENDBRANCH   5  14
BRANCH   1  20
ATOM     20  S   UNL     1       7.865   5.663  19.518  0.00  0.00    +0.000 S 
ATOM     21  H   UNL     1       7.637   4.489  20.122  0.00  0.00    +0.000 HD
ENDBRANCH   1  20
TORSDOF 3
ENDMDL
MODEL 9
REMARK VINA RESULT:      -7.2      3.258      6.742
REMARK  Name = 
REMARK  3 active torsions:
REMARK  status: ('A' for Active; 'I' for Inactive)
REMARK    1  A    between atoms: S_1  and  C_2
REMARK    2  A    between atoms: C_4  and  C_5
REMARK    3  A    between atoms: C_12  and  C_13
REMARK                            x       y       z     vdW  Elec       q    Type
REMARK                         _______ _______ _______ _____ _____    ______ ____
ROOT
ATOM      1  C   UNL     1       2.619   3.656  19.185  0.00  0.00    +0.000 C 
ATOM      2  N   UNL     1       1.978   4.775  19.263  0.00  0.00    +0.000 NA
ATOM      3  C   UNL     1       2.759   5.902  19.197  0.00  0.00    +0.000 C 
ATOM      4  C   UNL     1       4.089   5.877  19.025  0.00  0.00    +0.000 C 
ATOM      5  C   UNL     1       4.846   4.599  18.862  0.00  0.00    +0.000 C 
ATOM      6  N   UNL     1       3.960   3.483  19.054  0.00  0.00    +0.000 N 
ATOM      7  H   UNL     1       4.300   2.559  18.829  0.00  0.00    +0.000 HD
ENDROOT
BRANCH   3   8
ATOM      8  C   UNL     1       2.116   7.223  19.279  0.00  0.00    +0.000 A 
ATOM      9  C   UNL     1       2.120   8.078  18.170  0.00  0.00    +0.000 A 
ATOM     10  C   UNL     1       1.618   9.376  18.282  0.00  0.00    +0.000 A 
ATOM     11  C   UNL     1       1.107   9.823  19.501  0.00  0.00    +0.000 A 
ATOM     12  C   UNL     1       1.082   8.969  20.604  0.00  0.00    +0.000 A 
ATOM     13  C   UNL     1       1.585   7.672  20.493  0.00  0.00    +0.000 A 
ENDBRANCH   3   8
BRANCH   5  14
ATOM     14  C   UNL     1       5.521   4.511  17.506  0.00  0.00    +0.000 A 
ATOM     15  C   UNL     1       6.906   4.711  17.392  0.00  0.00    +0.000 A 
ATOM     16  C   UNL     1       7.527   4.683  16.142  0.00  0.00    +0.000 A 
ATOM     17  C   UNL     1       6.774   4.456  14.991  0.00  0.00    +0.000 A 
ATOM     18  C   UNL     1       5.400   4.244  15.088  0.00  0.00    +0.000 A 
ATOM     19  C   UNL     1       4.779   4.267  16.337  0.00  0.00    +0.000 A 
ENDBRANCH   5  14
BRANCH   1  20
ATOM     20  S   UNL     1       1.693   2.179  19.253  0.00  0.00    +0.000 S 
ATOM     21  H   UNL     1       2.058   1.885  20.509  0.00  0.00    +0.000 HD
ENDBRANCH   1  20
TORSDOF 3
ENDMDL
