MODEL 1
REMARK VINA RESULT:      -8.4      0.000      0.000
REMARK  Name = 
REMARK  10 active torsions:
REMARK  status: ('A' for Active; 'I' for Inactive)
REMARK    1  A    between atoms: C_1  and  C_2
REMARK    2  A    between atoms: C_6  and  O_7
REMARK    3  A    between atoms: O_7  and  C_8
REMARK    4  A    between atoms: C_11  and  C_12
REMARK    5  A    between atoms: N_14  and  C_15
REMARK    6  A    between atoms: C_17  and  C_18
REMARK    7  A    between atoms: C_17  and  C_19
REMARK    8  A    between atoms: C_21  and  C_22
REMARK    9  A    between atoms: C_21  and  C_23
REMARK   10  A    between atoms: C_28  and  C_29
REMARK                            x       y       z     vdW  Elec       q    Type
REMARK                         _______ _______ _______ _____ _____    ______ ____
ROOT
ATOM      1  C   UNL     1       0.497  10.881  21.284  0.00  0.00    +0.000 A 
ATOM      2  C   UNL     1       0.689  10.956  19.897  0.00  0.00    +0.000 A 
ATOM      3  C   UNL     1       1.238   9.881  19.200  0.00  0.00    +0.000 A 
ATOM      4  C   UNL     1       1.501   8.669  19.846  0.00  0.00    +0.000 A 
ATOM      5  C   UNL     1       1.185   8.540  21.207  0.00  0.00    +0.000 A 
ATOM      6  C   UNL     1       0.680   9.644  21.920  0.00  0.00    +0.000 A 
ATOM      7 CL   UNL     1       0.334   9.441  23.600  0.00  0.00    +0.000 Cl
ENDROOT
BRANCH   4   8
ATOM      8  C   UNL     1       2.168   7.599  19.045  0.00  0.00    +0.000 C 
ATOM      9  O   UNL     1       2.103   7.641  17.818  0.00  0.00    +0.000 OA
ATOM     10  N   UNL     1       2.806   6.595  19.733  0.00  0.00    +0.000 N 
ATOM     11  H   UNL     1       2.631   6.492  20.724  0.00  0.00    +0.000 HD
BRANCH  10  12
ATOM     12  C   UNL     1       3.419   5.464  19.026  0.00  0.00    +0.000 C 
ATOM     13  C   UNL     1       3.461   4.207  19.902  0.00  0.00    +0.000 C 
ATOM     14  C   UNL     1       4.148   3.018  19.192  0.00  0.00    +0.000 C 
ATOM     15  C   UNL     1       4.455   1.931  20.246  0.00  0.00    +0.000 C 
ATOM     16  C   UNL     1       3.217   2.365  18.154  0.00  0.00    +0.000 C 
ATOM     17  N   UNL     1       5.444   3.403  18.613  0.00  0.00    +0.000 NA
ATOM     18  C   UNL     1       5.542   4.663  17.862  0.00  0.00    +0.000 C 
ATOM     19  C   UNL     1       7.049   4.994  17.772  0.00  0.00    +0.000 C 
ATOM     20  C   UNL     1       5.035   4.530  16.414  0.00  0.00    +0.000 C 
ATOM     21  C   UNL     1       4.841   5.821  18.599  0.00  0.00    +0.000 C 
ATOM     22  H   UNL     1       5.841   2.631  18.076  0.00  0.00    +0.000 HD
ENDBRANCH  10  12
ENDBRANCH   4   8
BRANCH   1  23
ATOM     23  O   UNL     1       0.193  12.022  22.027  0.00  0.00    +0.000 OA
BRANCH  23  29
ATOM     24  C   UNL     1      -3.638  15.023  20.944  0.00  0.00    +0.000 C 
ATOM     25  C   UNL     1      -3.018  13.860  21.676  0.00  0.00    +0.000 A 
ATOM     26  C   UNL     1      -3.768  13.237  22.690  0.00  0.00    +0.000 A 
ATOM     27  C   UNL     1      -3.251  12.144  23.375  0.00  0.00    +0.000 A 
ATOM     28  C   UNL     1      -1.975  11.680  23.079  0.00  0.00    +0.000 A 
ATOM     29  C   UNL     1      -1.156  12.353  22.157  0.00  0.00    +0.000 A 
ATOM     30  C   UNL     1      -1.706  13.398  21.392  0.00  0.00    +0.000 A 
BRANCH  30  31
ATOM     31  C   UNL     1      -0.969  13.987  20.303  0.00  0.00    +0.000 C 
ATOM     32  N   UNL     1      -0.444  14.441  19.375  0.00  0.00    +0.000 NA
ENDBRANCH  30  31
ENDBRANCH  23  29
ENDBRANCH   1  23
TORSDOF 5
ENDMDL
MODEL 2
REMARK VINA RESULT:      -8.4      2.520     10.302
REMARK  Name = 
REMARK  10 active torsions:
REMARK  status: ('A' for Active; 'I' for Inactive)
REMARK    1  A    between atoms: C_1  and  C_2
REMARK    2  A    between atoms: C_6  and  O_7
REMARK    3  A    between atoms: O_7  and  C_8
REMARK    4  A    between atoms: C_11  and  C_12
REMARK    5  A    between atoms: N_14  and  C_15
REMARK    6  A    between atoms: C_17  and  C_18
REMARK    7  A    between atoms: C_17  and  C_19
REMARK    8  A    between atoms: C_21  and  C_22
REMARK    9  A    between atoms: C_21  and  C_23
REMARK   10  A    between atoms: C_28  and  C_29
REMARK                            x       y       z     vdW  Elec       q    Type
REMARK                         _______ _______ _______ _____ _____    ______ ____
ROOT
ATOM      1  C   UNL     1       1.679   8.031  20.093  0.00  0.00    +0.000 A 
ATOM      2  C   UNL     1       0.916   8.174  21.261  0.00  0.00    +0.000 A 
ATOM      3  C   UNL     1       0.080   9.277  21.429  0.00  0.00    +0.000 A 
ATOM      4  C   UNL     1      -0.101  10.199  20.394  0.00  0.00    +0.000 A 
ATOM      5  C   UNL     1       0.554   9.992  19.172  0.00  0.00    +0.000 A 
ATOM      6  C   UNL     1       1.440   8.906  19.024  0.00  0.00    +0.000 A 
ATOM      7 CL   UNL     1       2.244   8.711  17.508  0.00  0.00    +0.000 Cl
ENDROOT
BRANCH   4   8
ATOM      8  C   UNL     1      -0.946  11.397  20.688  0.00  0.00    +0.000 C 
ATOM      9  O   UNL     1      -1.285  12.132  19.762  0.00  0.00    +0.000 OA
ATOM     10  N   UNL     1      -1.282  11.631  22.000  0.00  0.00    +0.000 N 
ATOM     11  H   UNL     1      -0.791  11.130  22.729  0.00  0.00    +0.000 HD
BRANCH  10  12
ATOM     12  C   UNL     1      -2.042  12.826  22.386  0.00  0.00    +0.000 C 
ATOM     13  C   UNL     1      -1.349  13.596  23.516  0.00  0.00    +0.000 C 
ATOM     14  C   UNL     1      -2.160  14.831  23.968  0.00  0.00    +0.000 C 
ATOM     15  C   UNL     1      -1.580  15.330  25.312  0.00  0.00    +0.000 C 
ATOM     16  C   UNL     1      -2.016  15.997  22.974  0.00  0.00    +0.000 C 
ATOM     17  N   UNL     1      -3.567  14.494  24.232  0.00  0.00    +0.000 NA
ATOM     18  C   UNL     1      -4.288  13.648  23.271  0.00  0.00    +0.000 C 
ATOM     19  C   UNL     1      -5.540  13.126  24.012  0.00  0.00    +0.000 C 
ATOM     20  C   UNL     1      -4.798  14.438  22.052  0.00  0.00    +0.000 C 
ATOM     21  C   UNL     1      -3.445  12.431  22.840  0.00  0.00    +0.000 C 
ATOM     22  H   UNL     1      -4.104  15.336  24.445  0.00  0.00    +0.000 HD
ENDBRANCH  10  12
ENDBRANCH   4   8
BRANCH   1  23
ATOM     23  O   UNL     1       2.700   7.083  20.017  0.00  0.00    +0.000 OA
BRANCH  23  29
ATOM     24  C   UNL     1       2.588   3.064  17.068  0.00  0.00    +0.000 C 
ATOM     25  C   UNL     1       2.213   3.811  18.324  0.00  0.00    +0.000 A 
ATOM     26  C   UNL     1       1.265   3.229  19.184  0.00  0.00    +0.000 A 
ATOM     27  C   UNL     1       0.906   3.865  20.367  0.00  0.00    +0.000 A 
ATOM     28  C   UNL     1       1.464   5.097  20.689  0.00  0.00    +0.000 A 
ATOM     29  C   UNL     1       2.321   5.759  19.794  0.00  0.00    +0.000 A 
ATOM     30  C   UNL     1       2.763   5.080  18.644  0.00  0.00    +0.000 A 
BRANCH  30  31
ATOM     31  C   UNL     1       3.789   5.639  17.801  0.00  0.00    +0.000 C 
ATOM     32  N   UNL     1       4.668   6.084  17.191  0.00  0.00    +0.000 NA
ENDBRANCH  30  31
ENDBRANCH  23  29
ENDBRANCH   1  23
TORSDOF 5
ENDMDL
MODEL 3
REMARK VINA RESULT:      -8.3      2.321      3.435
REMARK  Name = 
REMARK  10 active torsions:
REMARK  status: ('A' for Active; 'I' for Inactive)
REMARK    1  A    between atoms: C_1  and  C_2
REMARK    2  A    between atoms: C_6  and  O_7
REMARK    3  A    between atoms: O_7  and  C_8
REMARK    4  A    between atoms: C_11  and  C_12
REMARK    5  A    between atoms: N_14  and  C_15
REMARK    6  A    between atoms: C_17  and  C_18
REMARK    7  A    between atoms: C_17  and  C_19
REMARK    8  A    between atoms: C_21  and  C_22
REMARK    9  A    between atoms: C_21  and  C_23
REMARK   10  A    between atoms: C_28  and  C_29
REMARK                            x       y       z     vdW  Elec       q    Type
REMARK                         _______ _______ _______ _____ _____    ______ ____
ROOT
ATOM      1  C   UNL     1      -0.772  11.044  21.187  0.00  0.00    +0.000 A 
ATOM      2  C   UNL     1      -0.227  10.219  22.181  0.00  0.00    +0.000 A 
ATOM      3  C   UNL     1       0.578   9.134  21.837  0.00  0.00    +0.000 A 
ATOM      4  C   UNL     1       0.950   8.914  20.508  0.00  0.00    +0.000 A 
ATOM      5  C   UNL     1       0.520   9.813  19.521  0.00  0.00    +0.000 A 
ATOM      6  C   UNL     1      -0.336  10.878  19.864  0.00  0.00    +0.000 A 
ATOM      7 CL   UNL     1      -0.860  11.941  18.607  0.00  0.00    +0.000 Cl
ENDROOT
BRANCH   4   8
ATOM      8  C   UNL     1       1.742   7.681  20.216  0.00  0.00    +0.000 C 
ATOM      9  O   UNL     1       1.830   6.808  21.078  0.00  0.00    +0.000 OA
ATOM     10  N   UNL     1       2.361   7.598  18.992  0.00  0.00    +0.000 N 
ATOM     11  H   UNL     1       2.441   8.432  18.425  0.00  0.00    +0.000 HD
BRANCH  10  12
ATOM     12  C   UNL     1       3.222   6.458  18.654  0.00  0.00    +0.000 C 
ATOM     13  C   UNL     1       4.079   6.744  17.416  0.00  0.00    +0.000 C 
ATOM     14  C   UNL     1       4.957   5.537  17.017  0.00  0.00    +0.000 C 
ATOM     15  C   UNL     1       5.506   5.783  15.593  0.00  0.00    +0.000 C 
ATOM     16  C   UNL     1       6.183   5.400  17.937  0.00  0.00    +0.000 C 
ATOM     17  N   UNL     1       4.174   4.294  16.942  0.00  0.00    +0.000 NA
ATOM     18  C   UNL     1       3.221   3.988  18.018  0.00  0.00    +0.000 C 
ATOM     19  C   UNL     1       2.275   2.901  17.459  0.00  0.00    +0.000 C 
ATOM     20  C   UNL     1       3.903   3.379  19.258  0.00  0.00    +0.000 C 
ATOM     21  C   UNL     1       2.370   5.217  18.392  0.00  0.00    +0.000 C 
ATOM     22  H   UNL     1       4.784   3.496  16.762  0.00  0.00    +0.000 HD
ENDBRANCH  10  12
ENDBRANCH   4   8
BRANCH   1  23
ATOM     23  O   UNL     1      -1.772  11.966  21.492  0.00  0.00    +0.000 OA
BRANCH  23  29
ATOM     24  C   UNL     1      -2.851  15.091  25.225  0.00  0.00    +0.000 C 
ATOM     25  C   UNL     1      -1.973  14.611  24.096  0.00  0.00    +0.000 A 
ATOM     26  C   UNL     1      -0.882  15.411  23.716  0.00  0.00    +0.000 A 
ATOM     27  C   UNL     1      -0.029  14.999  22.699  0.00  0.00    +0.000 A 
ATOM     28  C   UNL     1      -0.270  13.803  22.033  0.00  0.00    +0.000 A 
ATOM     29  C   UNL     1      -1.418  13.041  22.308  0.00  0.00    +0.000 A 
ATOM     30  C   UNL     1      -2.231  13.401  23.398  0.00  0.00    +0.000 A 
BRANCH  30  31
ATOM     31  C   UNL     1      -3.303  12.545  23.839  0.00  0.00    +0.000 C 
ATOM     32  N   UNL     1      -4.217  11.926  24.192  0.00  0.00    +0.000 NA
ENDBRANCH  30  31
ENDBRANCH  23  29
ENDBRANCH   1  23
TORSDOF 5
ENDMDL
MODEL 4
REMARK VINA RESULT:      -8.2      1.958      2.529
REMARK  Name = 
REMARK  10 active torsions:
REMARK  status: ('A' for Active; 'I' for Inactive)
REMARK    1  A    between atoms: C_1  and  C_2
REMARK    2  A    between atoms: C_6  and  O_7
REMARK    3  A    between atoms: O_7  and  C_8
REMARK    4  A    between atoms: C_11  and  C_12
REMARK    5  A    between atoms: N_14  and  C_15
REMARK    6  A    between atoms: C_17  and  C_18
REMARK    7  A    between atoms: C_17  and  C_19
REMARK    8  A    between atoms: C_21  and  C_22
REMARK    9  A    between atoms: C_21  and  C_23
REMARK   10  A    between atoms: C_28  and  C_29
REMARK                            x       y       z     vdW  Elec       q    Type
REMARK                         _______ _______ _______ _____ _____    ______ ____
ROOT
ATOM      1  C   UNL     1      -0.237  10.653  20.563  0.00  0.00    +0.000 A 
ATOM      2  C   UNL     1       0.546   9.732  21.274  0.00  0.00    +0.000 A 
ATOM      3  C   UNL     1       1.355   8.821  20.596  0.00  0.00    +0.000 A 
ATOM      4  C   UNL     1       1.490   8.881  19.206  0.00  0.00    +0.000 A 
ATOM      5  C   UNL     1       0.815   9.886  18.498  0.00  0.00    +0.000 A 
ATOM      6  C   UNL     1      -0.043  10.771  19.179  0.00  0.00    +0.000 A 
ATOM      7 CL   UNL     1      -0.873  11.973  18.257  0.00  0.00    +0.000 Cl
ENDROOT
BRANCH   4   8
ATOM      8  C   UNL     1       2.308   7.814  18.553  0.00  0.00    +0.000 C 
ATOM      9  O   UNL     1       2.613   7.935  17.368  0.00  0.00    +0.000 OA
ATOM     10  N   UNL     1       2.658   6.726  19.315  0.00  0.00    +0.000 N 
ATOM     11  H   UNL     1       2.192   6.576  20.200  0.00  0.00    +0.000 HD
BRANCH  10  12
ATOM     12  C   UNL     1       3.392   5.597  18.731  0.00  0.00    +0.000 C 
ATOM     13  C   UNL     1       3.353   4.365  19.642  0.00  0.00    +0.000 C 
ATOM     14  C   UNL     1       4.162   3.182  19.066  0.00  0.00    +0.000 C 
ATOM     15  C   UNL     1       4.356   2.133  20.185  0.00  0.00    +0.000 C 
ATOM     16  C   UNL     1       3.397   2.471  17.934  0.00  0.00    +0.000 C 
ATOM     17  N   UNL     1       5.512   3.593  18.654  0.00  0.00    +0.000 NA
ATOM     18  C   UNL     1       5.674   4.835  17.885  0.00  0.00    +0.000 C 
ATOM     19  C   UNL     1       7.170   5.212  17.986  0.00  0.00    +0.000 C 
ATOM     20  C   UNL     1       5.370   4.648  16.387  0.00  0.00    +0.000 C 
ATOM     21  C   UNL     1       4.848   5.988  18.487  0.00  0.00    +0.000 C 
ATOM     22  H   UNL     1       6.000   2.820  18.198  0.00  0.00    +0.000 HD
ENDBRANCH  10  12
ENDBRANCH   4   8
BRANCH   1  23
ATOM     23  O   UNL     1      -1.232  11.390  21.205  0.00  0.00    +0.000 OA
BRANCH  23  29
ATOM     24  C   UNL     1      -2.218  15.130  24.351  0.00  0.00    +0.000 C 
ATOM     25  C   UNL     1      -1.347  14.432  23.336  0.00  0.00    +0.000 A 
ATOM     26  C   UNL     1      -0.214  15.110  22.855  0.00  0.00    +0.000 A 
ATOM     27  C   UNL     1       0.634  14.500  21.939  0.00  0.00    +0.000 A 
ATOM     28  C   UNL     1       0.347  13.222  21.472  0.00  0.00    +0.000 A 
ATOM     29  C   UNL     1      -0.840  12.567  21.842  0.00  0.00    +0.000 A 
ATOM     30  C   UNL     1      -1.651  13.136  22.840  0.00  0.00    +0.000 A 
BRANCH  30  31
ATOM     31  C   UNL     1      -2.769  12.413  23.390  0.00  0.00    +0.000 C 
ATOM     32  N   UNL     1      -3.627  11.832  23.908  0.00  0.00    +0.000 NA
ENDBRANCH  30  31
ENDBRANCH  23  29
ENDBRANCH   1  23
TORSDOF 5
ENDMDL
MODEL 5
REMARK VINA RESULT:      -8.2      1.536      2.645
REMARK  Name = 
REMARK  10 active torsions:
REMARK  status: ('A' for Active; 'I' for Inactive)
REMARK    1  A    between atoms: C_1  and  C_2
REMARK    2  A    between atoms: C_6  and  O_7
REMARK    3  A    between atoms: O_7  and  C_8
REMARK    4  A    between atoms: C_11  and  C_12
REMARK    5  A    between atoms: N_14  and  C_15
REMARK    6  A    between atoms: C_17  and  C_18
REMARK    7  A    between atoms: C_17  and  C_19
REMARK    8  A    between atoms: C_21  and  C_22
REMARK    9  A    between atoms: C_21  and  C_23
REMARK   10  A    between atoms: C_28  and  C_29
REMARK                            x       y       z     vdW  Elec       q    Type
REMARK                         _______ _______ _______ _____ _____    ______ ____
ROOT
ATOM      1  C   UNL     1       0.234  10.901  20.547  0.00  0.00    +0.000 A 
ATOM      2  C   UNL     1       0.736  10.516  19.296  0.00  0.00    +0.000 A 
ATOM      3  C   UNL     1       1.338   9.269  19.129  0.00  0.00    +0.000 A 
ATOM      4  C   UNL     1       1.351   8.337  20.171  0.00  0.00    +0.000 A 
ATOM      5  C   UNL     1       0.730   8.663  21.386  0.00  0.00    +0.000 A 
ATOM      6  C   UNL     1       0.170   9.942  21.569  0.00  0.00    +0.000 A 
ATOM      7 CL   UNL     1      -0.557  10.304  23.093  0.00  0.00    +0.000 Cl
ENDROOT
BRANCH   4   8
ATOM      8  C   UNL     1       2.091   7.060  19.936  0.00  0.00    +0.000 C 
ATOM      9  O   UNL     1       1.978   6.144  20.748  0.00  0.00    +0.000 OA
ATOM     10  N   UNL     1       2.892   6.987  18.822  0.00  0.00    +0.000 N 
ATOM     11  H   UNL     1       3.121   7.837  18.325  0.00  0.00    +0.000 HD
BRANCH  10  12
ATOM     12  C   UNL     1       3.715   5.800  18.557  0.00  0.00    +0.000 C 
ATOM     13  C   UNL     1       4.535   5.956  17.273  0.00  0.00    +0.000 C 
ATOM     14  C   UNL     1       5.371   4.696  16.952  0.00  0.00    +0.000 C 
ATOM     15  C   UNL     1       5.877   4.803  15.495  0.00  0.00    +0.000 C 
ATOM     16  C   UNL     1       6.625   4.608  17.841  0.00  0.00    +0.000 C 
ATOM     17  N   UNL     1       4.558   3.472  17.012  0.00  0.00    +0.000 NA
ATOM     18  C   UNL     1       3.636   3.285  18.141  0.00  0.00    +0.000 C 
ATOM     19  C   UNL     1       2.647   2.178  17.710  0.00  0.00    +0.000 C 
ATOM     20  C   UNL     1       4.347   2.769  19.407  0.00  0.00    +0.000 C 
ATOM     21  C   UNL     1       2.827   4.563  18.433  0.00  0.00    +0.000 C 
ATOM     22  H   UNL     1       5.144   2.645  16.883  0.00  0.00    +0.000 HD
ENDBRANCH  10  12
ENDBRANCH   4   8
BRANCH   1  23
ATOM     23  O   UNL     1      -0.135  12.224  20.792  0.00  0.00    +0.000 OA
BRANCH  23  29
ATOM     24  C   UNL     1      -4.328  13.957  22.858  0.00  0.00    +0.000 C 
ATOM     25  C   UNL     1      -3.560  13.325  21.725  0.00  0.00    +0.000 A 
ATOM     26  C   UNL     1      -4.284  12.828  20.627  0.00  0.00    +0.000 A 
ATOM     27  C   UNL     1      -3.619  12.261  19.546  0.00  0.00    +0.000 A 
ATOM     28  C   UNL     1      -2.233  12.156  19.561  0.00  0.00    +0.000 A 
ATOM     29  C   UNL     1      -1.492  12.533  20.693  0.00  0.00    +0.000 A 
ATOM     30  C   UNL     1      -2.146  13.196  21.747  0.00  0.00    +0.000 A 
BRANCH  30  31
ATOM     31  C   UNL     1      -1.401  13.773  22.837  0.00  0.00    +0.000 C 
ATOM     32  N   UNL     1      -0.831  14.315  23.688  0.00  0.00    +0.000 NA
ENDBRANCH  30  31
ENDBRANCH  23  29
ENDBRANCH   1  23
TORSDOF 5
ENDMDL
MODEL 6
REMARK VINA RESULT:      -8.1      2.264     10.282
REMARK  Name = 
REMARK  10 active torsions:
REMARK  status: ('A' for Active; 'I' for Inactive)
REMARK    1  A    between atoms: C_1  and  C_2
REMARK    2  A    between atoms: C_6  and  O_7
REMARK    3  A    between atoms: O_7  and  C_8
REMARK    4  A    between atoms: C_11  and  C_12
REMARK    5  A    between atoms: N_14  and  C_15
REMARK    6  A    between atoms: C_17  and  C_18
REMARK    7  A    between atoms: C_17  and  C_19
REMARK    8  A    between atoms: C_21  and  C_22
REMARK    9  A    between atoms: C_21  and  C_23
REMARK   10  A    between atoms: C_28  and  C_29
REMARK                            x       y       z     vdW  Elec       q    Type
REMARK                         _______ _______ _______ _____ _____    ______ ____
ROOT
ATOM      1  C   UNL     1       2.159   7.233  20.007  0.00  0.00    +0.000 A 
ATOM      2  C   UNL     1       1.309   7.478  21.094  0.00  0.00    +0.000 A 
ATOM      3  C   UNL     1       0.553   8.649  21.150  0.00  0.00    +0.000 A 
ATOM      4  C   UNL     1       0.540   9.543  20.075  0.00  0.00    +0.000 A 
ATOM      5  C   UNL     1       1.284   9.239  18.926  0.00  0.00    +0.000 A 
ATOM      6  C   UNL     1       2.088   8.083  18.893  0.00  0.00    +0.000 A 
ATOM      7 CL   UNL     1       3.006   7.768  17.465  0.00  0.00    +0.000 Cl
ENDROOT
BRANCH   4   8
ATOM      8  C   UNL     1      -0.227  10.813  20.253  0.00  0.00    +0.000 C 
ATOM      9  O   UNL     1      -0.320  11.594  19.308  0.00  0.00    +0.000 OA
ATOM     10  N   UNL     1      -0.774  11.057  21.490  0.00  0.00    +0.000 N 
ATOM     11  H   UNL     1      -0.474  10.498  22.278  0.00  0.00    +0.000 HD
BRANCH  10  12
ATOM     12  C   UNL     1      -1.476  12.315  21.773  0.00  0.00    +0.000 C 
ATOM     13  C   UNL     1      -0.507  13.413  22.226  0.00  0.00    +0.000 C 
ATOM     14  C   UNL     1      -1.234  14.731  22.575  0.00  0.00    +0.000 C 
ATOM     15  C   UNL     1      -0.248  15.644  23.339  0.00  0.00    +0.000 C 
ATOM     16  C   UNL     1      -1.647  15.502  21.308  0.00  0.00    +0.000 C 
ATOM     17  N   UNL     1      -2.368  14.504  23.484  0.00  0.00    +0.000 NA
ATOM     18  C   UNL     1      -3.286  13.390  23.212  0.00  0.00    +0.000 C 
ATOM     19  C   UNL     1      -4.068  13.147  24.523  0.00  0.00    +0.000 C 
ATOM     20  C   UNL     1      -4.333  13.734  22.136  0.00  0.00    +0.000 C 
ATOM     21  C   UNL     1      -2.524  12.097  22.862  0.00  0.00    +0.000 C 
ATOM     22  H   UNL     1      -2.886  15.371  23.634  0.00  0.00    +0.000 HD
ENDBRANCH  10  12
ENDBRANCH   4   8
BRANCH   1  23
ATOM     23  O   UNL     1       3.102   6.206  20.054  0.00  0.00    +0.000 OA
BRANCH  23  29
ATOM     24  C   UNL     1       3.644   1.607  18.206  0.00  0.00    +0.000 C 
ATOM     25  C   UNL     1       2.865   2.667  18.944  0.00  0.00    +0.000 A 
ATOM     26  C   UNL     1       1.529   2.393  19.284  0.00  0.00    +0.000 A 
ATOM     27  C   UNL     1       0.777   3.327  19.988  0.00  0.00    +0.000 A 
ATOM     28  C   UNL     1       1.338   4.551  20.331  0.00  0.00    +0.000 A 
ATOM     29  C   UNL     1       2.629   4.902  19.901  0.00  0.00    +0.000 A 
ATOM     30  C   UNL     1       3.427   3.928  19.275  0.00  0.00    +0.000 A 
BRANCH  30  31
ATOM     31  C   UNL     1       4.818   4.178  18.993  0.00  0.00    +0.000 C 
ATOM     32  N   UNL     1       5.952   4.296  18.783  0.00  0.00    +0.000 NA
ENDBRANCH  30  31
ENDBRANCH  23  29
ENDBRANCH   1  23
TORSDOF 5
ENDMDL
MODEL 7
REMARK VINA RESULT:      -8.1      2.325      2.774
REMARK  Name = 
REMARK  10 active torsions:
REMARK  status: ('A' for Active; 'I' for Inactive)
REMARK    1  A    between atoms: C_1  and  C_2
REMARK    2  A    between atoms: C_6  and  O_7
REMARK    3  A    between atoms: O_7  and  C_8
REMARK    4  A    between atoms: C_11  and  C_12
REMARK    5  A    between atoms: N_14  and  C_15
REMARK    6  A    between atoms: C_17  and  C_18
REMARK    7  A    between atoms: C_17  and  C_19
REMARK    8  A    between atoms: C_21  and  C_22
REMARK    9  A    between atoms: C_21  and  C_23
REMARK   10  A    between atoms: C_28  and  C_29
REMARK                            x       y       z     vdW  Elec       q    Type
REMARK                         _______ _______ _______ _____ _____    ______ ____
ROOT
ATOM      1  C   UNL     1       0.085  11.216  19.734  0.00  0.00    +0.000 A 
ATOM      2  C   UNL     1       0.018   9.913  20.247  0.00  0.00    +0.000 A 
ATOM      3  C   UNL     1       0.812   8.900  19.710  0.00  0.00    +0.000 A 
ATOM      4  C   UNL     1       1.769   9.185  18.732  0.00  0.00    +0.000 A 
ATOM      5  C   UNL     1       1.937  10.512  18.308  0.00  0.00    +0.000 A 
ATOM      6  C   UNL     1       1.097  11.524  18.813  0.00  0.00    +0.000 A 
ATOM      7 CL   UNL     1       1.326  13.136  18.238  0.00  0.00    +0.000 Cl
ENDROOT
BRANCH   4   8
ATOM      8  C   UNL     1       2.516   8.029  18.151  0.00  0.00    +0.000 C 
ATOM      9  O   UNL     1       2.828   8.055  16.961  0.00  0.00    +0.000 OA
ATOM     10  N   UNL     1       2.796   6.971  18.981  0.00  0.00    +0.000 N 
ATOM     11  H   UNL     1       2.322   6.908  19.872  0.00  0.00    +0.000 HD
BRANCH  10  12
ATOM     12  C   UNL     1       3.456   5.762  18.473  0.00  0.00    +0.000 C 
ATOM     13  C   UNL     1       3.335   4.595  19.458  0.00  0.00    +0.000 C 
ATOM     14  C   UNL     1       4.066   3.328  18.961  0.00  0.00    +0.000 C 
ATOM     15  C   UNL     1       4.190   2.340  20.144  0.00  0.00    +0.000 C 
ATOM     16  C   UNL     1       3.258   2.600  17.871  0.00  0.00    +0.000 C 
ATOM     17  N   UNL     1       5.441   3.624  18.531  0.00  0.00    +0.000 NA
ATOM     18  C   UNL     1       5.685   4.803  17.688  0.00  0.00    +0.000 C 
ATOM     19  C   UNL     1       7.202   5.087  17.774  0.00  0.00    +0.000 C 
ATOM     20  C   UNL     1       5.372   4.543  16.203  0.00  0.00    +0.000 C 
ATOM     21  C   UNL     1       4.935   6.042  18.212  0.00  0.00    +0.000 C 
ATOM     22  H   UNL     1       5.878   2.794  18.127  0.00  0.00    +0.000 HD
ENDBRANCH  10  12
ENDBRANCH   4   8
BRANCH   1  23
ATOM     23  O   UNL     1      -0.872  12.170  20.079  0.00  0.00    +0.000 OA
BRANCH  23  29
ATOM     24  C   UNL     1      -5.842  12.565  20.109  0.00  0.00    +0.000 C 
ATOM     25  C   UNL     1      -4.531  12.253  19.433  0.00  0.00    +0.000 A 
ATOM     26  C   UNL     1      -4.566  11.675  18.152  0.00  0.00    +0.000 A 
ATOM     27  C   UNL     1      -3.384  11.393  17.476  0.00  0.00    +0.000 A 
ATOM     28  C   UNL     1      -2.160  11.656  18.080  0.00  0.00    +0.000 A 
ATOM     29  C   UNL     1      -2.092  12.120  19.404  0.00  0.00    +0.000 A 
ATOM     30  C   UNL     1      -3.279  12.498  20.056  0.00  0.00    +0.000 A 
BRANCH  30  31
ATOM     31  C   UNL     1      -3.244  13.159  21.336  0.00  0.00    +0.000 C 
ATOM     32  N   UNL     1      -3.275  13.634  22.392  0.00  0.00    +0.000 NA
ENDBRANCH  30  31
ENDBRANCH  23  29
ENDBRANCH   1  23
TORSDOF 5
ENDMDL
MODEL 8
REMARK VINA RESULT:      -8.1      2.228     10.310
REMARK  Name = 
REMARK  10 active torsions:
REMARK  status: ('A' for Active; 'I' for Inactive)
REMARK    1  A    between atoms: C_1  and  C_2
REMARK    2  A    between atoms: C_6  and  O_7
REMARK    3  A    between atoms: O_7  and  C_8
REMARK    4  A    between atoms: C_11  and  C_12
REMARK    5  A    between atoms: N_14  and  C_15
REMARK    6  A    between atoms: C_17  and  C_18
REMARK    7  A    between atoms: C_17  and  C_19
REMARK    8  A    between atoms: C_21  and  C_22
REMARK    9  A    between atoms: C_21  and  C_23
REMARK   10  A    between atoms: C_28  and  C_29
REMARK                            x       y       z     vdW  Elec       q    Type
REMARK                         _______ _______ _______ _____ _____    ______ ____
ROOT
ATOM      1  C   UNL     1       1.706   8.174  20.266  0.00  0.00    +0.000 A 
ATOM      2  C   UNL     1       1.274   8.145  21.600  0.00  0.00    +0.000 A 
ATOM      3  C   UNL     1       0.486   9.175  22.110  0.00  0.00    +0.000 A 
ATOM      4  C   UNL     1       0.016  10.195  21.278  0.00  0.00    +0.000 A 
ATOM      5  C   UNL     1       0.331  10.160  19.912  0.00  0.00    +0.000 A 
ATOM      6  C   UNL     1       1.172   9.148  19.409  0.00  0.00    +0.000 A 
ATOM      7 CL   UNL     1       1.553   9.166  17.724  0.00  0.00    +0.000 Cl
ENDROOT
BRANCH   4   8
ATOM      8  C   UNL     1      -0.750  11.304  21.923  0.00  0.00    +0.000 C 
ATOM      9  O   UNL     1      -0.480  11.624  23.080  0.00  0.00    +0.000 OA
ATOM     10  N   UNL     1      -1.747  11.899  21.189  0.00  0.00    +0.000 N 
ATOM     11  H   UNL     1      -2.070  11.447  20.343  0.00  0.00    +0.000 HD
BRANCH  10  12
ATOM     12  C   UNL     1      -2.600  12.941  21.773  0.00  0.00    +0.000 C 
ATOM     13  C   UNL     1      -3.470  12.390  22.907  0.00  0.00    +0.000 C 
ATOM     14  C   UNL     1      -4.409  13.463  23.502  0.00  0.00    +0.000 C 
ATOM     15  C   UNL     1      -5.471  12.754  24.373  0.00  0.00    +0.000 C 
ATOM     16  C   UNL     1      -3.651  14.422  24.438  0.00  0.00    +0.000 C 
ATOM     17  N   UNL     1      -5.153  14.179  22.455  0.00  0.00    +0.000 NA
ATOM     18  C   UNL     1      -4.434  14.637  21.258  0.00  0.00    +0.000 C 
ATOM     19  C   UNL     1      -5.515  14.938  20.195  0.00  0.00    +0.000 C 
ATOM     20  C   UNL     1      -3.672  15.955  21.493  0.00  0.00    +0.000 C 
ATOM     21  C   UNL     1      -3.504  13.542  20.699  0.00  0.00    +0.000 C 
ATOM     22  H   UNL     1      -5.702  14.939  22.860  0.00  0.00    +0.000 HD
ENDBRANCH  10  12
ENDBRANCH   4   8
BRANCH   1  23
ATOM     23  O   UNL     1       2.693   7.298  19.814  0.00  0.00    +0.000 OA
BRANCH  23  29
ATOM     24  C   UNL     1       2.552   3.121  17.096  0.00  0.00    +0.000 C 
ATOM     25  C   UNL     1       2.213   3.928  18.324  0.00  0.00    +0.000 A 
ATOM     26  C   UNL     1       1.317   3.374  19.256  0.00  0.00    +0.000 A 
ATOM     27  C   UNL     1       0.994   4.066  20.417  0.00  0.00    +0.000 A 
ATOM     28  C   UNL     1       1.535   5.326  20.647  0.00  0.00    +0.000 A 
ATOM     29  C   UNL     1       2.337   5.956  19.680  0.00  0.00    +0.000 A 
ATOM     30  C   UNL     1       2.745   5.224  18.551  0.00  0.00    +0.000 A 
BRANCH  30  31
ATOM     31  C   UNL     1       3.721   5.758  17.634  0.00  0.00    +0.000 C 
ATOM     32  N   UNL     1       4.557   6.200  16.965  0.00  0.00    +0.000 NA
ENDBRANCH  30  31
ENDBRANCH  23  29
ENDBRANCH   1  23
TORSDOF 5
ENDMDL
MODEL 9
REMARK VINA RESULT:      -8.0      2.367     10.298
REMARK  Name = 
REMARK  10 active torsions:
REMARK  status: ('A' for Active; 'I' for Inactive)
REMARK    1  A    between atoms: C_1  and  C_2
REMARK    2  A    between atoms: C_6  and  O_7
REMARK    3  A    between atoms: O_7  and  C_8
REMARK    4  A    between atoms: C_11  and  C_12
REMARK    5  A    between atoms: N_14  and  C_15
REMARK    6  A    between atoms: C_17  and  C_18
REMARK    7  A    between atoms: C_17  and  C_19
REMARK    8  A    between atoms: C_21  and  C_22
REMARK    9  A    between atoms: C_21  and  C_23
REMARK   10  A    between atoms: C_28  and  C_29
REMARK                            x       y       z     vdW  Elec       q    Type
REMARK                         _______ _______ _______ _____ _____    ______ ____
ROOT
ATOM      1  C   UNL     1       2.096   7.519  19.931  0.00  0.00    +0.000 A 
ATOM      2  C   UNL     1       1.238   7.530  21.041  0.00  0.00    +0.000 A 
ATOM      3  C   UNL     1       0.329   8.572  21.221  0.00  0.00    +0.000 A 
ATOM      4  C   UNL     1       0.174   9.561  20.245  0.00  0.00    +0.000 A 
ATOM      5  C   UNL     1       0.933   9.484  19.068  0.00  0.00    +0.000 A 
ATOM      6  C   UNL     1       1.888   8.460  18.913  0.00  0.00    +0.000 A 
ATOM      7 CL   UNL     1       2.816   8.425  17.456  0.00  0.00    +0.000 Cl
ENDROOT
BRANCH   4   8
ATOM      8  C   UNL     1      -0.759  10.687  20.556  0.00  0.00    +0.000 C 
ATOM      9  O   UNL     1      -1.450  11.157  19.655  0.00  0.00    +0.000 OA
ATOM     10  N   UNL     1      -0.774  11.161  21.846  0.00  0.00    +0.000 N 
ATOM     11  H   UNL     1      -0.030  10.892  22.476  0.00  0.00    +0.000 HD
BRANCH  10  12
ATOM     12  C   UNL     1      -1.602  12.314  22.219  0.00  0.00    +0.000 C 
ATOM     13  C   UNL     1      -0.766  13.426  22.862  0.00  0.00    +0.000 C 
ATOM     14  C   UNL     1      -1.628  14.629  23.305  0.00  0.00    +0.000 C 
ATOM     15  C   UNL     1      -0.777  15.523  24.236  0.00  0.00    +0.000 C 
ATOM     16  C   UNL     1      -2.030  15.509  22.108  0.00  0.00    +0.000 C 
ATOM     17  N   UNL     1      -2.791  14.203  24.099  0.00  0.00    +0.000 NA
ATOM     18  C   UNL     1      -3.587  13.058  23.638  0.00  0.00    +0.000 C 
ATOM     19  C   UNL     1      -4.422  12.596  24.853  0.00  0.00    +0.000 C 
ATOM     20  C   UNL     1      -4.592  13.440  22.536  0.00  0.00    +0.000 C 
ATOM     21  C   UNL     1      -2.692  11.882  23.199  0.00  0.00    +0.000 C 
ATOM     22  H   UNL     1      -3.393  15.001  24.310  0.00  0.00    +0.000 HD
ENDBRANCH  10  12
ENDBRANCH   4   8
BRANCH   1  23
ATOM     23  O   UNL     1       3.172   6.634  19.869  0.00  0.00    +0.000 OA
BRANCH  23  29
ATOM     24  C   UNL     1       4.837   3.664  16.227  0.00  0.00    +0.000 C 
ATOM     25  C   UNL     1       3.803   4.082  17.242  0.00  0.00    +0.000 A 
ATOM     26  C   UNL     1       2.551   3.442  17.218  0.00  0.00    +0.000 A 
ATOM     27  C   UNL     1       1.575   3.772  18.150  0.00  0.00    +0.000 A 
ATOM     28  C   UNL     1       1.824   4.762  19.094  0.00  0.00    +0.000 A 
ATOM     29  C   UNL     1       3.018   5.501  19.069  0.00  0.00    +0.000 A 
ATOM     30  C   UNL     1       4.046   5.108  18.193  0.00  0.00    +0.000 A 
BRANCH  30  31
ATOM     31  C   UNL     1       5.353   5.708  18.267  0.00  0.00    +0.000 C 
ATOM     32  N   UNL     1       6.375   6.255  18.274  0.00  0.00    +0.000 NA
ENDBRANCH  30  31
ENDBRANCH  23  29
ENDBRANCH   1  23
TORSDOF 5
ENDMDL
