MODEL 1
REMARK VINA RESULT:      -7.9      0.000      0.000
REMARK  Name = 
REMARK  5 active torsions:
REMARK  status: ('A' for Active; 'I' for Inactive)
REMARK    1  A    between atoms: C_2  and  C_13
REMARK    2  A    between atoms: N_3  and  C_4
REMARK    3  A    between atoms: C_4  and  C_5
REMARK    4  A    between atoms: N_17  and  C_18
REMARK    5  A    between atoms: C_18  and  C_19
REMARK                            x       y       z     vdW  Elec       q    Type
REMARK                         _______ _______ _______ _____ _____    ______ ____
ROOT
ATOM      1  O   UNL     1       5.169   3.813  16.198  0.00  0.00    +0.000 OA
ATOM      2  C   UNL     1       5.519   4.285  17.275  0.00  0.00    +0.000 C 
ATOM      3  N   UNL     1       5.248   3.648  18.470  0.00  0.00    +0.000 N 
ATOM      4  H   UNL     1       5.593   4.056  19.324  0.00  0.00    +0.000 HD
ENDROOT
BRANCH   2   5
ATOM      5  C   UNL     1       6.240   5.545  17.423  0.00  0.00    +0.000 A 
ATOM      6  C   UNL     1       7.481   5.744  18.026  0.00  0.00    +0.000 A 
ATOM      7  C   UNL     1       7.819   7.110  17.952  0.00  0.00    +0.000 A 
ATOM      8  C   UNL     1       6.775   7.742  17.326  0.00  0.00    +0.000 A 
ATOM      9  N   UNL     1       5.800   6.807  17.038  0.00  0.00    +0.000 N 
BRANCH   9  10
ATOM     10  C   UNL     1       4.473   7.195  16.559  0.00  0.00    +0.000 C 
BRANCH  10  11
ATOM     11  C   UNL     1       3.461   7.419  17.659  0.00  0.00    +0.000 A 
ATOM     12  C   UNL     1       3.349   6.494  18.708  0.00  0.00    +0.000 A 
ATOM     13  C   UNL     1       2.495   6.740  19.785  0.00  0.00    +0.000 A 
ATOM     14  C   UNL     1       1.735   7.907  19.826  0.00  0.00    +0.000 A 
ATOM     15  C   UNL     1       1.817   8.825  18.780  0.00  0.00    +0.000 A 
ATOM     16  C   UNL     1       2.673   8.582  17.703  0.00  0.00    +0.000 A 
ENDBRANCH  10  11
ENDBRANCH   9  10
ENDBRANCH   2   5
BRANCH   3  17
ATOM     17  C   UNL     1       4.402   2.477  18.559  0.00  0.00    +0.000 C 
BRANCH  17  18
ATOM     18  C   UNL     1       3.234   2.668  19.494  0.00  0.00    +0.000 A 
ATOM     19  C   UNL     1       3.372   2.325  20.845  0.00  0.00    +0.000 A 
ATOM     20  F   UNL     1       4.538   1.834  21.293  0.00  0.00    +0.000 F 
ATOM     21  C   UNL     1       2.327   2.465  21.759  0.00  0.00    +0.000 A 
ATOM     22  C   UNL     1       1.098   2.958  21.337  0.00  0.00    +0.000 A 
ATOM     23  C   UNL     1       0.925   3.300  19.996  0.00  0.00    +0.000 A 
ATOM     24  C   UNL     1       1.979   3.150  19.081  0.00  0.00    +0.000 A 
ATOM     25 CL   UNL     1       1.664   3.581  17.438  0.00  0.00    +0.000 Cl
ENDBRANCH  17  18
ENDBRANCH   3  17
TORSDOF 5
ENDMDL
MODEL 2
REMARK VINA RESULT:      -7.8      0.246      1.013
REMARK  Name = 
REMARK  5 active torsions:
REMARK  status: ('A' for Active; 'I' for Inactive)
REMARK    1  A    between atoms: C_2  and  C_13
REMARK    2  A    between atoms: N_3  and  C_4
REMARK    3  A    between atoms: C_4  and  C_5
REMARK    4  A    between atoms: N_17  and  C_18
REMARK    5  A    between atoms: C_18  and  C_19
REMARK                            x       y       z     vdW  Elec       q    Type
REMARK                         _______ _______ _______ _____ _____    ______ ____
ROOT
ATOM      1  O   UNL     1       5.874   3.639  16.303  0.00  0.00    +0.000 OA
ATOM      2  C   UNL     1       5.800   4.341  17.307  0.00  0.00    +0.000 C 
ATOM      3  N   UNL     1       5.129   3.923  18.439  0.00  0.00    +0.000 N 
ATOM      4  H   UNL     1       5.133   4.519  19.252  0.00  0.00    +0.000 HD
ENDROOT
BRANCH   2   5
ATOM      5  C   UNL     1       6.390   5.671  17.423  0.00  0.00    +0.000 A 
ATOM      6  C   UNL     1       7.624   6.003  17.982  0.00  0.00    +0.000 A 
ATOM      7  C   UNL     1       7.815   7.396  17.888  0.00  0.00    +0.000 A 
ATOM      8  C   UNL     1       6.691   7.911  17.295  0.00  0.00    +0.000 A 
ATOM      9  N   UNL     1       5.809   6.877  17.046  0.00  0.00    +0.000 N 
BRANCH   9  10
ATOM     10  C   UNL     1       4.434   7.121  16.611  0.00  0.00    +0.000 C 
BRANCH  10  11
ATOM     11  C   UNL     1       3.487   7.484  17.731  0.00  0.00    +0.000 A 
ATOM     12  C   UNL     1       2.713   8.651  17.643  0.00  0.00    +0.000 A 
ATOM     13  C   UNL     1       1.757   8.945  18.619  0.00  0.00    +0.000 A 
ATOM     14  C   UNL     1       1.569   8.085  19.698  0.00  0.00    +0.000 A 
ATOM     15  C   UNL     1       2.347   6.934  19.812  0.00  0.00    +0.000 A 
ATOM     16  C   UNL     1       3.301   6.636  18.835  0.00  0.00    +0.000 A 
ENDBRANCH  10  11
ENDBRANCH   9  10
ENDBRANCH   2   5
BRANCH   3  17
ATOM     17  C   UNL     1       4.335   2.713  18.476  0.00  0.00    +0.000 C 
BRANCH  17  18
ATOM     18  C   UNL     1       3.180   2.802  19.443  0.00  0.00    +0.000 A 
ATOM     19  C   UNL     1       3.352   2.362  20.761  0.00  0.00    +0.000 A 
ATOM     20  F   UNL     1       4.538   1.870  21.151  0.00  0.00    +0.000 F 
ATOM     21  C   UNL     1       2.321   2.405  21.700  0.00  0.00    +0.000 A 
ATOM     22  C   UNL     1       1.072   2.894  21.338  0.00  0.00    +0.000 A 
ATOM     23  C   UNL     1       0.865   3.331  20.030  0.00  0.00    +0.000 A 
ATOM     24  C   UNL     1       1.906   3.280  19.089  0.00  0.00    +0.000 A 
ATOM     25 CL   UNL     1       1.549   3.824  17.489  0.00  0.00    +0.000 Cl
ENDBRANCH  17  18
ENDBRANCH   3  17
TORSDOF 5
ENDMDL
MODEL 3
REMARK VINA RESULT:      -7.7      2.055      5.196
REMARK  Name = 
REMARK  5 active torsions:
REMARK  status: ('A' for Active; 'I' for Inactive)
REMARK    1  A    between atoms: C_2  and  C_13
REMARK    2  A    between atoms: N_3  and  C_4
REMARK    3  A    between atoms: C_4  and  C_5
REMARK    4  A    between atoms: N_17  and  C_18
REMARK    5  A    between atoms: C_18  and  C_19
REMARK                            x       y       z     vdW  Elec       q    Type
REMARK                         _______ _______ _______ _____ _____    ______ ____
ROOT
ATOM      1  O   UNL     1       5.202   2.481  20.028  0.00  0.00    +0.000 OA
ATOM      2  C   UNL     1       4.490   3.141  19.277  0.00  0.00    +0.000 C 
ATOM      3  N   UNL     1       5.017   3.855  18.219  0.00  0.00    +0.000 N 
ATOM      4  H   UNL     1       4.385   4.347  17.606  0.00  0.00    +0.000 HD
ENDROOT
BRANCH   2   5
ATOM      5  C   UNL     1       3.042   3.254  19.409  0.00  0.00    +0.000 A 
ATOM      6  C   UNL     1       2.076   2.376  18.919  0.00  0.00    +0.000 A 
ATOM      7  C   UNL     1       0.797   2.851  19.271  0.00  0.00    +0.000 A 
ATOM      8  C   UNL     1       0.984   4.026  19.952  0.00  0.00    +0.000 A 
ATOM      9  N   UNL     1       2.338   4.295  20.007  0.00  0.00    +0.000 N 
BRANCH   9  10
ATOM     10  C   UNL     1       2.854   5.578  20.484  0.00  0.00    +0.000 C 
BRANCH  10  11
ATOM     11  C   UNL     1       2.497   6.753  19.603  0.00  0.00    +0.000 A 
ATOM     12  C   UNL     1       1.728   7.807  20.119  0.00  0.00    +0.000 A 
ATOM     13  C   UNL     1       1.479   8.948  19.351  0.00  0.00    +0.000 A 
ATOM     14  C   UNL     1       1.986   9.047  18.057  0.00  0.00    +0.000 A 
ATOM     15  C   UNL     1       2.732   7.998  17.522  0.00  0.00    +0.000 A 
ATOM     16  C   UNL     1       2.984   6.857  18.290  0.00  0.00    +0.000 A 
ENDBRANCH  10  11
ENDBRANCH   9  10
ENDBRANCH   2   5
BRANCH   3  17
ATOM     17  C   UNL     1       6.440   4.012  18.010  0.00  0.00    +0.000 C 
BRANCH  17  18
ATOM     18  C   UNL     1       6.853   5.455  17.853  0.00  0.00    +0.000 A 
ATOM     19  C   UNL     1       7.739   6.020  18.779  0.00  0.00    +0.000 A 
ATOM     20  F   UNL     1       8.213   5.276  19.790  0.00  0.00    +0.000 F 
ATOM     21  C   UNL     1       8.151   7.351  18.697  0.00  0.00    +0.000 A 
ATOM     22  C   UNL     1       7.676   8.163  17.674  0.00  0.00    +0.000 A 
ATOM     23  C   UNL     1       6.785   7.632  16.742  0.00  0.00    +0.000 A 
ATOM     24  C   UNL     1       6.371   6.294  16.834  0.00  0.00    +0.000 A 
ATOM     25 CL   UNL     1       5.249   5.733  15.646  0.00  0.00    +0.000 Cl
ENDBRANCH  17  18
ENDBRANCH   3  17
TORSDOF 5
ENDMDL
MODEL 4
REMARK VINA RESULT:      -7.7      2.085      5.191
REMARK  Name = 
REMARK  5 active torsions:
REMARK  status: ('A' for Active; 'I' for Inactive)
REMARK    1  A    between atoms: C_2  and  C_13
REMARK    2  A    between atoms: N_3  and  C_4
REMARK    3  A    between atoms: C_4  and  C_5
REMARK    4  A    between atoms: N_17  and  C_18
REMARK    5  A    between atoms: C_18  and  C_19
REMARK                            x       y       z     vdW  Elec       q    Type
REMARK                         _______ _______ _______ _____ _____    ______ ____
ROOT
ATOM      1  O   UNL     1       5.198   2.558  19.954  0.00  0.00    +0.000 OA
ATOM      2  C   UNL     1       4.522   3.187  19.145  0.00  0.00    +0.000 C 
ATOM      3  N   UNL     1       5.101   3.898  18.113  0.00  0.00    +0.000 N 
ATOM      4  H   UNL     1       4.501   4.363  17.450  0.00  0.00    +0.000 HD
ENDROOT
BRANCH   2   5
ATOM      5  C   UNL     1       3.066   3.264  19.177  0.00  0.00    +0.000 A 
ATOM      6  C   UNL     1       2.160   2.445  18.504  0.00  0.00    +0.000 A 
ATOM      7  C   UNL     1       0.847   2.854  18.811  0.00  0.00    +0.000 A 
ATOM      8  C   UNL     1       0.955   3.933  19.651  0.00  0.00    +0.000 A 
ATOM      9  N   UNL     1       2.295   4.209  19.846  0.00  0.00    +0.000 N 
BRANCH   9  10
ATOM     10  C   UNL     1       2.744   5.426  20.523  0.00  0.00    +0.000 C 
BRANCH  10  11
ATOM     11  C   UNL     1       2.501   6.695  19.739  0.00  0.00    +0.000 A 
ATOM     12  C   UNL     1       3.023   6.829  18.444  0.00  0.00    +0.000 A 
ATOM     13  C   UNL     1       2.718   7.949  17.667  0.00  0.00    +0.000 A 
ATOM     14  C   UNL     1       1.897   8.953  18.175  0.00  0.00    +0.000 A 
ATOM     15  C   UNL     1       1.389   8.845  19.469  0.00  0.00    +0.000 A 
ATOM     16  C   UNL     1       1.691   7.724  20.246  0.00  0.00    +0.000 A 
ENDBRANCH  10  11
ENDBRANCH   9  10
ENDBRANCH   2   5
BRANCH   3  17
ATOM     17  C   UNL     1       6.531   4.089  17.999  0.00  0.00    +0.000 C 
BRANCH  17  18
ATOM     18  C   UNL     1       6.919   5.542  17.868  0.00  0.00    +0.000 A 
ATOM     19  C   UNL     1       7.844   6.089  18.765  0.00  0.00    +0.000 A 
ATOM     20  F   UNL     1       8.376   5.320  19.727  0.00  0.00    +0.000 F 
ATOM     21  C   UNL     1       8.235   7.428  18.706  0.00  0.00    +0.000 A 
ATOM     22  C   UNL     1       7.700   8.265  17.735  0.00  0.00    +0.000 A 
ATOM     23  C   UNL     1       6.769   7.752  16.831  0.00  0.00    +0.000 A 
ATOM     24  C   UNL     1       6.376   6.406  16.901  0.00  0.00    +0.000 A 
ATOM     25 CL   UNL     1       5.203   5.868  15.753  0.00  0.00    +0.000 Cl
ENDBRANCH  17  18
ENDBRANCH   3  17
TORSDOF 5
ENDMDL
MODEL 5
REMARK VINA RESULT:      -7.7      1.942      2.481
REMARK  Name = 
REMARK  5 active torsions:
REMARK  status: ('A' for Active; 'I' for Inactive)
REMARK    1  A    between atoms: C_2  and  C_13
REMARK    2  A    between atoms: N_3  and  C_4
REMARK    3  A    between atoms: C_4  and  C_5
REMARK    4  A    between atoms: N_17  and  C_18
REMARK    5  A    between atoms: C_18  and  C_19
REMARK                            x       y       z     vdW  Elec       q    Type
REMARK                         _______ _______ _______ _____ _____    ______ ____
ROOT
ATOM      1  O   UNL     1       2.869   3.671  16.427  0.00  0.00    +0.000 OA
ATOM      2  C   UNL     1       4.010   3.341  16.736  0.00  0.00    +0.000 C 
ATOM      3  N   UNL     1       4.259   2.228  17.514  0.00  0.00    +0.000 N 
ATOM      4  H   UNL     1       5.217   1.975  17.704  0.00  0.00    +0.000 HD
ENDROOT
BRANCH   2   5
ATOM      5  C   UNL     1       5.211   4.067  16.334  0.00  0.00    +0.000 A 
ATOM      6  C   UNL     1       5.998   3.842  15.206  0.00  0.00    +0.000 A 
ATOM      7  C   UNL     1       7.060   4.767  15.189  0.00  0.00    +0.000 A 
ATOM      8  C   UNL     1       6.932   5.538  16.316  0.00  0.00    +0.000 A 
ATOM      9  N   UNL     1       5.837   5.094  17.032  0.00  0.00    +0.000 N 
BRANCH   9  10
ATOM     10  C   UNL     1       5.553   5.571  18.386  0.00  0.00    +0.000 C 
BRANCH  10  11
ATOM     11  C   UNL     1       4.242   6.311  18.518  0.00  0.00    +0.000 A 
ATOM     12  C   UNL     1       3.385   6.033  19.594  0.00  0.00    +0.000 A 
ATOM     13  C   UNL     1       2.222   6.782  19.788  0.00  0.00    +0.000 A 
ATOM     14  C   UNL     1       1.895   7.811  18.908  0.00  0.00    +0.000 A 
ATOM     15  C   UNL     1       2.724   8.084  17.821  0.00  0.00    +0.000 A 
ATOM     16  C   UNL     1       3.889   7.338  17.627  0.00  0.00    +0.000 A 
ENDBRANCH  10  11
ENDBRANCH   9  10
ENDBRANCH   2   5
BRANCH   3  17
ATOM     17  C   UNL     1       3.207   1.468  18.153  0.00  0.00    +0.000 C 
BRANCH  17  18
ATOM     18  C   UNL     1       2.629   2.168  19.358  0.00  0.00    +0.000 A 
ATOM     19  C   UNL     1       1.331   2.690  19.292  0.00  0.00    +0.000 A 
ATOM     20  F   UNL     1       0.616   2.561  18.164  0.00  0.00    +0.000 F 
ATOM     21  C   UNL     1       0.742   3.359  20.366  0.00  0.00    +0.000 A 
ATOM     22  C   UNL     1       1.450   3.528  21.550  0.00  0.00    +0.000 A 
ATOM     23  C   UNL     1       2.748   3.027  21.645  0.00  0.00    +0.000 A 
ATOM     24  C   UNL     1       3.335   2.360  20.558  0.00  0.00    +0.000 A 
ATOM     25 CL   UNL     1       4.954   1.795  20.763  0.00  0.00    +0.000 Cl
ENDBRANCH  17  18
ENDBRANCH   3  17
TORSDOF 5
ENDMDL
MODEL 6
REMARK VINA RESULT:      -7.5      3.792      5.677
REMARK  Name = 
REMARK  5 active torsions:
REMARK  status: ('A' for Active; 'I' for Inactive)
REMARK    1  A    between atoms: C_2  and  C_13
REMARK    2  A    between atoms: N_3  and  C_4
REMARK    3  A    between atoms: C_4  and  C_5
REMARK    4  A    between atoms: N_17  and  C_18
REMARK    5  A    between atoms: C_18  and  C_19
REMARK                            x       y       z     vdW  Elec       q    Type
REMARK                         _______ _______ _______ _____ _____    ______ ____
ROOT
ATOM      1  O   UNL     1       2.099   8.864  17.542  0.00  0.00    +0.000 OA
ATOM      2  C   UNL     1       2.020   8.314  18.637  0.00  0.00    +0.000 C 
ATOM      3  N   UNL     1       2.604   7.086  18.877  0.00  0.00    +0.000 N 
ATOM      4  H   UNL     1       2.546   6.697  19.805  0.00  0.00    +0.000 HD
ENDROOT
BRANCH   2   5
ATOM      5  C   UNL     1       1.313   8.872  19.785  0.00  0.00    +0.000 A 
ATOM      6  C   UNL     1       1.149   8.290  21.042  0.00  0.00    +0.000 A 
ATOM      7  C   UNL     1       0.409   9.162  21.864  0.00  0.00    +0.000 A 
ATOM      8  C   UNL     1       0.105  10.261  21.102  0.00  0.00    +0.000 A 
ATOM      9  N   UNL     1       0.617  10.075  19.833  0.00  0.00    +0.000 N 
BRANCH   9  10
ATOM     10  C   UNL     1       0.285  10.971  18.724  0.00  0.00    +0.000 C 
BRANCH  10  11
ATOM     11  C   UNL     1      -1.158  10.896  18.281  0.00  0.00    +0.000 A 
ATOM     12  C   UNL     1      -1.568   9.885  17.399  0.00  0.00    +0.000 A 
ATOM     13  C   UNL     1      -2.916   9.738  17.064  0.00  0.00    +0.000 A 
ATOM     14  C   UNL     1      -3.870  10.603  17.596  0.00  0.00    +0.000 A 
ATOM     15  C   UNL     1      -3.475  11.628  18.454  0.00  0.00    +0.000 A 
ATOM     16  C   UNL     1      -2.127  11.775  18.793  0.00  0.00    +0.000 A 
ENDBRANCH  10  11
ENDBRANCH   9  10
ENDBRANCH   2   5
BRANCH   3  17
ATOM     17  C   UNL     1       3.207   6.288  17.832  0.00  0.00    +0.000 C 
BRANCH  17  18
ATOM     18  C   UNL     1       3.193   4.811  18.142  0.00  0.00    +0.000 A 
ATOM     19  C   UNL     1       2.067   4.049  17.805  0.00  0.00    +0.000 A 
ATOM     20  F   UNL     1       1.017   4.637  17.210  0.00  0.00    +0.000 F 
ATOM     21  C   UNL     1       1.985   2.683  18.075  0.00  0.00    +0.000 A 
ATOM     22  C   UNL     1       3.043   2.035  18.702  0.00  0.00    +0.000 A 
ATOM     23  C   UNL     1       4.175   2.767  19.058  0.00  0.00    +0.000 A 
ATOM     24  C   UNL     1       4.247   4.143  18.788  0.00  0.00    +0.000 A 
ATOM     25 CL   UNL     1       5.680   4.969  19.286  0.00  0.00    +0.000 Cl
ENDBRANCH  17  18
ENDBRANCH   3  17
TORSDOF 5
ENDMDL
MODEL 7
REMARK VINA RESULT:      -7.4      1.493      1.785
REMARK  Name = 
REMARK  5 active torsions:
REMARK  status: ('A' for Active; 'I' for Inactive)
REMARK    1  A    between atoms: C_2  and  C_13
REMARK    2  A    between atoms: N_3  and  C_4
REMARK    3  A    between atoms: C_4  and  C_5
REMARK    4  A    between atoms: N_17  and  C_18
REMARK    5  A    between atoms: C_18  and  C_19
REMARK                            x       y       z     vdW  Elec       q    Type
REMARK                         _______ _______ _______ _____ _____    ______ ____
ROOT
ATOM      1  O   UNL     1       5.303   3.800  15.906  0.00  0.00    +0.000 OA
ATOM      2  C   UNL     1       5.508   4.282  17.016  0.00  0.00    +0.000 C 
ATOM      3  N   UNL     1       5.035   3.684  18.167  0.00  0.00    +0.000 N 
ATOM      4  H   UNL     1       5.266   4.098  19.057  0.00  0.00    +0.000 HD
ENDROOT
BRANCH   2   5
ATOM      5  C   UNL     1       6.250   5.517  17.249  0.00  0.00    +0.000 A 
ATOM      6  C   UNL     1       7.497   5.653  17.859  0.00  0.00    +0.000 A 
ATOM      7  C   UNL     1       7.857   7.015  17.879  0.00  0.00    +0.000 A 
ATOM      8  C   UNL     1       6.822   7.707  17.304  0.00  0.00    +0.000 A 
ATOM      9  N   UNL     1       5.831   6.810  16.955  0.00  0.00    +0.000 N 
BRANCH   9  10
ATOM     10  C   UNL     1       4.508   7.253  16.511  0.00  0.00    +0.000 C 
BRANCH  10  11
ATOM     11  C   UNL     1       3.503   7.411  17.627  0.00  0.00    +0.000 A 
ATOM     12  C   UNL     1       3.415   6.439  18.635  0.00  0.00    +0.000 A 
ATOM     13  C   UNL     1       2.566   6.624  19.729  0.00  0.00    +0.000 A 
ATOM     14  C   UNL     1       1.787   7.774  19.827  0.00  0.00    +0.000 A 
ATOM     15  C   UNL     1       1.845   8.738  18.822  0.00  0.00    +0.000 A 
ATOM     16  C   UNL     1       2.696   8.557  17.728  0.00  0.00    +0.000 A 
ENDBRANCH  10  11
ENDBRANCH   9  10
ENDBRANCH   2   5
BRANCH   3  17
ATOM     17  C   UNL     1       4.138   2.549  18.148  0.00  0.00    +0.000 C 
BRANCH  17  18
ATOM     18  C   UNL     1       3.061   2.636  19.202  0.00  0.00    +0.000 A 
ATOM     19  C   UNL     1       1.792   3.110  18.849  0.00  0.00    +0.000 A 
ATOM     20  F   UNL     1       1.545   3.479  17.583  0.00  0.00    +0.000 F 
ATOM     21  C   UNL     1       0.757   3.227  19.777  0.00  0.00    +0.000 A 
ATOM     22  C   UNL     1       0.970   2.869  21.103  0.00  0.00    +0.000 A 
ATOM     23  C   UNL     1       2.226   2.401  21.488  0.00  0.00    +0.000 A 
ATOM     24  C   UNL     1       3.264   2.292  20.550  0.00  0.00    +0.000 A 
ATOM     25 CL   UNL     1       4.790   1.724  21.125  0.00  0.00    +0.000 Cl
ENDBRANCH  17  18
ENDBRANCH   3  17
TORSDOF 5
ENDMDL
MODEL 8
REMARK VINA RESULT:      -7.4      3.101      5.979
REMARK  Name = 
REMARK  5 active torsions:
REMARK  status: ('A' for Active; 'I' for Inactive)
REMARK    1  A    between atoms: C_2  and  C_13
REMARK    2  A    between atoms: N_3  and  C_4
REMARK    3  A    between atoms: C_4  and  C_5
REMARK    4  A    between atoms: N_17  and  C_18
REMARK    5  A    between atoms: C_18  and  C_19
REMARK                            x       y       z     vdW  Elec       q    Type
REMARK                         _______ _______ _______ _____ _____    ______ ____
ROOT
ATOM      1  O   UNL     1       1.716   4.779  21.220  0.00  0.00    +0.000 OA
ATOM      2  C   UNL     1       2.185   5.178  20.158  0.00  0.00    +0.000 C 
ATOM      3  N   UNL     1       2.409   6.519  19.922  0.00  0.00    +0.000 N 
ATOM      4  H   UNL     1       2.835   6.792  19.050  0.00  0.00    +0.000 HD
ENDROOT
BRANCH   2   5
ATOM      5  C   UNL     1       2.549   4.308  19.044  0.00  0.00    +0.000 A 
ATOM      6  C   UNL     1       1.687   3.624  18.188  0.00  0.00    +0.000 A 
ATOM      7  C   UNL     1       2.446   2.903  17.245  0.00  0.00    +0.000 A 
ATOM      8  C   UNL     1       3.765   3.131  17.541  0.00  0.00    +0.000 A 
ATOM      9  N   UNL     1       3.835   3.950  18.652  0.00  0.00    +0.000 N 
BRANCH   9  10
ATOM     10  C   UNL     1       5.097   4.210  19.345  0.00  0.00    +0.000 C 
BRANCH  10  11
ATOM     11  C   UNL     1       5.895   5.354  18.766  0.00  0.00    +0.000 A 
ATOM     12  C   UNL     1       7.197   5.605  19.226  0.00  0.00    +0.000 A 
ATOM     13  C   UNL     1       7.985   6.590  18.627  0.00  0.00    +0.000 A 
ATOM     14  C   UNL     1       7.482   7.345  17.570  0.00  0.00    +0.000 A 
ATOM     15  C   UNL     1       6.183   7.125  17.117  0.00  0.00    +0.000 A 
ATOM     16  C   UNL     1       5.393   6.137  17.712  0.00  0.00    +0.000 A 
ENDBRANCH  10  11
ENDBRANCH   9  10
ENDBRANCH   2   5
BRANCH   3  17
ATOM     17  C   UNL     1       1.965   7.559  20.825  0.00  0.00    +0.000 C 
BRANCH  17  18
ATOM     18  C   UNL     1       1.192   8.651  20.127  0.00  0.00    +0.000 A 
ATOM     19  C   UNL     1       1.586   9.059  18.846  0.00  0.00    +0.000 A 
ATOM     20  F   UNL     1       2.640   8.477  18.254  0.00  0.00    +0.000 F 
ATOM     21  C   UNL     1       0.923  10.071  18.151  0.00  0.00    +0.000 A 
ATOM     22  C   UNL     1      -0.167  10.711  18.730  0.00  0.00    +0.000 A 
ATOM     23  C   UNL     1      -0.578  10.334  20.008  0.00  0.00    +0.000 A 
ATOM     24  C   UNL     1       0.098   9.319  20.703  0.00  0.00    +0.000 A 
ATOM     25 CL   UNL     1      -0.472   8.936  22.288  0.00  0.00    +0.000 Cl
ENDBRANCH  17  18
ENDBRANCH   3  17
TORSDOF 5
ENDMDL
MODEL 9
REMARK VINA RESULT:      -7.4      3.030      5.932
REMARK  Name = 
REMARK  5 active torsions:
REMARK  status: ('A' for Active; 'I' for Inactive)
REMARK    1  A    between atoms: C_2  and  C_13
REMARK    2  A    between atoms: N_3  and  C_4
REMARK    3  A    between atoms: C_4  and  C_5
REMARK    4  A    between atoms: N_17  and  C_18
REMARK    5  A    between atoms: C_18  and  C_19
REMARK                            x       y       z     vdW  Elec       q    Type
REMARK                         _______ _______ _______ _____ _____    ______ ____
ROOT
ATOM      1  O   UNL     1       1.645   4.875  21.157  0.00  0.00    +0.000 OA
ATOM      2  C   UNL     1       2.136   5.285  20.109  0.00  0.00    +0.000 C 
ATOM      3  N   UNL     1       2.391   6.626  19.902  0.00  0.00    +0.000 N 
ATOM      4  H   UNL     1       2.833   6.907  19.041  0.00  0.00    +0.000 HD
ENDROOT
BRANCH   2   5
ATOM      5  C   UNL     1       2.494   4.431  18.982  0.00  0.00    +0.000 A 
ATOM      6  C   UNL     1       1.628   3.785  18.101  0.00  0.00    +0.000 A 
ATOM      7  C   UNL     1       2.382   3.066  17.153  0.00  0.00    +0.000 A 
ATOM      8  C   UNL     1       3.703   3.256  17.471  0.00  0.00    +0.000 A 
ATOM      9  N   UNL     1       3.776   4.050  18.599  0.00  0.00    +0.000 N 
BRANCH   9  10
ATOM     10  C   UNL     1       5.035   4.265  19.314  0.00  0.00    +0.000 C 
BRANCH  10  11
ATOM     11  C   UNL     1       5.878   5.388  18.757  0.00  0.00    +0.000 A 
ATOM     12  C   UNL     1       7.175   5.600  19.247  0.00  0.00    +0.000 A 
ATOM     13  C   UNL     1       8.004   6.565  18.670  0.00  0.00    +0.000 A 
ATOM     14  C   UNL     1       7.547   7.336  17.603  0.00  0.00    +0.000 A 
ATOM     15  C   UNL     1       6.252   7.154  17.121  0.00  0.00    +0.000 A 
ATOM     16  C   UNL     1       5.422   6.187  17.695  0.00  0.00    +0.000 A 
ENDBRANCH  10  11
ENDBRANCH   9  10
ENDBRANCH   2   5
BRANCH   3  17
ATOM     17  C   UNL     1       1.958   7.657  20.822  0.00  0.00    +0.000 C 
BRANCH  17  18
ATOM     18  C   UNL     1       1.154   8.742  20.149  0.00  0.00    +0.000 A 
ATOM     19  C   UNL     1       0.093   9.340  20.840  0.00  0.00    +0.000 A 
ATOM     20  F   UNL     1      -0.195   8.946  22.090  0.00  0.00    +0.000 F 
ATOM     21  C   UNL     1      -0.697  10.339  20.271  0.00  0.00    +0.000 A 
ATOM     22  C   UNL     1      -0.443  10.770  18.974  0.00  0.00    +0.000 A 
ATOM     23  C   UNL     1       0.601  10.188  18.256  0.00  0.00    +0.000 A 
ATOM     24  C   UNL     1       1.387   9.179  18.833  0.00  0.00    +0.000 A 
ATOM     25 CL   UNL     1       2.643   8.504  17.858  0.00  0.00    +0.000 Cl
ENDBRANCH  17  18
ENDBRANCH   3  17
TORSDOF 5
ENDMDL
