MODEL 1
REMARK VINA RESULT:      -7.7      0.000      0.000
REMARK  Name = 
REMARK  16 active torsions:
REMARK  status: ('A' for Active; 'I' for Inactive)
REMARK    1  A    between atoms: C_1  and  C_2
REMARK    2  A    between atoms: C_3  and  O_4
REMARK    3  A    between atoms: O_4  and  C_5
REMARK    4  A    between atoms: C_5  and  C_6
REMARK    5  A    between atoms: C_6  and  C_7
REMARK    6  A    between atoms: C_7  and  C_8
REMARK    7  A    between atoms: C_8  and  O_9
REMARK    8  A    between atoms: O_9  and  C_10
REMARK    9  A    between atoms: C_15  and  C_16
REMARK   10  A    between atoms: C_22  and  C_23
REMARK   11  A    between atoms: C_23  and  C_25
REMARK   12  A    between atoms: C_25  and  C_26
REMARK   13  A    between atoms: C_26  and  C_27
REMARK   14  A    between atoms: C_26  and  C_28
REMARK   15  A    between atoms: C_26  and  C_29
REMARK   16  A    between atoms: C_30  and  O_31
REMARK                            x       y       z     vdW  Elec       q    Type
REMARK                         _______ _______ _______ _____ _____    ______ ____
ROOT
ATOM      1  O   UNL     1       2.473   5.847  20.226  0.00  0.00    +0.000 OA
ENDROOT
BRANCH   1   4
ATOM      2  C   UNL     1       3.120   7.356  17.425  0.00  0.00    +0.000 C 
ATOM      3  C   UNL     1       2.326   7.804  18.628  0.00  0.00    +0.000 A 
ATOM      4  C   UNL     1       2.085   7.097  19.823  0.00  0.00    +0.000 A 
ATOM      5  C   UNL     1       1.313   7.706  20.834  0.00  0.00    +0.000 A 
ATOM      6  C   UNL     1       0.777   8.984  20.693  0.00  0.00    +0.000 A 
ATOM      7  C   UNL     1       0.997   9.703  19.522  0.00  0.00    +0.000 A 
ATOM      8  C   UNL     1       1.766   9.105  18.505  0.00  0.00    +0.000 A 
BRANCH   7   9
ATOM      9  C   UNL     1       0.436  11.079  19.346  0.00  0.00    +0.000 C 
ATOM     10  O   UNL     1      -0.399  11.257  18.462  0.00  0.00    +0.000 OA
BRANCH   9  11
ATOM     11  C   UNL     1       0.939  12.179  20.276  0.00  0.00    +0.000 C 
BRANCH  11  12
ATOM     12  C   UNL     1       1.679  13.378  19.648  0.00  0.00    +0.000 C 
ATOM     13  C   UNL     1       2.542  12.933  18.456  0.00  0.00    +0.000 C 
ATOM     14  C   UNL     1       0.607  14.362  19.128  0.00  0.00    +0.000 C 
ATOM     15  C   UNL     1       2.533  14.116  20.689  0.00  0.00    +0.000 C 
ENDBRANCH  11  12
ENDBRANCH   9  11
ENDBRANCH   7   9
BRANCH   8  16
ATOM     16  O   UNL     1       2.021   9.768  17.321  0.00  0.00    +0.000 OA
ATOM     17  H   UNL     1       1.408   9.427  16.632  0.00  0.00    +0.000 HD
ENDBRANCH   8  16
ENDBRANCH   1   4
BRANCH   1  18
ATOM     18  C   UNL     1       1.506   4.952  20.735  0.00  0.00    +0.000 C 
BRANCH  18  19
ATOM     19  C   UNL     1       1.707   3.548  20.171  0.00  0.00    +0.000 C 
BRANCH  19  20
ATOM     20  C   UNL     1       2.835   2.762  20.851  0.00  0.00    +0.000 C 
BRANCH  20  21
ATOM     21  C   UNL     1       3.964   2.440  19.878  0.00  0.00    +0.000 C 
BRANCH  21  22
ATOM     22  O   UNL     1       3.752   3.068  18.615  0.00  0.00    +0.000 OA
BRANCH  22  23
ATOM     23  C   UNL     1       4.734   3.958  18.250  0.00  0.00    +0.000 A 
ATOM     24  C   UNL     1       5.438   4.790  19.129  0.00  0.00    +0.000 A 
ATOM     25  C   UNL     1       6.428   5.647  18.650  0.00  0.00    +0.000 A 
ATOM     26  C   UNL     1       6.717   5.673  17.292  0.00  0.00    +0.000 A 
ATOM     27  F   UNL     1       7.683   6.508  16.878  0.00  0.00    +0.000 F 
ATOM     28  C   UNL     1       6.027   4.855  16.394  0.00  0.00    +0.000 A 
ATOM     29  C   UNL     1       5.028   3.998  16.884  0.00  0.00    +0.000 A 
BRANCH  28  30
ATOM     30  C   UNL     1       6.322   4.851  14.939  0.00  0.00    +0.000 C 
ATOM     31  N   UNL     1       7.537   5.316  14.526  0.00  0.00    +0.000 N 
ATOM     32  O   UNL     1       5.504   4.437  14.117  0.00  0.00    +0.000 OA
ATOM     33  H   UNL     1       8.243   5.663  15.164  0.00  0.00    +0.000 HD
ATOM     34  H   UNL     1       7.742   5.297  13.536  0.00  0.00    +0.000 HD
ENDBRANCH  28  30
ENDBRANCH  22  23
ENDBRANCH  21  22
ENDBRANCH  20  21
ENDBRANCH  19  20
ENDBRANCH  18  19
ENDBRANCH   1  18
TORSDOF 12
ENDMDL
MODEL 2
REMARK VINA RESULT:      -7.7      1.438      1.926
REMARK  Name = 
REMARK  16 active torsions:
REMARK  status: ('A' for Active; 'I' for Inactive)
REMARK    1  A    between atoms: C_1  and  C_2
REMARK    2  A    between atoms: C_3  and  O_4
REMARK    3  A    between atoms: O_4  and  C_5
REMARK    4  A    between atoms: C_5  and  C_6
REMARK    5  A    between atoms: C_6  and  C_7
REMARK    6  A    between atoms: C_7  and  C_8
REMARK    7  A    between atoms: C_8  and  O_9
REMARK    8  A    between atoms: O_9  and  C_10
REMARK    9  A    between atoms: C_15  and  C_16
REMARK   10  A    between atoms: C_22  and  C_23
REMARK   11  A    between atoms: C_23  and  C_25
REMARK   12  A    between atoms: C_25  and  C_26
REMARK   13  A    between atoms: C_26  and  C_27
REMARK   14  A    between atoms: C_26  and  C_28
REMARK   15  A    between atoms: C_26  and  C_29
REMARK   16  A    between atoms: C_30  and  O_31
REMARK                            x       y       z     vdW  Elec       q    Type
REMARK                         _______ _______ _______ _____ _____    ______ ____
ROOT
ATOM      1  O   UNL     1       2.509   5.834  20.146  0.00  0.00    +0.000 OA
ENDROOT
BRANCH   1   4
ATOM      2  C   UNL     1       3.281   7.374  17.394  0.00  0.00    +0.000 C 
ATOM      3  C   UNL     1       2.452   7.817  18.575  0.00  0.00    +0.000 A 
ATOM      4  C   UNL     1       2.157   7.097  19.749  0.00  0.00    +0.000 A 
ATOM      5  C   UNL     1       1.361   7.704  20.743  0.00  0.00    +0.000 A 
ATOM      6  C   UNL     1       0.853   8.993  20.604  0.00  0.00    +0.000 A 
ATOM      7  C   UNL     1       1.127   9.726  19.452  0.00  0.00    +0.000 A 
ATOM      8  C   UNL     1       1.921   9.130  18.453  0.00  0.00    +0.000 A 
BRANCH   7   9
ATOM      9  C   UNL     1       0.596  11.115  19.279  0.00  0.00    +0.000 C 
ATOM     10  O   UNL     1       1.397  12.048  19.288  0.00  0.00    +0.000 OA
BRANCH   9  11
ATOM     11  C   UNL     1      -0.910  11.286  19.106  0.00  0.00    +0.000 C 
BRANCH  11  12
ATOM     12  C   UNL     1      -1.633  12.303  20.014  0.00  0.00    +0.000 C 
ATOM     13  C   UNL     1      -3.151  12.282  19.768  0.00  0.00    +0.000 C 
ATOM     14  C   UNL     1      -1.375  11.884  21.478  0.00  0.00    +0.000 C 
ATOM     15  C   UNL     1      -1.074  13.720  19.822  0.00  0.00    +0.000 C 
ENDBRANCH  11  12
ENDBRANCH   9  11
ENDBRANCH   7   9
BRANCH   8  16
ATOM     16  O   UNL     1       2.228   9.807  17.290  0.00  0.00    +0.000 OA
ATOM     17  H   UNL     1       2.428  10.742  17.514  0.00  0.00    +0.000 HD
ENDBRANCH   8  16
ENDBRANCH   1   4
BRANCH   1  18
ATOM     18  C   UNL     1       1.615   4.764  19.922  0.00  0.00    +0.000 C 
BRANCH  18  19
ATOM     19  C   UNL     1       1.644   4.321  18.461  0.00  0.00    +0.000 C 
BRANCH  19  20
ATOM     20  C   UNL     1       2.003   2.843  18.268  0.00  0.00    +0.000 C 
BRANCH  20  21
ATOM     21  C   UNL     1       3.456   2.666  17.840  0.00  0.00    +0.000 C 
BRANCH  21  22
ATOM     22  O   UNL     1       4.350   3.187  18.822  0.00  0.00    +0.000 OA
BRANCH  22  23
ATOM     23  C   UNL     1       5.226   4.135  18.349  0.00  0.00    +0.000 A 
ATOM     24  C   UNL     1       5.777   5.176  19.106  0.00  0.00    +0.000 A 
ATOM     25  C   UNL     1       6.670   6.075  18.528  0.00  0.00    +0.000 A 
ATOM     26  C   UNL     1       7.017   5.934  17.190  0.00  0.00    +0.000 A 
ATOM     27  F   UNL     1       7.888   6.819  16.677  0.00  0.00    +0.000 F 
ATOM     28  C   UNL     1       6.480   4.906  16.412  0.00  0.00    +0.000 A 
ATOM     29  C   UNL     1       5.576   4.008  17.002  0.00  0.00    +0.000 A 
BRANCH  28  30
ATOM     30  C   UNL     1       6.841   4.723  14.983  0.00  0.00    +0.000 C 
ATOM     31  N   UNL     1       6.323   3.649  14.319  0.00  0.00    +0.000 N 
ATOM     32  O   UNL     1       7.581   5.516  14.400  0.00  0.00    +0.000 OA
ATOM     33  H   UNL     1       5.708   2.973  14.755  0.00  0.00    +0.000 HD
ATOM     34  H   UNL     1       6.557   3.536  13.342  0.00  0.00    +0.000 HD
ENDBRANCH  28  30
ENDBRANCH  22  23
ENDBRANCH  21  22
ENDBRANCH  20  21
ENDBRANCH  19  20
ENDBRANCH  18  19
ENDBRANCH   1  18
TORSDOF 12
ENDMDL
MODEL 3
REMARK VINA RESULT:      -7.7      1.266      1.737
REMARK  Name = 
REMARK  16 active torsions:
REMARK  status: ('A' for Active; 'I' for Inactive)
REMARK    1  A    between atoms: C_1  and  C_2
REMARK    2  A    between atoms: C_3  and  O_4
REMARK    3  A    between atoms: O_4  and  C_5
REMARK    4  A    between atoms: C_5  and  C_6
REMARK    5  A    between atoms: C_6  and  C_7
REMARK    6  A    between atoms: C_7  and  C_8
REMARK    7  A    between atoms: C_8  and  O_9
REMARK    8  A    between atoms: O_9  and  C_10
REMARK    9  A    between atoms: C_15  and  C_16
REMARK   10  A    between atoms: C_22  and  C_23
REMARK   11  A    between atoms: C_23  and  C_25
REMARK   12  A    between atoms: C_25  and  C_26
REMARK   13  A    between atoms: C_26  and  C_27
REMARK   14  A    between atoms: C_26  and  C_28
REMARK   15  A    between atoms: C_26  and  C_29
REMARK   16  A    between atoms: C_30  and  O_31
REMARK                            x       y       z     vdW  Elec       q    Type
REMARK                         _______ _______ _______ _____ _____    ______ ____
ROOT
ATOM      1  O   UNL     1       2.320   6.057  20.479  0.00  0.00    +0.000 OA
ENDROOT
BRANCH   1   4
ATOM      2  C   UNL     1       2.987   7.530  17.664  0.00  0.00    +0.000 C 
ATOM      3  C   UNL     1       2.191   7.996  18.859  0.00  0.00    +0.000 A 
ATOM      4  C   UNL     1       1.941   7.305  20.060  0.00  0.00    +0.000 A 
ATOM      5  C   UNL     1       1.170   7.930  21.062  0.00  0.00    +0.000 A 
ATOM      6  C   UNL     1       0.642   9.209  20.904  0.00  0.00    +0.000 A 
ATOM      7  C   UNL     1       0.871   9.913  19.725  0.00  0.00    +0.000 A 
ATOM      8  C   UNL     1       1.640   9.299  18.718  0.00  0.00    +0.000 A 
BRANCH   7   9
ATOM      9  C   UNL     1       0.318  11.291  19.532  0.00  0.00    +0.000 C 
ATOM     10  O   UNL     1      -0.165  11.574  18.438  0.00  0.00    +0.000 OA
BRANCH   9  11
ATOM     11  C   UNL     1       0.393  12.261  20.707  0.00  0.00    +0.000 C 
BRANCH  11  12
ATOM     12  C   UNL     1      -0.909  12.572  21.474  0.00  0.00    +0.000 C 
ATOM     13  C   UNL     1      -1.006  11.736  22.761  0.00  0.00    +0.000 C 
ATOM     14  C   UNL     1      -0.868  14.065  21.870  0.00  0.00    +0.000 C 
ATOM     15  C   UNL     1      -2.145  12.351  20.591  0.00  0.00    +0.000 C 
ENDBRANCH  11  12
ENDBRANCH   9  11
ENDBRANCH   7   9
BRANCH   8  16
ATOM     16  O   UNL     1       1.902   9.947  17.528  0.00  0.00    +0.000 OA
ATOM     17  H   UNL     1       1.314  10.732  17.461  0.00  0.00    +0.000 HD
ENDBRANCH   8  16
ENDBRANCH   1   4
BRANCH   1  18
ATOM     18  C   UNL     1       1.515   4.943  20.155  0.00  0.00    +0.000 C 
BRANCH  18  19
ATOM     19  C   UNL     1       1.931   3.713  20.958  0.00  0.00    +0.000 C 
BRANCH  19  20
ATOM     20  C   UNL     1       2.041   2.434  20.120  0.00  0.00    +0.000 C 
BRANCH  20  21
ATOM     21  C   UNL     1       3.427   2.282  19.502  0.00  0.00    +0.000 C 
BRANCH  21  22
ATOM     22  O   UNL     1       3.485   2.885  18.211  0.00  0.00    +0.000 OA
BRANCH  22  23
ATOM     23  C   UNL     1       4.530   3.762  18.038  0.00  0.00    +0.000 A 
ATOM     24  C   UNL     1       5.073   4.579  19.038  0.00  0.00    +0.000 A 
ATOM     25  C   UNL     1       6.145   5.423  18.755  0.00  0.00    +0.000 A 
ATOM     26  C   UNL     1       6.680   5.450  17.473  0.00  0.00    +0.000 A 
ATOM     27  F   UNL     1       7.718   6.272  17.250  0.00  0.00    +0.000 F 
ATOM     28  C   UNL     1       6.155   4.646  16.458  0.00  0.00    +0.000 A 
ATOM     29  C   UNL     1       5.071   3.803  16.751  0.00  0.00    +0.000 A 
BRANCH  28  30
ATOM     30  C   UNL     1       6.713   4.644  15.082  0.00  0.00    +0.000 C 
ATOM     31  N   UNL     1       6.355   3.629  14.242  0.00  0.00    +0.000 N 
ATOM     32  O   UNL     1       7.472   5.532  14.694  0.00  0.00    +0.000 OA
ATOM     33  H   UNL     1       5.731   2.879  14.515  0.00  0.00    +0.000 HD
ATOM     34  H   UNL     1       6.722   3.639  13.301  0.00  0.00    +0.000 HD
ENDBRANCH  28  30
ENDBRANCH  22  23
ENDBRANCH  21  22
ENDBRANCH  20  21
ENDBRANCH  19  20
ENDBRANCH  18  19
ENDBRANCH   1  18
TORSDOF 12
ENDMDL
MODEL 4
REMARK VINA RESULT:      -7.7      1.550      1.947
REMARK  Name = 
REMARK  16 active torsions:
REMARK  status: ('A' for Active; 'I' for Inactive)
REMARK    1  A    between atoms: C_1  and  C_2
REMARK    2  A    between atoms: C_3  and  O_4
REMARK    3  A    between atoms: O_4  and  C_5
REMARK    4  A    between atoms: C_5  and  C_6
REMARK    5  A    between atoms: C_6  and  C_7
REMARK    6  A    between atoms: C_7  and  C_8
REMARK    7  A    between atoms: C_8  and  O_9
REMARK    8  A    between atoms: O_9  and  C_10
REMARK    9  A    between atoms: C_15  and  C_16
REMARK   10  A    between atoms: C_22  and  C_23
REMARK   11  A    between atoms: C_23  and  C_25
REMARK   12  A    between atoms: C_25  and  C_26
REMARK   13  A    between atoms: C_26  and  C_27
REMARK   14  A    between atoms: C_26  and  C_28
REMARK   15  A    between atoms: C_26  and  C_29
REMARK   16  A    between atoms: C_30  and  O_31
REMARK                            x       y       z     vdW  Elec       q    Type
REMARK                         _______ _______ _______ _____ _____    ______ ____
ROOT
ATOM      1  O   UNL     1       2.592   6.093  20.099  0.00  0.00    +0.000 OA
ENDROOT
BRANCH   1   4
ATOM      2  C   UNL     1       3.062   7.732  17.336  0.00  0.00    +0.000 C 
ATOM      3  C   UNL     1       2.286   8.093  18.580  0.00  0.00    +0.000 A 
ATOM      4  C   UNL     1       2.123   7.333  19.754  0.00  0.00    +0.000 A 
ATOM      5  C   UNL     1       1.355   7.863  20.812  0.00  0.00    +0.000 A 
ATOM      6  C   UNL     1       0.746   9.114  20.735  0.00  0.00    +0.000 A 
ATOM      7  C   UNL     1       0.888   9.884  19.584  0.00  0.00    +0.000 A 
ATOM      8  C   UNL     1       1.653   9.365  18.522  0.00  0.00    +0.000 A 
BRANCH   7   9
ATOM      9  C   UNL     1       0.248  11.233  19.477  0.00  0.00    +0.000 C 
ATOM     10  O   UNL     1      -0.558  11.423  18.569  0.00  0.00    +0.000 OA
BRANCH   9  11
ATOM     11  C   UNL     1       0.640  12.292  20.504  0.00  0.00    +0.000 C 
BRANCH  11  12
ATOM     12  C   UNL     1       1.418  13.529  20.009  0.00  0.00    +0.000 C 
ATOM     13  C   UNL     1       2.426  13.146  18.912  0.00  0.00    +0.000 C 
ATOM     14  C   UNL     1       0.391  14.509  19.399  0.00  0.00    +0.000 C 
ATOM     15  C   UNL     1       2.125  14.246  21.168  0.00  0.00    +0.000 C 
ENDBRANCH  11  12
ENDBRANCH   9  11
ENDBRANCH   7   9
BRANCH   8  16
ATOM     16  O   UNL     1       1.831  10.082  17.356  0.00  0.00    +0.000 OA
ATOM     17  H   UNL     1       2.533   9.647  16.823  0.00  0.00    +0.000 HD
ENDBRANCH   8  16
ENDBRANCH   1   4
BRANCH   1  18
ATOM     18  C   UNL     1       1.847   5.297  20.997  0.00  0.00    +0.000 C 
BRANCH  18  19
ATOM     19  C   UNL     1       1.076   4.208  20.255  0.00  0.00    +0.000 C 
BRANCH  19  20
ATOM     20  C   UNL     1       1.488   2.782  20.644  0.00  0.00    +0.000 C 
BRANCH  20  21
ATOM     21  C   UNL     1       2.976   2.693  20.966  0.00  0.00    +0.000 C 
BRANCH  21  22
ATOM     22  O   UNL     1       3.696   2.069  19.905  0.00  0.00    +0.000 OA
BRANCH  22  23
ATOM     23  C   UNL     1       4.068   2.919  18.891  0.00  0.00    +0.000 A 
ATOM     24  C   UNL     1       3.480   2.967  17.620  0.00  0.00    +0.000 A 
ATOM     25  C   UNL     1       3.926   3.882  16.669  0.00  0.00    +0.000 A 
ATOM     26  C   UNL     1       4.961   4.754  16.986  0.00  0.00    +0.000 A 
ATOM     27  F   UNL     1       5.353   5.623  16.040  0.00  0.00    +0.000 F 
ATOM     28  C   UNL     1       5.566   4.724  18.244  0.00  0.00    +0.000 A 
ATOM     29  C   UNL     1       5.113   3.795  19.195  0.00  0.00    +0.000 A 
BRANCH  28  30
ATOM     30  C   UNL     1       6.666   5.651  18.616  0.00  0.00    +0.000 C 
ATOM     31  N   UNL     1       7.411   5.357  19.721  0.00  0.00    +0.000 N 
ATOM     32  O   UNL     1       6.913   6.656  17.950  0.00  0.00    +0.000 OA
ATOM     33  H   UNL     1       7.249   4.539  20.297  0.00  0.00    +0.000 HD
ATOM     34  H   UNL     1       8.170   5.979  19.962  0.00  0.00    +0.000 HD
ENDBRANCH  28  30
ENDBRANCH  22  23
ENDBRANCH  21  22
ENDBRANCH  20  21
ENDBRANCH  19  20
ENDBRANCH  18  19
ENDBRANCH   1  18
TORSDOF 12
ENDMDL
MODEL 5
REMARK VINA RESULT:      -7.4      2.161      3.408
REMARK  Name = 
REMARK  16 active torsions:
REMARK  status: ('A' for Active; 'I' for Inactive)
REMARK    1  A    between atoms: C_1  and  C_2
REMARK    2  A    between atoms: C_3  and  O_4
REMARK    3  A    between atoms: O_4  and  C_5
REMARK    4  A    between atoms: C_5  and  C_6
REMARK    5  A    between atoms: C_6  and  C_7
REMARK    6  A    between atoms: C_7  and  C_8
REMARK    7  A    between atoms: C_8  and  O_9
REMARK    8  A    between atoms: O_9  and  C_10
REMARK    9  A    between atoms: C_15  and  C_16
REMARK   10  A    between atoms: C_22  and  C_23
REMARK   11  A    between atoms: C_23  and  C_25
REMARK   12  A    between atoms: C_25  and  C_26
REMARK   13  A    between atoms: C_26  and  C_27
REMARK   14  A    between atoms: C_26  and  C_28
REMARK   15  A    between atoms: C_26  and  C_29
REMARK   16  A    between atoms: C_30  and  O_31
REMARK                            x       y       z     vdW  Elec       q    Type
REMARK                         _______ _______ _______ _____ _____    ______ ____
ROOT
ATOM      1  O   UNL     1       1.906   7.799  20.828  0.00  0.00    +0.000 OA
ENDROOT
BRANCH   1   4
ATOM      2  C   UNL     1      -0.109   9.512  22.711  0.00  0.00    +0.000 C 
ATOM      3  C   UNL     1       0.209   9.631  21.240  0.00  0.00    +0.000 A 
ATOM      4  C   UNL     1       1.097   8.848  20.477  0.00  0.00    +0.000 A 
ATOM      5  C   UNL     1       1.245   9.125  19.102  0.00  0.00    +0.000 A 
ATOM      6  C   UNL     1       0.546  10.150  18.470  0.00  0.00    +0.000 A 
ATOM      7  C   UNL     1      -0.335  10.942  19.202  0.00  0.00    +0.000 A 
ATOM      8  C   UNL     1      -0.492  10.674  20.575  0.00  0.00    +0.000 A 
BRANCH   7   9
ATOM      9  C   UNL     1      -1.103  12.047  18.546  0.00  0.00    +0.000 C 
ATOM     10  O   UNL     1      -1.020  13.175  19.027  0.00  0.00    +0.000 OA
BRANCH   9  11
ATOM     11  C   UNL     1      -1.944  11.702  17.321  0.00  0.00    +0.000 C 
BRANCH  11  12
ATOM     12  C   UNL     1      -3.329  11.062  17.549  0.00  0.00    +0.000 C 
ATOM     13  C   UNL     1      -4.062  11.733  18.722  0.00  0.00    +0.000 C 
ATOM     14  C   UNL     1      -4.161  11.288  16.267  0.00  0.00    +0.000 C 
ATOM     15  C   UNL     1      -3.214   9.548  17.777  0.00  0.00    +0.000 C 
ENDBRANCH  11  12
ENDBRANCH   9  11
ENDBRANCH   7   9
BRANCH   8  16
ATOM     16  O   UNL     1      -1.352  11.423  21.353  0.00  0.00    +0.000 OA
ATOM     17  H   UNL     1      -1.692  12.171  20.814  0.00  0.00    +0.000 HD
ENDBRANCH   8  16
ENDBRANCH   1   4
BRANCH   1  18
ATOM     18  C   UNL     1       2.216   6.813  19.866  0.00  0.00    +0.000 C 
BRANCH  18  19
ATOM     19  C   UNL     1       1.822   5.423  20.360  0.00  0.00    +0.000 C 
BRANCH  19  20
ATOM     20  C   UNL     1       1.644   4.394  19.237  0.00  0.00    +0.000 C 
BRANCH  20  21
ATOM     21  C   UNL     1       2.511   3.159  19.461  0.00  0.00    +0.000 C 
BRANCH  21  22
ATOM     22  O   UNL     1       3.413   2.958  18.375  0.00  0.00    +0.000 OA
BRANCH  22  23
ATOM     23  C   UNL     1       4.453   3.856  18.324  0.00  0.00    +0.000 A 
ATOM     24  C   UNL     1       5.220   4.267  19.420  0.00  0.00    +0.000 A 
ATOM     25  C   UNL     1       6.265   5.174  19.252  0.00  0.00    +0.000 A 
ATOM     26  C   UNL     1       6.545   5.673  17.986  0.00  0.00    +0.000 A 
ATOM     27  F   UNL     1       7.565   6.538  17.871  0.00  0.00    +0.000 F 
ATOM     28  C   UNL     1       5.792   5.281  16.876  0.00  0.00    +0.000 A 
ATOM     29  C   UNL     1       4.738   4.370  17.056  0.00  0.00    +0.000 A 
BRANCH  28  30
ATOM     30  C   UNL     1       6.075   5.787  15.509  0.00  0.00    +0.000 C 
ATOM     31  N   UNL     1       7.203   5.347  14.879  0.00  0.00    +0.000 N 
ATOM     32  O   UNL     1       5.318   6.577  14.945  0.00  0.00    +0.000 OA
ATOM     33  H   UNL     1       7.854   4.695  15.301  0.00  0.00    +0.000 HD
ATOM     34  H   UNL     1       7.385   5.679  13.942  0.00  0.00    +0.000 HD
ENDBRANCH  28  30
ENDBRANCH  22  23
ENDBRANCH  21  22
ENDBRANCH  20  21
ENDBRANCH  19  20
ENDBRANCH  18  19
ENDBRANCH   1  18
TORSDOF 12
ENDMDL
MODEL 6
REMARK VINA RESULT:      -7.4      1.850      2.674
REMARK  Name = 
REMARK  16 active torsions:
REMARK  status: ('A' for Active; 'I' for Inactive)
REMARK    1  A    between atoms: C_1  and  C_2
REMARK    2  A    between atoms: C_3  and  O_4
REMARK    3  A    between atoms: O_4  and  C_5
REMARK    4  A    between atoms: C_5  and  C_6
REMARK    5  A    between atoms: C_6  and  C_7
REMARK    6  A    between atoms: C_7  and  C_8
REMARK    7  A    between atoms: C_8  and  O_9
REMARK    8  A    between atoms: O_9  and  C_10
REMARK    9  A    between atoms: C_15  and  C_16
REMARK   10  A    between atoms: C_22  and  C_23
REMARK   11  A    between atoms: C_23  and  C_25
REMARK   12  A    between atoms: C_25  and  C_26
REMARK   13  A    between atoms: C_26  and  C_27
REMARK   14  A    between atoms: C_26  and  C_28
REMARK   15  A    between atoms: C_26  and  C_29
REMARK   16  A    between atoms: C_30  and  O_31
REMARK                            x       y       z     vdW  Elec       q    Type
REMARK                         _______ _______ _______ _____ _____    ______ ____
ROOT
ATOM      1  O   UNL     1       2.558   5.926  19.824  0.00  0.00    +0.000 OA
ENDROOT
BRANCH   1   4
ATOM      2  C   UNL     1       3.059   7.867  17.269  0.00  0.00    +0.000 C 
ATOM      3  C   UNL     1       2.316   8.106  18.561  0.00  0.00    +0.000 A 
ATOM      4  C   UNL     1       2.138   7.217  19.639  0.00  0.00    +0.000 A 
ATOM      5  C   UNL     1       1.407   7.646  20.766  0.00  0.00    +0.000 A 
ATOM      6  C   UNL     1       0.850   8.920  20.852  0.00  0.00    +0.000 A 
ATOM      7  C   UNL     1       1.008   9.817  19.799  0.00  0.00    +0.000 A 
ATOM      8  C   UNL     1       1.737   9.400  18.668  0.00  0.00    +0.000 A 
BRANCH   7   9
ATOM      9  C   UNL     1       0.424  11.194  19.867  0.00  0.00    +0.000 C 
ATOM     10  O   UNL     1       1.193  12.152  19.858  0.00  0.00    +0.000 OA
BRANCH   9  11
ATOM     11  C   UNL     1      -1.095  11.320  19.945  0.00  0.00    +0.000 C 
BRANCH  11  12
ATOM     12  C   UNL     1      -1.888  11.362  18.623  0.00  0.00    +0.000 C 
ATOM     13  C   UNL     1      -3.332  11.835  18.859  0.00  0.00    +0.000 C 
ATOM     14  C   UNL     1      -1.191  12.383  17.696  0.00  0.00    +0.000 C 
ATOM     15  C   UNL     1      -1.874   9.998  17.918  0.00  0.00    +0.000 C 
ENDBRANCH  11  12
ENDBRANCH   9  11
ENDBRANCH   7   9
BRANCH   8  16
ATOM     16  O   UNL     1       1.928  10.245  17.593  0.00  0.00    +0.000 OA
ATOM     17  H   UNL     1       2.744   9.969  17.119  0.00  0.00    +0.000 HD
ENDBRANCH   8  16
ENDBRANCH   1   4
BRANCH   1  18
ATOM     18  C   UNL     1       1.664   4.977  20.365  0.00  0.00    +0.000 C 
BRANCH  18  19
ATOM     19  C   UNL     1       2.333   4.160  21.467  0.00  0.00    +0.000 C 
BRANCH  19  20
ATOM     20  C   UNL     1       2.709   2.735  21.041  0.00  0.00    +0.000 C 
BRANCH  20  21
ATOM     21  C   UNL     1       4.039   2.703  20.295  0.00  0.00    +0.000 C 
BRANCH  21  22
ATOM     22  O   UNL     1       3.838   2.592  18.887  0.00  0.00    +0.000 OA
BRANCH  22  23
ATOM     23  C   UNL     1       4.511   3.528  18.139  0.00  0.00    +0.000 A 
ATOM     24  C   UNL     1       4.157   3.937  16.847  0.00  0.00    +0.000 A 
ATOM     25  C   UNL     1       4.904   4.909  16.184  0.00  0.00    +0.000 A 
ATOM     26  C   UNL     1       6.006   5.476  16.811  0.00  0.00    +0.000 A 
ATOM     27  F   UNL     1       6.690   6.413  16.136  0.00  0.00    +0.000 F 
ATOM     28  C   UNL     1       6.382   5.083  18.098  0.00  0.00    +0.000 A 
ATOM     29  C   UNL     1       5.627   4.099  18.757  0.00  0.00    +0.000 A 
BRANCH  28  30
ATOM     30  C   UNL     1       7.548   5.679  18.799  0.00  0.00    +0.000 C 
ATOM     31  N   UNL     1       7.889   6.967  18.502  0.00  0.00    +0.000 N 
ATOM     32  O   UNL     1       8.193   5.042  19.631  0.00  0.00    +0.000 OA
ATOM     33  H   UNL     1       7.386   7.532  17.828  0.00  0.00    +0.000 HD
ATOM     34  H   UNL     1       8.672   7.377  18.993  0.00  0.00    +0.000 HD
ENDBRANCH  28  30
ENDBRANCH  22  23
ENDBRANCH  21  22
ENDBRANCH  20  21
ENDBRANCH  19  20
ENDBRANCH  18  19
ENDBRANCH   1  18
TORSDOF 12
ENDMDL
MODEL 7
REMARK VINA RESULT:      -7.3      5.856      9.511
REMARK  Name = 
REMARK  16 active torsions:
REMARK  status: ('A' for Active; 'I' for Inactive)
REMARK    1  A    between atoms: C_1  and  C_2
REMARK    2  A    between atoms: C_3  and  O_4
REMARK    3  A    between atoms: O_4  and  C_5
REMARK    4  A    between atoms: C_5  and  C_6
REMARK    5  A    between atoms: C_6  and  C_7
REMARK    6  A    between atoms: C_7  and  C_8
REMARK    7  A    between atoms: C_8  and  O_9
REMARK    8  A    between atoms: O_9  and  C_10
REMARK    9  A    between atoms: C_15  and  C_16
REMARK   10  A    between atoms: C_22  and  C_23
REMARK   11  A    between atoms: C_23  and  C_25
REMARK   12  A    between atoms: C_25  and  C_26
REMARK   13  A    between atoms: C_26  and  C_27
REMARK   14  A    between atoms: C_26  and  C_28
REMARK   15  A    between atoms: C_26  and  C_29
REMARK   16  A    between atoms: C_30  and  O_31
REMARK                            x       y       z     vdW  Elec       q    Type
REMARK                         _______ _______ _______ _____ _____    ______ ____
ROOT
ATOM      1  O   UNL     1       6.919   7.622  17.139  0.00  0.00    +0.000 OA
ENDROOT
BRANCH   1   4
ATOM      2  C   UNL     1       6.677   5.031  15.196  0.00  0.00    +0.000 C 
ATOM      3  C   UNL     1       6.219   5.246  16.619  0.00  0.00    +0.000 A 
ATOM      4  C   UNL     1       6.351   6.405  17.409  0.00  0.00    +0.000 A 
ATOM      5  C   UNL     1       5.843   6.397  18.724  0.00  0.00    +0.000 A 
ATOM      6  C   UNL     1       5.215   5.282  19.274  0.00  0.00    +0.000 A 
ATOM      7  C   UNL     1       5.074   4.123  18.515  0.00  0.00    +0.000 A 
ATOM      8  C   UNL     1       5.577   4.118  17.200  0.00  0.00    +0.000 A 
BRANCH   7   9
ATOM      9  C   UNL     1       4.400   2.911  19.080  0.00  0.00    +0.000 C 
ATOM     10  O   UNL     1       4.975   2.289  19.970  0.00  0.00    +0.000 OA
BRANCH   9  11
ATOM     11  C   UNL     1       3.039   2.522  18.510  0.00  0.00    +0.000 C 
BRANCH  11  12
ATOM     12  C   UNL     1       1.833   3.430  18.831  0.00  0.00    +0.000 C 
ATOM     13  C   UNL     1       1.734   4.592  17.830  0.00  0.00    +0.000 C 
ATOM     14  C   UNL     1       0.557   2.568  18.699  0.00  0.00    +0.000 C 
ATOM     15  C   UNL     1       1.898   3.959  20.271  0.00  0.00    +0.000 C 
ENDBRANCH  11  12
ENDBRANCH   9  11
ENDBRANCH   7   9
BRANCH   8  16
ATOM     16  O   UNL     1       5.466   3.000  16.399  0.00  0.00    +0.000 OA
ATOM     17  H   UNL     1       4.584   3.011  15.965  0.00  0.00    +0.000 HD
ENDBRANCH   8  16
ENDBRANCH   1   4
BRANCH   1  18
ATOM     18  C   UNL     1       8.051   8.036  17.873  0.00  0.00    +0.000 C 
BRANCH  18  19
ATOM     19  C   UNL     1       8.217   9.553  17.816  0.00  0.00    +0.000 C 
BRANCH  19  20
ATOM     20  C   UNL     1       9.020  10.133  18.987  0.00  0.00    +0.000 C 
BRANCH  20  21
ATOM     21  C   UNL     1      10.167  11.013  18.502  0.00  0.00    +0.000 C 
BRANCH  21  22
ATOM     22  O   UNL     1      10.642  11.862  19.545  0.00  0.00    +0.000 OA
BRANCH  22  23
ATOM     23  C   UNL     1      10.257  13.177  19.430  0.00  0.00    +0.000 A 
ATOM     24  C   UNL     1       9.324  13.820  20.252  0.00  0.00    +0.000 A 
ATOM     25  C   UNL     1       9.017  15.165  20.055  0.00  0.00    +0.000 A 
ATOM     26  C   UNL     1       9.646  15.872  19.037  0.00  0.00    +0.000 A 
ATOM     27  F   UNL     1       9.325  17.167  18.890  0.00  0.00    +0.000 F 
ATOM     28  C   UNL     1      10.578  15.252  18.202  0.00  0.00    +0.000 A 
ATOM     29  C   UNL     1      10.876  13.895  18.404  0.00  0.00    +0.000 A 
BRANCH  28  30
ATOM     30  C   UNL     1      11.274  15.983  17.113  0.00  0.00    +0.000 C 
ATOM     31  N   UNL     1      10.731  15.947  15.861  0.00  0.00    +0.000 N 
ATOM     32  O   UNL     1      12.310  16.615  17.322  0.00  0.00    +0.000 OA
ATOM     33  H   UNL     1       9.880  15.444  15.642  0.00  0.00    +0.000 HD
ATOM     34  H   UNL     1      11.197  16.460  15.125  0.00  0.00    +0.000 HD
ENDBRANCH  28  30
ENDBRANCH  22  23
ENDBRANCH  21  22
ENDBRANCH  20  21
ENDBRANCH  19  20
ENDBRANCH  18  19
ENDBRANCH   1  18
TORSDOF 12
ENDMDL
MODEL 8
REMARK VINA RESULT:      -7.2      2.456      3.683
REMARK  Name = 
REMARK  16 active torsions:
REMARK  status: ('A' for Active; 'I' for Inactive)
REMARK    1  A    between atoms: C_1  and  C_2
REMARK    2  A    between atoms: C_3  and  O_4
REMARK    3  A    between atoms: O_4  and  C_5
REMARK    4  A    between atoms: C_5  and  C_6
REMARK    5  A    between atoms: C_6  and  C_7
REMARK    6  A    between atoms: C_7  and  C_8
REMARK    7  A    between atoms: C_8  and  O_9
REMARK    8  A    between atoms: O_9  and  C_10
REMARK    9  A    between atoms: C_15  and  C_16
REMARK   10  A    between atoms: C_22  and  C_23
REMARK   11  A    between atoms: C_23  and  C_25
REMARK   12  A    between atoms: C_25  and  C_26
REMARK   13  A    between atoms: C_26  and  C_27
REMARK   14  A    between atoms: C_26  and  C_28
REMARK   15  A    between atoms: C_26  and  C_29
REMARK   16  A    between atoms: C_30  and  O_31
REMARK                            x       y       z     vdW  Elec       q    Type
REMARK                         _______ _______ _______ _____ _____    ______ ____
ROOT
ATOM      1  O   UNL     1       2.388   7.621  19.994  0.00  0.00    +0.000 OA
ENDROOT
BRANCH   1   4
ATOM      2  C   UNL     1       0.711   9.181  22.296  0.00  0.00    +0.000 C 
ATOM      3  C   UNL     1       0.741   9.366  20.798  0.00  0.00    +0.000 A 
ATOM      4  C   UNL     1       1.493   8.648  19.848  0.00  0.00    +0.000 A 
ATOM      5  C   UNL     1       1.368   8.980  18.483  0.00  0.00    +0.000 A 
ATOM      6  C   UNL     1       0.528   9.998  18.039  0.00  0.00    +0.000 A 
ATOM      7  C   UNL     1      -0.224  10.726  18.957  0.00  0.00    +0.000 A 
ATOM      8  C   UNL     1      -0.108  10.403  20.323  0.00  0.00    +0.000 A 
BRANCH   7   9
ATOM      9  C   UNL     1      -1.138  11.823  18.506  0.00  0.00    +0.000 C 
ATOM     10  O   UNL     1      -0.634  12.864  18.091  0.00  0.00    +0.000 OA
BRANCH   9  11
ATOM     11  C   UNL     1      -2.642  11.579  18.594  0.00  0.00    +0.000 C 
BRANCH  11  12
ATOM     12  C   UNL     1      -3.335  10.889  17.400  0.00  0.00    +0.000 C 
ATOM     13  C   UNL     1      -2.536  11.094  16.103  0.00  0.00    +0.000 C 
ATOM     14  C   UNL     1      -3.383   9.375  17.705  0.00  0.00    +0.000 C 
ATOM     15  C   UNL     1      -4.779  11.383  17.231  0.00  0.00    +0.000 C 
ENDBRANCH  11  12
ENDBRANCH   9  11
ENDBRANCH   7   9
BRANCH   8  16
ATOM     16  O   UNL     1      -0.829  11.088  21.281  0.00  0.00    +0.000 OA
ATOM     17  H   UNL     1      -1.745  10.734  21.297  0.00  0.00    +0.000 HD
ENDBRANCH   8  16
ENDBRANCH   1   4
BRANCH   1  18
ATOM     18  C   UNL     1       2.032   6.325  19.559  0.00  0.00    +0.000 C 
BRANCH  18  19
ATOM     19  C   UNL     1       1.441   5.505  20.703  0.00  0.00    +0.000 C 
BRANCH  19  20
ATOM     20  C   UNL     1       1.420   3.995  20.437  0.00  0.00    +0.000 C 
BRANCH  20  21
ATOM     21  C   UNL     1       2.746   3.339  20.806  0.00  0.00    +0.000 C 
BRANCH  21  22
ATOM     22  O   UNL     1       3.205   2.482  19.762  0.00  0.00    +0.000 OA
BRANCH  22  23
ATOM     23  C   UNL     1       3.747   3.138  18.683  0.00  0.00    +0.000 A 
ATOM     24  C   UNL     1       3.095   3.363  17.464  0.00  0.00    +0.000 A 
ATOM     25  C   UNL     1       3.734   4.055  16.437  0.00  0.00    +0.000 A 
ATOM     26  C   UNL     1       5.028   4.526  16.628  0.00  0.00    +0.000 A 
ATOM     27  F   UNL     1       5.601   5.195  15.614  0.00  0.00    +0.000 F 
ATOM     28  C   UNL     1       5.700   4.312  17.833  0.00  0.00    +0.000 A 
ATOM     29  C   UNL     1       5.050   3.609  18.860  0.00  0.00    +0.000 A 
BRANCH  28  30
ATOM     30  C   UNL     1       7.078   4.814  18.071  0.00  0.00    +0.000 C 
ATOM     31  N   UNL     1       7.259   5.780  19.018  0.00  0.00    +0.000 N 
ATOM     32  O   UNL     1       8.040   4.374  17.442  0.00  0.00    +0.000 OA
ATOM     33  H   UNL     1       6.499   6.170  19.563  0.00  0.00    +0.000 HD
ATOM     34  H   UNL     1       8.199   6.108  19.190  0.00  0.00    +0.000 HD
ENDBRANCH  28  30
ENDBRANCH  22  23
ENDBRANCH  21  22
ENDBRANCH  20  21
ENDBRANCH  19  20
ENDBRANCH  18  19
ENDBRANCH   1  18
TORSDOF 12
ENDMDL
MODEL 9
REMARK VINA RESULT:      -7.1      2.044      2.548
REMARK  Name = 
REMARK  16 active torsions:
REMARK  status: ('A' for Active; 'I' for Inactive)
REMARK    1  A    between atoms: C_1  and  C_2
REMARK    2  A    between atoms: C_3  and  O_4
REMARK    3  A    between atoms: O_4  and  C_5
REMARK    4  A    between atoms: C_5  and  C_6
REMARK    5  A    between atoms: C_6  and  C_7
REMARK    6  A    between atoms: C_7  and  C_8
REMARK    7  A    between atoms: C_8  and  O_9
REMARK    8  A    between atoms: O_9  and  C_10
REMARK    9  A    between atoms: C_15  and  C_16
REMARK   10  A    between atoms: C_22  and  C_23
REMARK   11  A    between atoms: C_23  and  C_25
REMARK   12  A    between atoms: C_25  and  C_26
REMARK   13  A    between atoms: C_26  and  C_27
REMARK   14  A    between atoms: C_26  and  C_28
REMARK   15  A    between atoms: C_26  and  C_29
REMARK   16  A    between atoms: C_30  and  O_31
REMARK                            x       y       z     vdW  Elec       q    Type
REMARK                         _______ _______ _______ _____ _____    ______ ____
ROOT
ATOM      1  O   UNL     1       2.313   6.486  19.587  0.00  0.00    +0.000 OA
ENDROOT
BRANCH   1   4
ATOM      2  C   UNL     1       1.861   9.022  17.611  0.00  0.00    +0.000 C 
ATOM      3  C   UNL     1       1.614   8.867  19.092  0.00  0.00    +0.000 A 
ATOM      4  C   UNL     1       1.837   7.732  19.896  0.00  0.00    +0.000 A 
ATOM      5  C   UNL     1       1.541   7.801  21.274  0.00  0.00    +0.000 A 
ATOM      6  C   UNL     1       1.032   8.953  21.869  0.00  0.00    +0.000 A 
ATOM      7  C   UNL     1       0.799  10.087  21.096  0.00  0.00    +0.000 A 
ATOM      8  C   UNL     1       1.091  10.031  19.720  0.00  0.00    +0.000 A 
BRANCH   7   9
ATOM      9  C   UNL     1       0.256  11.339  21.711  0.00  0.00    +0.000 C 
ATOM     10  O   UNL     1       0.800  12.406  21.433  0.00  0.00    +0.000 OA
BRANCH   9  11
ATOM     11  C   UNL     1      -0.939  11.211  22.651  0.00  0.00    +0.000 C 
BRANCH  11  12
ATOM     12  C   UNL     1      -1.935  12.389  22.722  0.00  0.00    +0.000 C 
ATOM     13  C   UNL     1      -1.247  13.663  23.239  0.00  0.00    +0.000 C 
ATOM     14  C   UNL     1      -2.437  12.659  21.286  0.00  0.00    +0.000 C 
ATOM     15  C   UNL     1      -3.152  12.040  23.591  0.00  0.00    +0.000 C 
ENDBRANCH  11  12
ENDBRANCH   9  11
ENDBRANCH   7   9
BRANCH   8  16
ATOM     16  O   UNL     1       0.883  11.123  18.902  0.00  0.00    +0.000 OA
ATOM     17  H   UNL     1      -0.068  11.369  18.943  0.00  0.00    +0.000 HD
ENDBRANCH   8  16
ENDBRANCH   1   4
BRANCH   1  18
ATOM     18  C   UNL     1       1.991   5.394  20.423  0.00  0.00    +0.000 C 
BRANCH  18  19
ATOM     19  C   UNL     1       1.747   4.129  19.603  0.00  0.00    +0.000 C 
BRANCH  19  20
ATOM     20  C   UNL     1       2.724   2.989  19.917  0.00  0.00    +0.000 C 
BRANCH  20  21
ATOM     21  C   UNL     1       3.987   3.080  19.068  0.00  0.00    +0.000 C 
BRANCH  21  22
ATOM     22  O   UNL     1       5.049   3.706  19.787  0.00  0.00    +0.000 OA
BRANCH  22  23
ATOM     23  C   UNL     1       5.780   4.608  19.052  0.00  0.00    +0.000 A 
ATOM     24  C   UNL     1       6.907   5.301  19.513  0.00  0.00    +0.000 A 
ATOM     25  C   UNL     1       7.585   6.184  18.676  0.00  0.00    +0.000 A 
ATOM     26  C   UNL     1       7.139   6.376  17.374  0.00  0.00    +0.000 A 
ATOM     27  F   UNL     1       7.828   7.231  16.601  0.00  0.00    +0.000 F 
ATOM     28  C   UNL     1       6.016   5.699  16.891  0.00  0.00    +0.000 A 
ATOM     29  C   UNL     1       5.336   4.815  17.744  0.00  0.00    +0.000 A 
BRANCH  28  30
ATOM     30  C   UNL     1       5.523   5.875  15.501  0.00  0.00    +0.000 C 
ATOM     31  N   UNL     1       5.570   4.801  14.660  0.00  0.00    +0.000 N 
ATOM     32  O   UNL     1       5.076   6.952  15.108  0.00  0.00    +0.000 OA
ATOM     33  H   UNL     1       5.925   3.894  14.939  0.00  0.00    +0.000 HD
ATOM     34  H   UNL     1       5.218   4.918  13.719  0.00  0.00    +0.000 HD
ENDBRANCH  28  30
ENDBRANCH  22  23
ENDBRANCH  21  22
ENDBRANCH  20  21
ENDBRANCH  19  20
ENDBRANCH  18  19
ENDBRANCH   1  18
TORSDOF 12
ENDMDL
