MODEL 1
REMARK VINA RESULT:      -9.1      0.000      0.000
REMARK  Name = 
REMARK  10 active torsions:
REMARK  status: ('A' for Active; 'I' for Inactive)
REMARK    1  A    between atoms: C_1  and  C_2
REMARK    2  A    between atoms: C_2  and  C_3
REMARK    3  A    between atoms: C_3  and  N_4
REMARK    4  A    between atoms: C_6  and  C_7
REMARK    5  A    between atoms: C_8  and  C_9
REMARK    6  A    between atoms: C_9  and  O_11
REMARK    7  A    between atoms: C_12  and  C_13
REMARK    8  A    between atoms: C_13  and  C_14
REMARK    9  A    between atoms: C_17  and  C_18
REMARK   10  A    between atoms: C_23  and  C_24
REMARK                            x       y       z     vdW  Elec       q    Type
REMARK                         _______ _______ _______ _____ _____    ______ ____
ROOT
ATOM      1  C   UNL     1       2.490   7.600  18.629  0.00  0.00    +0.000 A 
ATOM      2  C   UNL     1       2.178   7.343  19.965  0.00  0.00    +0.000 A 
ATOM      3  C   UNL     1       1.300   8.182  20.658  0.00  0.00    +0.000 A 
ATOM      4  C   UNL     1       0.764   9.347  20.071  0.00  0.00    +0.000 A 
ATOM      5  C   UNL     1       1.165   9.627  18.755  0.00  0.00    +0.000 A 
ATOM      6  C   UNL     1       1.968   8.746  18.026  0.00  0.00    +0.000 A 
ENDROOT
BRANCH   4   7
ATOM      7  C   UNL     1      -0.158  10.237  20.836  0.00  0.00    +0.000 A 
ATOM      8  C   UNL     1      -0.040  10.266  22.248  0.00  0.00    +0.000 A 
ATOM      9  C   UNL     1      -0.857  11.060  23.056  0.00  0.00    +0.000 A 
ATOM     10  C   UNL     1      -1.806  11.884  22.474  0.00  0.00    +0.000 A 
ATOM     11  C   UNL     1      -1.939  11.905  21.088  0.00  0.00    +0.000 A 
ATOM     12  C   UNL     1      -1.145  11.082  20.259  0.00  0.00    +0.000 A 
BRANCH  12  13
ATOM     13  C   UNL     1      -1.409  11.179  18.828  0.00  0.00    +0.000 A 
ATOM     14  N   UNL     1      -2.020  10.161  18.126  0.00  0.00    +0.000 NA
ATOM     15  N   UNL     1      -2.170  10.588  16.881  0.00  0.00    +0.000 NA
ATOM     16  N   UNL     1      -1.640  11.815  16.882  0.00  0.00    +0.000 N 
ATOM     17  N   UNL     1      -1.115  12.228  18.044  0.00  0.00    +0.000 NA
ATOM     18  H   UNL     1      -1.654  12.406  16.054  0.00  0.00    +0.000 HD
ENDBRANCH  12  13
ENDBRANCH   4   7
BRANCH   1  19
ATOM     19  C   UNL     1       3.443   6.722  17.878  0.00  0.00    +0.000 C 
BRANCH  19  25
ATOM     20  N   UNL     1       5.204   5.033  18.802  0.00  0.00    +0.000 N 
ATOM     21  N   UNL     1       5.263   3.761  19.248  0.00  0.00    +0.000 NA
ATOM     22  C   UNL     1       4.040   3.275  19.088  0.00  0.00    +0.000 A 
ATOM     23  C   UNL     1       3.752   1.844  19.368  0.00  0.00    +0.000 C 
ATOM     24  C   UNL     1       3.135   4.271  18.653  0.00  0.00    +0.000 A 
ATOM     25  C   UNL     1       3.920   5.419  18.458  0.00  0.00    +0.000 A 
BRANCH  24  26
ATOM     26  C   UNL     1       1.717   4.070  18.382  0.00  0.00    +0.000 C 
ATOM     27  O   UNL     1       1.250   4.008  17.256  0.00  0.00    +0.000 OA
BRANCH  26  28
ATOM     28  O   UNL     1       0.933   3.908  19.478  0.00  0.00    +0.000 OA
ATOM     29  H   UNL     1       0.506   4.740  19.742  0.00  0.00    +0.000 HD
ENDBRANCH  26  28
ENDBRANCH  24  26
BRANCH  20  30
ATOM     30  C   UNL     1       6.491   5.698  18.675  0.00  0.00    +0.000 C 
BRANCH  30  32
ATOM     31  C   UNL     1       7.072   4.883  16.375  0.00  0.00    +0.000 C 
ATOM     32  C   UNL     1       7.500   4.923  17.834  0.00  0.00    +0.000 C 
ENDBRANCH  30  32
ENDBRANCH  20  30
ENDBRANCH  19  25
ENDBRANCH   1  19
TORSDOF 8
ENDMDL
MODEL 2
REMARK VINA RESULT:      -8.9      3.226      8.632
REMARK  Name = 
REMARK  10 active torsions:
REMARK  status: ('A' for Active; 'I' for Inactive)
REMARK    1  A    between atoms: C_1  and  C_2
REMARK    2  A    between atoms: C_2  and  C_3
REMARK    3  A    between atoms: C_3  and  N_4
REMARK    4  A    between atoms: C_6  and  C_7
REMARK    5  A    between atoms: C_8  and  C_9
REMARK    6  A    between atoms: C_9  and  O_11
REMARK    7  A    between atoms: C_12  and  C_13
REMARK    8  A    between atoms: C_13  and  C_14
REMARK    9  A    between atoms: C_17  and  C_18
REMARK   10  A    between atoms: C_23  and  C_24
REMARK                            x       y       z     vdW  Elec       q    Type
REMARK                         _______ _______ _______ _____ _____    ______ ____
ROOT
ATOM      1  C   UNL     1       1.248   8.934  19.614  0.00  0.00    +0.000 A 
ATOM      2  C   UNL     1       1.761   7.798  20.242  0.00  0.00    +0.000 A 
ATOM      3  C   UNL     1       2.610   6.931  19.547  0.00  0.00    +0.000 A 
ATOM      4  C   UNL     1       2.916   7.122  18.185  0.00  0.00    +0.000 A 
ATOM      5  C   UNL     1       2.317   8.225  17.556  0.00  0.00    +0.000 A 
ATOM      6  C   UNL     1       1.542   9.146  18.265  0.00  0.00    +0.000 A 
ENDROOT
BRANCH   4   7
ATOM      7  C   UNL     1       3.812   6.174  17.458  0.00  0.00    +0.000 A 
ATOM      8  C   UNL     1       4.922   6.710  16.758  0.00  0.00    +0.000 A 
ATOM      9  C   UNL     1       5.817   5.911  16.043  0.00  0.00    +0.000 A 
ATOM     10  C   UNL     1       5.652   4.536  16.029  0.00  0.00    +0.000 A 
ATOM     11  C   UNL     1       4.587   3.966  16.724  0.00  0.00    +0.000 A 
ATOM     12  C   UNL     1       3.654   4.762  17.423  0.00  0.00    +0.000 A 
BRANCH  12  13
ATOM     13  C   UNL     1       2.570   4.040  18.080  0.00  0.00    +0.000 A 
ATOM     14  N   UNL     1       1.319   3.921  17.512  0.00  0.00    +0.000 NA
ATOM     15  N   UNL     1       0.599   3.160  18.324  0.00  0.00    +0.000 NA
ATOM     16  N   UNL     1       1.426   2.872  19.334  0.00  0.00    +0.000 N 
ATOM     17  N   UNL     1       2.648   3.417  19.267  0.00  0.00    +0.000 NA
ATOM     18  H   UNL     1       1.147   2.259  20.096  0.00  0.00    +0.000 HD
ENDBRANCH  12  13
ENDBRANCH   4   7
BRANCH   1  19
ATOM     19  C   UNL     1       0.322   9.863  20.337  0.00  0.00    +0.000 C 
BRANCH  19  25
ATOM     20  N   UNL     1      -1.316  11.199  18.808  0.00  0.00    +0.000 N 
ATOM     21  N   UNL     1      -1.490  12.456  18.351  0.00  0.00    +0.000 NA
ATOM     22  C   UNL     1      -0.455  13.145  18.812  0.00  0.00    +0.000 A 
ATOM     23  C   UNL     1      -0.248  14.560  18.409  0.00  0.00    +0.000 C 
ATOM     24  C   UNL     1       0.341  12.368  19.686  0.00  0.00    +0.000 A 
ATOM     25  C   UNL     1      -0.233  11.087  19.663  0.00  0.00    +0.000 A 
BRANCH  24  26
ATOM     26  C   UNL     1       1.549  12.823  20.363  0.00  0.00    +0.000 C 
ATOM     27  O   UNL     1       1.615  13.008  21.569  0.00  0.00    +0.000 OA
BRANCH  26  28
ATOM     28  O   UNL     1       2.634  12.991  19.566  0.00  0.00    +0.000 OA
ATOM     29  H   UNL     1       2.913  13.922  19.529  0.00  0.00    +0.000 HD
ENDBRANCH  26  28
ENDBRANCH  24  26
BRANCH  20  30
ATOM     30  C   UNL     1      -2.220  10.211  18.242  0.00  0.00    +0.000 C 
BRANCH  30  32
ATOM     31  C   UNL     1      -3.060  10.278  15.879  0.00  0.00    +0.000 C 
ATOM     32  C   UNL     1      -1.913   9.863  16.789  0.00  0.00    +0.000 C 
ENDBRANCH  30  32
ENDBRANCH  20  30
ENDBRANCH  19  25
ENDBRANCH   1  19
TORSDOF 8
ENDMDL
MODEL 3
REMARK VINA RESULT:      -8.8      3.250      8.738
REMARK  Name = 
REMARK  10 active torsions:
REMARK  status: ('A' for Active; 'I' for Inactive)
REMARK    1  A    between atoms: C_1  and  C_2
REMARK    2  A    between atoms: C_2  and  C_3
REMARK    3  A    between atoms: C_3  and  N_4
REMARK    4  A    between atoms: C_6  and  C_7
REMARK    5  A    between atoms: C_8  and  C_9
REMARK    6  A    between atoms: C_9  and  O_11
REMARK    7  A    between atoms: C_12  and  C_13
REMARK    8  A    between atoms: C_13  and  C_14
REMARK    9  A    between atoms: C_17  and  C_18
REMARK   10  A    between atoms: C_23  and  C_24
REMARK                            x       y       z     vdW  Elec       q    Type
REMARK                         _______ _______ _______ _____ _____    ______ ____
ROOT
ATOM      1  C   UNL     1       1.284   8.844  19.461  0.00  0.00    +0.000 A 
ATOM      2  C   UNL     1       1.719   9.094  18.158  0.00  0.00    +0.000 A 
ATOM      3  C   UNL     1       2.560   8.185  17.511  0.00  0.00    +0.000 A 
ATOM      4  C   UNL     1       3.060   7.038  18.161  0.00  0.00    +0.000 A 
ATOM      5  C   UNL     1       2.675   6.859  19.499  0.00  0.00    +0.000 A 
ATOM      6  C   UNL     1       1.762   7.712  20.124  0.00  0.00    +0.000 A 
ENDROOT
BRANCH   4   7
ATOM      7  C   UNL     1       3.971   6.090  17.455  0.00  0.00    +0.000 A 
ATOM      8  C   UNL     1       5.095   6.625  16.778  0.00  0.00    +0.000 A 
ATOM      9  C   UNL     1       6.006   5.825  16.083  0.00  0.00    +0.000 A 
ATOM     10  C   UNL     1       5.841   4.450  16.067  0.00  0.00    +0.000 A 
ATOM     11  C   UNL     1       4.762   3.881  16.740  0.00  0.00    +0.000 A 
ATOM     12  C   UNL     1       3.814   4.677  17.418  0.00  0.00    +0.000 A 
BRANCH  12  13
ATOM     13  C   UNL     1       2.717   3.956  18.053  0.00  0.00    +0.000 A 
ATOM     14  N   UNL     1       1.471   3.857  17.470  0.00  0.00    +0.000 NA
ATOM     15  N   UNL     1       0.735   3.091  18.263  0.00  0.00    +0.000 NA
ATOM     16  N   UNL     1       1.548   2.780  19.277  0.00  0.00    +0.000 N 
ATOM     17  N   UNL     1       2.777   3.314  19.231  0.00  0.00    +0.000 NA
ATOM     18  H   UNL     1       1.256   2.158  20.027  0.00  0.00    +0.000 HD
ENDBRANCH  12  13
ENDBRANCH   4   7
BRANCH   1  19
ATOM     19  C   UNL     1       0.397   9.817  20.177  0.00  0.00    +0.000 C 
BRANCH  19  25
ATOM     20  N   UNL     1      -1.007  11.139  18.419  0.00  0.00    +0.000 N 
ATOM     21  N   UNL     1      -1.211  12.412  18.024  0.00  0.00    +0.000 NA
ATOM     22  C   UNL     1      -0.380  13.144  18.752  0.00  0.00    +0.000 A 
ATOM     23  C   UNL     1      -0.243  14.604  18.507  0.00  0.00    +0.000 C 
ATOM     24  C   UNL     1       0.288  12.363  19.725  0.00  0.00    +0.000 A 
ATOM     25  C   UNL     1      -0.128  11.044  19.484  0.00  0.00    +0.000 A 
BRANCH  24  26
ATOM     26  C   UNL     1       1.266  12.859  20.685  0.00  0.00    +0.000 C 
ATOM     27  O   UNL     1       2.440  13.054  20.408  0.00  0.00    +0.000 OA
BRANCH  26  28
ATOM     28  O   UNL     1       0.780  13.139  21.920  0.00  0.00    +0.000 OA
ATOM     29  H   UNL     1       0.845  12.373  22.516  0.00  0.00    +0.000 HD
ENDBRANCH  26  28
ENDBRANCH  24  26
BRANCH  20  30
ATOM     30  C   UNL     1      -1.657  10.130  17.597  0.00  0.00    +0.000 C 
BRANCH  30  32
ATOM     31  C   UNL     1      -2.813  10.198  15.372  0.00  0.00    +0.000 C 
ATOM     32  C   UNL     1      -2.861  10.656  16.822  0.00  0.00    +0.000 C 
ENDBRANCH  30  32
ENDBRANCH  20  30
ENDBRANCH  19  25
ENDBRANCH   1  19
TORSDOF 8
ENDMDL
MODEL 4
REMARK VINA RESULT:      -8.6      1.337      1.751
REMARK  Name = 
REMARK  10 active torsions:
REMARK  status: ('A' for Active; 'I' for Inactive)
REMARK    1  A    between atoms: C_1  and  C_2
REMARK    2  A    between atoms: C_2  and  C_3
REMARK    3  A    between atoms: C_3  and  N_4
REMARK    4  A    between atoms: C_6  and  C_7
REMARK    5  A    between atoms: C_8  and  C_9
REMARK    6  A    between atoms: C_9  and  O_11
REMARK    7  A    between atoms: C_12  and  C_13
REMARK    8  A    between atoms: C_13  and  C_14
REMARK    9  A    between atoms: C_17  and  C_18
REMARK   10  A    between atoms: C_23  and  C_24
REMARK                            x       y       z     vdW  Elec       q    Type
REMARK                         _______ _______ _______ _____ _____    ______ ____
ROOT
ATOM      1  C   UNL     1       2.366   7.427  18.690  0.00  0.00    +0.000 A 
ATOM      2  C   UNL     1       2.230   7.237  20.066  0.00  0.00    +0.000 A 
ATOM      3  C   UNL     1       1.523   8.163  20.839  0.00  0.00    +0.000 A 
ATOM      4  C   UNL     1       0.993   9.346  20.284  0.00  0.00    +0.000 A 
ATOM      5  C   UNL     1       1.221   9.552  18.914  0.00  0.00    +0.000 A 
ATOM      6  C   UNL     1       1.846   8.590  18.118  0.00  0.00    +0.000 A 
ENDROOT
BRANCH   4   7
ATOM      7  C   UNL     1       0.256  10.329  21.131  0.00  0.00    +0.000 A 
ATOM      8  C   UNL     1      -0.446   9.841  22.261  0.00  0.00    +0.000 A 
ATOM      9  C   UNL     1      -1.171  10.676  23.115  0.00  0.00    +0.000 A 
ATOM     10  C   UNL     1      -1.194  12.042  22.885  0.00  0.00    +0.000 A 
ATOM     11  C   UNL     1      -0.498  12.566  21.799  0.00  0.00    +0.000 A 
ATOM     12  C   UNL     1       0.212  11.732  20.907  0.00  0.00    +0.000 A 
BRANCH  12  13
ATOM     13  C   UNL     1       0.869  12.407  19.793  0.00  0.00    +0.000 A 
ATOM     14  N   UNL     1       2.186  12.813  19.857  0.00  0.00    +0.000 NA
ATOM     15  N   UNL     1       2.488  13.325  18.673  0.00  0.00    +0.000 NA
ATOM     16  N   UNL     1       1.359  13.222  17.965  0.00  0.00    +0.000 N 
ATOM     17  N   UNL     1       0.306  12.700  18.610  0.00  0.00    +0.000 NA
ATOM     18  H   UNL     1       1.310  13.505  16.990  0.00  0.00    +0.000 HD
ENDBRANCH  12  13
ENDBRANCH   4   7
BRANCH   1  19
ATOM     19  C   UNL     1       3.137   6.454  17.851  0.00  0.00    +0.000 C 
BRANCH  19  25
ATOM     20  N   UNL     1       5.143   5.002  18.672  0.00  0.00    +0.000 N 
ATOM     21  N   UNL     1       5.371   3.783  19.205  0.00  0.00    +0.000 NA
ATOM     22  C   UNL     1       4.187   3.188  19.242  0.00  0.00    +0.000 A 
ATOM     23  C   UNL     1       4.066   1.770  19.669  0.00  0.00    +0.000 C 
ATOM     24  C   UNL     1       3.149   4.066  18.849  0.00  0.00    +0.000 A 
ATOM     25  C   UNL     1       3.797   5.251  18.466  0.00  0.00    +0.000 A 
BRANCH  24  26
ATOM     26  C   UNL     1       1.733   3.728  18.780  0.00  0.00    +0.000 C 
ATOM     27  O   UNL     1       1.175   3.376  17.752  0.00  0.00    +0.000 OA
BRANCH  26  28
ATOM     28  O   UNL     1       1.062   3.785  19.958  0.00  0.00    +0.000 OA
ATOM     29  H   UNL     1       0.979   2.908  20.369  0.00  0.00    +0.000 HD
ENDBRANCH  26  28
ENDBRANCH  24  26
BRANCH  20  30
ATOM     30  C   UNL     1       6.339   5.754  18.329  0.00  0.00    +0.000 C 
BRANCH  30  32
ATOM     31  C   UNL     1       7.018   4.683  16.165  0.00  0.00    +0.000 C 
ATOM     32  C   UNL     1       7.402   4.923  17.617  0.00  0.00    +0.000 C 
ENDBRANCH  30  32
ENDBRANCH  20  30
ENDBRANCH  19  25
ENDBRANCH   1  19
TORSDOF 8
ENDMDL
MODEL 5
REMARK VINA RESULT:      -8.6      2.908      8.644
REMARK  Name = 
REMARK  10 active torsions:
REMARK  status: ('A' for Active; 'I' for Inactive)
REMARK    1  A    between atoms: C_1  and  C_2
REMARK    2  A    between atoms: C_2  and  C_3
REMARK    3  A    between atoms: C_3  and  N_4
REMARK    4  A    between atoms: C_6  and  C_7
REMARK    5  A    between atoms: C_8  and  C_9
REMARK    6  A    between atoms: C_9  and  O_11
REMARK    7  A    between atoms: C_12  and  C_13
REMARK    8  A    between atoms: C_13  and  C_14
REMARK    9  A    between atoms: C_17  and  C_18
REMARK   10  A    between atoms: C_23  and  C_24
REMARK                            x       y       z     vdW  Elec       q    Type
REMARK                         _______ _______ _______ _____ _____    ______ ____
ROOT
ATOM      1  C   UNL     1       1.516   9.106  19.194  0.00  0.00    +0.000 A 
ATOM      2  C   UNL     1       1.836   8.724  17.890  0.00  0.00    +0.000 A 
ATOM      3  C   UNL     1       2.164   7.395  17.606  0.00  0.00    +0.000 A 
ATOM      4  C   UNL     1       2.260   6.419  18.618  0.00  0.00    +0.000 A 
ATOM      5  C   UNL     1       2.018   6.852  19.932  0.00  0.00    +0.000 A 
ATOM      6  C   UNL     1       1.601   8.155  20.213  0.00  0.00    +0.000 A 
ENDROOT
BRANCH   4   7
ATOM      7  C   UNL     1       2.628   5.009  18.294  0.00  0.00    +0.000 A 
ATOM      8  C   UNL     1       1.672   3.994  18.551  0.00  0.00    +0.000 A 
ATOM      9  C   UNL     1       1.918   2.645  18.289  0.00  0.00    +0.000 A 
ATOM     10  C   UNL     1       3.125   2.262  17.726  0.00  0.00    +0.000 A 
ATOM     11  C   UNL     1       4.083   3.231  17.436  0.00  0.00    +0.000 A 
ATOM     12  C   UNL     1       3.863   4.595  17.727  0.00  0.00    +0.000 A 
BRANCH  12  13
ATOM     13  C   UNL     1       4.961   5.498  17.401  0.00  0.00    +0.000 A 
ATOM     14  N   UNL     1       5.151   5.992  16.128  0.00  0.00    +0.000 NA
ATOM     15  N   UNL     1       6.181   6.824  16.187  0.00  0.00    +0.000 NA
ATOM     16  N   UNL     1       6.570   6.785  17.465  0.00  0.00    +0.000 N 
ATOM     17  N   UNL     1       5.884   5.955  18.263  0.00  0.00    +0.000 NA
ATOM     18  H   UNL     1       7.328   7.367  17.812  0.00  0.00    +0.000 HD
ENDBRANCH  12  13
ENDBRANCH   4   7
BRANCH   1  19
ATOM     19  C   UNL     1       1.182  10.530  19.519  0.00  0.00    +0.000 C 
BRANCH  19  25
ATOM     20  N   UNL     1      -1.283  10.813  18.710  0.00  0.00    +0.000 N 
ATOM     21  N   UNL     1      -2.424  11.414  19.104  0.00  0.00    +0.000 NA
ATOM     22  C   UNL     1      -2.109  12.082  20.205  0.00  0.00    +0.000 A 
ATOM     23  C   UNL     1      -3.103  12.969  20.863  0.00  0.00    +0.000 C 
ATOM     24  C   UNL     1      -0.780  11.818  20.612  0.00  0.00    +0.000 A 
ATOM     25  C   UNL     1      -0.248  10.990  19.611  0.00  0.00    +0.000 A 
BRANCH  24  26
ATOM     26  C   UNL     1      -0.121  12.390  21.780  0.00  0.00    +0.000 C 
ATOM     27  O   UNL     1       0.675  13.315  21.717  0.00  0.00    +0.000 OA
BRANCH  26  28
ATOM     28  O   UNL     1      -0.482  11.855  22.973  0.00  0.00    +0.000 OA
ATOM     29  H   UNL     1      -1.251  11.267  22.887  0.00  0.00    +0.000 HD
ENDBRANCH  26  28
ENDBRANCH  24  26
BRANCH  20  30
ATOM     30  C   UNL     1      -1.337  10.199  17.393  0.00  0.00    +0.000 C 
BRANCH  30  32
ATOM     31  C   UNL     1      -2.857  10.293  15.400  0.00  0.00    +0.000 C 
ATOM     32  C   UNL     1      -2.756   9.968  16.883  0.00  0.00    +0.000 C 
ENDBRANCH  30  32
ENDBRANCH  20  30
ENDBRANCH  19  25
ENDBRANCH   1  19
TORSDOF 8
ENDMDL
MODEL 6
REMARK VINA RESULT:      -8.6      1.311      2.027
REMARK  Name = 
REMARK  10 active torsions:
REMARK  status: ('A' for Active; 'I' for Inactive)
REMARK    1  A    between atoms: C_1  and  C_2
REMARK    2  A    between atoms: C_2  and  C_3
REMARK    3  A    between atoms: C_3  and  N_4
REMARK    4  A    between atoms: C_6  and  C_7
REMARK    5  A    between atoms: C_8  and  C_9
REMARK    6  A    between atoms: C_9  and  O_11
REMARK    7  A    between atoms: C_12  and  C_13
REMARK    8  A    between atoms: C_13  and  C_14
REMARK    9  A    between atoms: C_17  and  C_18
REMARK   10  A    between atoms: C_23  and  C_24
REMARK                            x       y       z     vdW  Elec       q    Type
REMARK                         _______ _______ _______ _____ _____    ______ ____
ROOT
ATOM      1  C   UNL     1       2.470   7.532  18.684  0.00  0.00    +0.000 A 
ATOM      2  C   UNL     1       1.863   8.659  18.126  0.00  0.00    +0.000 A 
ATOM      3  C   UNL     1       1.174   9.563  18.939  0.00  0.00    +0.000 A 
ATOM      4  C   UNL     1       0.998   9.339  20.320  0.00  0.00    +0.000 A 
ATOM      5  C   UNL     1       1.545   8.153  20.837  0.00  0.00    +0.000 A 
ATOM      6  C   UNL     1       2.313   7.291  20.050  0.00  0.00    +0.000 A 
ENDROOT
BRANCH   4   7
ATOM      7  C   UNL     1       0.244  10.309  21.166  0.00  0.00    +0.000 A 
ATOM      8  C   UNL     1      -0.458   9.809  22.291  0.00  0.00    +0.000 A 
ATOM      9  C   UNL     1      -1.198  10.632  23.144  0.00  0.00    +0.000 A 
ATOM     10  C   UNL     1      -1.236  11.998  22.919  0.00  0.00    +0.000 A 
ATOM     11  C   UNL     1      -0.541  12.534  21.838  0.00  0.00    +0.000 A 
ATOM     12  C   UNL     1       0.184  11.713  20.947  0.00  0.00    +0.000 A 
BRANCH  12  13
ATOM     13  C   UNL     1       0.839  12.400  19.840  0.00  0.00    +0.000 A 
ATOM     14  N   UNL     1       2.151  12.818  19.911  0.00  0.00    +0.000 NA
ATOM     15  N   UNL     1       2.453  13.340  18.730  0.00  0.00    +0.000 NA
ATOM     16  N   UNL     1       1.327  13.228  18.017  0.00  0.00    +0.000 N 
ATOM     17  N   UNL     1       0.278  12.692  18.655  0.00  0.00    +0.000 NA
ATOM     18  H   UNL     1       1.280  13.516  17.043  0.00  0.00    +0.000 HD
ENDBRANCH  12  13
ENDBRANCH   4   7
BRANCH   1  19
ATOM     19  C   UNL     1       3.196   6.543  17.824  0.00  0.00    +0.000 C 
BRANCH  19  25
ATOM     20  N   UNL     1       5.130   5.002  18.658  0.00  0.00    +0.000 N 
ATOM     21  N   UNL     1       5.304   3.758  19.149  0.00  0.00    +0.000 NA
ATOM     22  C   UNL     1       4.104   3.196  19.119  0.00  0.00    +0.000 A 
ATOM     23  C   UNL     1       3.929   1.765  19.482  0.00  0.00    +0.000 C 
ATOM     24  C   UNL     1       3.106   4.117  18.724  0.00  0.00    +0.000 A 
ATOM     25  C   UNL     1       3.800   5.298  18.413  0.00  0.00    +0.000 A 
BRANCH  24  26
ATOM     26  C   UNL     1       1.685   3.823  18.590  0.00  0.00    +0.000 C 
ATOM     27  O   UNL     1       0.949   3.612  19.541  0.00  0.00    +0.000 OA
BRANCH  26  28
ATOM     28  O   UNL     1       1.205   3.838  17.321  0.00  0.00    +0.000 OA
ATOM     29  H   UNL     1       0.363   4.320  17.259  0.00  0.00    +0.000 HD
ENDBRANCH  26  28
ENDBRANCH  24  26
BRANCH  20  30
ATOM     30  C   UNL     1       6.358   5.733  18.390  0.00  0.00    +0.000 C 
BRANCH  30  32
ATOM     31  C   UNL     1       7.004   4.587  16.254  0.00  0.00    +0.000 C 
ATOM     32  C   UNL     1       7.423   4.901  17.682  0.00  0.00    +0.000 C 
ENDBRANCH  30  32
ENDBRANCH  20  30
ENDBRANCH  19  25
ENDBRANCH   1  19
TORSDOF 8
ENDMDL
MODEL 7
REMARK VINA RESULT:      -8.6      2.498      8.301
REMARK  Name = 
REMARK  10 active torsions:
REMARK  status: ('A' for Active; 'I' for Inactive)
REMARK    1  A    between atoms: C_1  and  C_2
REMARK    2  A    between atoms: C_2  and  C_3
REMARK    3  A    between atoms: C_3  and  N_4
REMARK    4  A    between atoms: C_6  and  C_7
REMARK    5  A    between atoms: C_8  and  C_9
REMARK    6  A    between atoms: C_9  and  O_11
REMARK    7  A    between atoms: C_12  and  C_13
REMARK    8  A    between atoms: C_13  and  C_14
REMARK    9  A    between atoms: C_17  and  C_18
REMARK   10  A    between atoms: C_23  and  C_24
REMARK                            x       y       z     vdW  Elec       q    Type
REMARK                         _______ _______ _______ _____ _____    ______ ____
ROOT
ATOM      1  C   UNL     1       1.262   9.510  18.962  0.00  0.00    +0.000 A 
ATOM      2  C   UNL     1       1.806   8.713  17.953  0.00  0.00    +0.000 A 
ATOM      3  C   UNL     1       2.206   7.402  18.230  0.00  0.00    +0.000 A 
ATOM      4  C   UNL     1       2.150   6.866  19.533  0.00  0.00    +0.000 A 
ATOM      5  C   UNL     1       1.679   7.720  20.543  0.00  0.00    +0.000 A 
ATOM      6  C   UNL     1       1.193   8.998  20.259  0.00  0.00    +0.000 A 
ENDROOT
BRANCH   4   7
ATOM      7  C   UNL     1       2.598   5.469  19.808  0.00  0.00    +0.000 A 
ATOM      8  C   UNL     1       1.898   4.725  20.791  0.00  0.00    +0.000 A 
ATOM      9  C   UNL     1       2.241   3.413  21.128  0.00  0.00    +0.000 A 
ATOM     10  C   UNL     1       3.281   2.783  20.466  0.00  0.00    +0.000 A 
ATOM     11  C   UNL     1       3.980   3.469  19.476  0.00  0.00    +0.000 A 
ATOM     12  C   UNL     1       3.670   4.807  19.148  0.00  0.00    +0.000 A 
BRANCH  12  13
ATOM     13  C   UNL     1       4.501   5.417  18.117  0.00  0.00    +0.000 A 
ATOM     14  N   UNL     1       5.597   6.196  18.424  0.00  0.00    +0.000 NA
ATOM     15  N   UNL     1       6.162   6.536  17.275  0.00  0.00    +0.000 NA
ATOM     16  N   UNL     1       5.389   5.971  16.342  0.00  0.00    +0.000 N 
ATOM     17  N   UNL     1       4.321   5.298  16.791  0.00  0.00    +0.000 NA
ATOM     18  H   UNL     1       5.612   6.034  15.352  0.00  0.00    +0.000 HD
ENDBRANCH  12  13
ENDBRANCH   4   7
BRANCH   1  19
ATOM     19  C   UNL     1       0.846  10.922  18.687  0.00  0.00    +0.000 C 
BRANCH  19  25
ATOM     20  N   UNL     1      -0.889  11.977  20.326  0.00  0.00    +0.000 N 
ATOM     21  N   UNL     1      -2.204  12.276  20.367  0.00  0.00    +0.000 NA
ATOM     22  C   UNL     1      -2.705  11.821  19.227  0.00  0.00    +0.000 A 
ATOM     23  C   UNL     1      -4.168  11.871  18.969  0.00  0.00    +0.000 C 
ATOM     24  C   UNL     1      -1.691  11.332  18.370  0.00  0.00    +0.000 A 
ATOM     25  C   UNL     1      -0.504  11.432  19.114  0.00  0.00    +0.000 A 
BRANCH  24  26
ATOM     26  C   UNL     1      -1.901  10.764  17.045  0.00  0.00    +0.000 C 
ATOM     27  O   UNL     1      -1.831   9.568  16.807  0.00  0.00    +0.000 OA
BRANCH  26  28
ATOM     28  O   UNL     1      -2.230  11.654  16.075  0.00  0.00    +0.000 OA
ATOM     29  H   UNL     1      -2.372  11.218  15.218  0.00  0.00    +0.000 HD
ENDBRANCH  26  28
ENDBRANCH  24  26
BRANCH  20  30
ATOM     30  C   UNL     1      -0.174  12.186  21.574  0.00  0.00    +0.000 C 
BRANCH  30  32
ATOM     31  C   UNL     1      -0.835  10.293  23.081  0.00  0.00    +0.000 C 
ATOM     32  C   UNL     1      -0.970  11.784  22.811  0.00  0.00    +0.000 C 
ENDBRANCH  30  32
ENDBRANCH  20  30
ENDBRANCH  19  25
ENDBRANCH   1  19
TORSDOF 8
ENDMDL
MODEL 8
REMARK VINA RESULT:      -8.5      3.085      8.574
REMARK  Name = 
REMARK  10 active torsions:
REMARK  status: ('A' for Active; 'I' for Inactive)
REMARK    1  A    between atoms: C_1  and  C_2
REMARK    2  A    between atoms: C_2  and  C_3
REMARK    3  A    between atoms: C_3  and  N_4
REMARK    4  A    between atoms: C_6  and  C_7
REMARK    5  A    between atoms: C_8  and  C_9
REMARK    6  A    between atoms: C_9  and  O_11
REMARK    7  A    between atoms: C_12  and  C_13
REMARK    8  A    between atoms: C_13  and  C_14
REMARK    9  A    between atoms: C_17  and  C_18
REMARK   10  A    between atoms: C_23  and  C_24
REMARK                            x       y       z     vdW  Elec       q    Type
REMARK                         _______ _______ _______ _____ _____    ______ ____
ROOT
ATOM      1  C   UNL     1       1.926   8.775  18.661  0.00  0.00    +0.000 A 
ATOM      2  C   UNL     1       1.635   8.447  19.986  0.00  0.00    +0.000 A 
ATOM      3  C   UNL     1       1.845   7.146  20.452  0.00  0.00    +0.000 A 
ATOM      4  C   UNL     1       2.277   6.110  19.599  0.00  0.00    +0.000 A 
ATOM      5  C   UNL     1       2.478   6.450  18.252  0.00  0.00    +0.000 A 
ATOM      6  C   UNL     1       2.359   7.765  17.799  0.00  0.00    +0.000 A 
ENDROOT
BRANCH   4   7
ATOM      7  C   UNL     1       2.478   4.723  20.115  0.00  0.00    +0.000 A 
ATOM      8  C   UNL     1       1.437   4.138  20.878  0.00  0.00    +0.000 A 
ATOM      9  C   UNL     1       1.528   2.850  21.411  0.00  0.00    +0.000 A 
ATOM     10  C   UNL     1       2.656   2.083  21.170  0.00  0.00    +0.000 A 
ATOM     11  C   UNL     1       3.693   2.612  20.404  0.00  0.00    +0.000 A 
ATOM     12  C   UNL     1       3.632   3.925  19.887  0.00  0.00    +0.000 A 
BRANCH  12  13
ATOM     13  C   UNL     1       4.799   4.364  19.131  0.00  0.00    +0.000 A 
ATOM     14  N   UNL     1       5.850   5.030  19.726  0.00  0.00    +0.000 NA
ATOM     15  N   UNL     1       6.764   5.224  18.786  0.00  0.00    +0.000 NA
ATOM     16  N   UNL     1       6.229   4.691  17.683  0.00  0.00    +0.000 N 
ATOM     17  N   UNL     1       4.998   4.176  17.816  0.00  0.00    +0.000 NA
ATOM     18  H   UNL     1       6.736   4.660  16.803  0.00  0.00    +0.000 HD
ENDBRANCH  12  13
ENDBRANCH   4   7
BRANCH   1  19
ATOM     19  C   UNL     1       1.689  10.159  18.140  0.00  0.00    +0.000 C 
BRANCH  19  25
ATOM     20  N   UNL     1      -0.827  10.839  18.266  0.00  0.00    +0.000 N 
ATOM     21  N   UNL     1      -1.602  11.786  18.834  0.00  0.00    +0.000 NA
ATOM     22  C   UNL     1      -0.761  12.607  19.449  0.00  0.00    +0.000 A 
ATOM     23  C   UNL     1      -1.255  13.850  20.097  0.00  0.00    +0.000 C 
ATOM     24  C   UNL     1       0.569  12.129  19.393  0.00  0.00    +0.000 A 
ATOM     25  C   UNL     1       0.509  10.971  18.601  0.00  0.00    +0.000 A 
BRANCH  24  26
ATOM     26  C   UNL     1       1.733  12.790  19.969  0.00  0.00    +0.000 C 
ATOM     27  O   UNL     1       2.005  12.758  21.159  0.00  0.00    +0.000 OA
BRANCH  26  28
ATOM     28  O   UNL     1       2.541  13.424  19.081  0.00  0.00    +0.000 OA
ATOM     29  H   UNL     1       2.857  14.276  19.425  0.00  0.00    +0.000 HD
ENDBRANCH  26  28
ENDBRANCH  24  26
BRANCH  20  30
ATOM     30  C   UNL     1      -1.521   9.949  17.349  0.00  0.00    +0.000 C 
BRANCH  30  32
ATOM     31  C   UNL     1      -2.854  10.346  15.261  0.00  0.00    +0.000 C 
ATOM     32  C   UNL     1      -2.800  10.544  16.769  0.00  0.00    +0.000 C 
ENDBRANCH  30  32
ENDBRANCH  20  30
ENDBRANCH  19  25
ENDBRANCH   1  19
TORSDOF 8
ENDMDL
MODEL 9
REMARK VINA RESULT:      -8.5      2.868      4.010
REMARK  Name = 
REMARK  10 active torsions:
REMARK  status: ('A' for Active; 'I' for Inactive)
REMARK    1  A    between atoms: C_1  and  C_2
REMARK    2  A    between atoms: C_2  and  C_3
REMARK    3  A    between atoms: C_3  and  N_4
REMARK    4  A    between atoms: C_6  and  C_7
REMARK    5  A    between atoms: C_8  and  C_9
REMARK    6  A    between atoms: C_9  and  O_11
REMARK    7  A    between atoms: C_12  and  C_13
REMARK    8  A    between atoms: C_13  and  C_14
REMARK    9  A    between atoms: C_17  and  C_18
REMARK   10  A    between atoms: C_23  and  C_24
REMARK                            x       y       z     vdW  Elec       q    Type
REMARK                         _______ _______ _______ _____ _____    ______ ____
ROOT
ATOM      1  C   UNL     1       2.541   7.502  19.115  0.00  0.00    +0.000 A 
ATOM      2  C   UNL     1       1.798   7.856  20.243  0.00  0.00    +0.000 A 
ATOM      3  C   UNL     1       0.785   8.814  20.147  0.00  0.00    +0.000 A 
ATOM      4  C   UNL     1       0.526   9.507  18.947  0.00  0.00    +0.000 A 
ATOM      5  C   UNL     1       1.347   9.193  17.852  0.00  0.00    +0.000 A 
ATOM      6  C   UNL     1       2.300   8.173  17.915  0.00  0.00    +0.000 A 
ENDROOT
BRANCH   4   7
ATOM      7  C   UNL     1      -0.550  10.538  18.872  0.00  0.00    +0.000 A 
ATOM      8  C   UNL     1      -1.817  10.145  18.372  0.00  0.00    +0.000 A 
ATOM      9  C   UNL     1      -2.889  11.033  18.256  0.00  0.00    +0.000 A 
ATOM     10  C   UNL     1      -2.742  12.347  18.669  0.00  0.00    +0.000 A 
ATOM     11  C   UNL     1      -1.520  12.769  19.188  0.00  0.00    +0.000 A 
ATOM     12  C   UNL     1      -0.416  11.893  19.281  0.00  0.00    +0.000 A 
BRANCH  12  13
ATOM     13  C   UNL     1       0.811  12.473  19.813  0.00  0.00    +0.000 A 
ATOM     14  N   UNL     1       1.088  12.489  21.164  0.00  0.00    +0.000 NA
ATOM     15  N   UNL     1       2.294  13.019  21.304  0.00  0.00    +0.000 NA
ATOM     16  N   UNL     1       2.680  13.307  20.057  0.00  0.00    +0.000 N 
ATOM     17  N   UNL     1       1.795  13.032  19.089  0.00  0.00    +0.000 NA
ATOM     18  H   UNL     1       3.599  13.693  19.856  0.00  0.00    +0.000 HD
ENDBRANCH  12  13
ENDBRANCH   4   7
BRANCH   1  19
ATOM     19  C   UNL     1       3.643   6.492  19.204  0.00  0.00    +0.000 C 
BRANCH  19  25
ATOM     20  N   UNL     1       3.111   4.529  17.569  0.00  0.00    +0.000 N 
ATOM     21  N   UNL     1       3.708   3.833  16.580  0.00  0.00    +0.000 NA
ATOM     22  C   UNL     1       4.945   4.307  16.514  0.00  0.00    +0.000 A 
ATOM     23  C   UNL     1       5.944   3.690  15.602  0.00  0.00    +0.000 C 
ATOM     24  C   UNL     1       5.127   5.411  17.379  0.00  0.00    +0.000 A 
ATOM     25  C   UNL     1       3.914   5.536  18.075  0.00  0.00    +0.000 A 
BRANCH  24  26
ATOM     26  C   UNL     1       6.366   6.162  17.547  0.00  0.00    +0.000 C 
ATOM     27  O   UNL     1       7.272   5.807  18.285  0.00  0.00    +0.000 OA
BRANCH  26  28
ATOM     28  O   UNL     1       6.476   7.280  16.787  0.00  0.00    +0.000 OA
ATOM     29  H   UNL     1       6.523   7.070  15.839  0.00  0.00    +0.000 HD
ENDBRANCH  26  28
ENDBRANCH  24  26
BRANCH  20  30
ATOM     30  C   UNL     1       1.807   4.026  17.972  0.00  0.00    +0.000 C 
BRANCH  30  32
ATOM     31  C   UNL     1       1.008   4.055  20.349  0.00  0.00    +0.000 C 
ATOM     32  C   UNL     1       1.820   3.295  19.311  0.00  0.00    +0.000 C 
ENDBRANCH  30  32
ENDBRANCH  20  30
ENDBRANCH  19  25
ENDBRANCH   1  19
TORSDOF 8
ENDMDL
