MODEL 1
REMARK VINA RESULT:      -7.6      0.000      0.000
REMARK  Name = 
REMARK  4 active torsions:
REMARK  status: ('A' for Active; 'I' for Inactive)
REMARK    1  A    between atoms: C_1  and  C_2
REMARK    2  A    between atoms: C_2  and  C_3
REMARK    3  A    between atoms: N_5  and  C_6
REMARK    4  A    between atoms: C_8  and  C_9
REMARK                            x       y       z     vdW  Elec       q    Type
REMARK                         _______ _______ _______ _____ _____    ______ ____
ROOT
ATOM      1  C   UNL     1      -1.681  11.941  19.509  0.00  0.00    +0.000 C 
ATOM      2  C   UNL     1      -2.132  13.133  20.414  0.00  0.00    +0.000 C 
ATOM      3  C   UNL     1      -2.097  12.709  21.902  0.00  0.00    +0.000 C 
ATOM      4  C   UNL     1      -1.317  11.433  21.856  0.00  0.00    +0.000 A 
ATOM      5  C   UNL     1      -0.799  10.742  22.948  0.00  0.00    +0.000 A 
ATOM      6  C   UNL     1      -0.014   9.608  22.717  0.00  0.00    +0.000 A 
ATOM      7  C   UNL     1       0.251   9.198  21.407  0.00  0.00    +0.000 A 
ATOM      8 CL   UNL     1       1.218   7.800  21.133  0.00  0.00    +0.000 Cl
ATOM      9  C   UNL     1      -0.251   9.913  20.315  0.00  0.00    +0.000 A 
ATOM     10  C   UNL     1      -1.061  11.020  20.545  0.00  0.00    +0.000 A 
ENDROOT
BRANCH   1  15
ATOM     11  C   UNL     1      -5.766  10.618  18.697  0.00  0.00    +0.000 C 
ATOM     12  C   UNL     1      -5.156  11.750  17.846  0.00  0.00    +0.000 C 
ATOM     13  C   UNL     1      -6.226  12.838  17.642  0.00  0.00    +0.000 C 
ATOM     14  C   UNL     1      -3.917  12.361  18.579  0.00  0.00    +0.000 C 
ATOM     15  N   UNL     1      -2.804  11.378  18.725  0.00  0.00    +0.000 NA
ATOM     16  C   UNL     1      -2.426  10.984  17.347  0.00  0.00    +0.000 C 
ATOM     17  C   UNL     1      -3.611  10.399  16.543  0.00  0.00    +0.000 C 
ATOM     18  N   UNL     1      -4.790  11.268  16.497  0.00  0.00    +0.000 NA
ATOM     19  H   UNL     1      -5.571  10.754  16.091  0.00  0.00    +0.000 HD
ENDBRANCH   1  15
BRANCH   3  20
ATOM     20  C   UNL     1      -3.471  12.638  22.542  0.00  0.00    +0.000 A 
ATOM     21  C   UNL     1      -4.647  12.845  21.800  0.00  0.00    +0.000 A 
ATOM     22  C   UNL     1      -5.887  12.907  22.438  0.00  0.00    +0.000 A 
ATOM     23  C   UNL     1      -5.960  12.757  23.819  0.00  0.00    +0.000 A 
ATOM     24  F   UNL     1      -7.144  12.858  24.434  0.00  0.00    +0.000 F 
ATOM     25  C   UNL     1      -4.817  12.507  24.568  0.00  0.00    +0.000 A 
ATOM     26  C   UNL     1      -3.574  12.451  23.931  0.00  0.00    +0.000 A 
ENDBRANCH   3  20
TORSDOF 2
ENDMDL
MODEL 2
REMARK VINA RESULT:      -7.2      0.260      1.001
REMARK  Name = 
REMARK  4 active torsions:
REMARK  status: ('A' for Active; 'I' for Inactive)
REMARK    1  A    between atoms: C_1  and  C_2
REMARK    2  A    between atoms: C_2  and  C_3
REMARK    3  A    between atoms: N_5  and  C_6
REMARK    4  A    between atoms: C_8  and  C_9
REMARK                            x       y       z     vdW  Elec       q    Type
REMARK                         _______ _______ _______ _____ _____    ______ ____
ROOT
ATOM      1  C   UNL     1      -1.777  12.088  19.586  0.00  0.00    +0.000 C 
ATOM      2  C   UNL     1      -2.194  13.301  20.478  0.00  0.00    +0.000 C 
ATOM      3  C   UNL     1      -2.150  12.899  21.972  0.00  0.00    +0.000 C 
ATOM      4  C   UNL     1      -1.396  11.607  21.936  0.00  0.00    +0.000 A 
ATOM      5  C   UNL     1      -0.879  10.922  23.032  0.00  0.00    +0.000 A 
ATOM      6  C   UNL     1      -0.120   9.769  22.809  0.00  0.00    +0.000 A 
ATOM      7  C   UNL     1       0.121   9.334  21.502  0.00  0.00    +0.000 A 
ATOM      8 CL   UNL     1       1.056   7.913  21.238  0.00  0.00    +0.000 Cl
ATOM      9  C   UNL     1      -0.379  10.043  20.406  0.00  0.00    +0.000 A 
ATOM     10  C   UNL     1      -1.164  11.169  20.628  0.00  0.00    +0.000 A 
ENDROOT
BRANCH   1  15
ATOM     11  C   UNL     1      -5.863  10.704  18.885  0.00  0.00    +0.000 C 
ATOM     12  C   UNL     1      -5.318  11.892  18.067  0.00  0.00    +0.000 C 
ATOM     13  C   UNL     1      -6.421  12.961  17.966  0.00  0.00    +0.000 C 
ATOM     14  C   UNL     1      -4.062  12.497  18.776  0.00  0.00    +0.000 C 
ATOM     15  N   UNL     1      -2.921  11.536  18.824  0.00  0.00    +0.000 NA
ATOM     16  C   UNL     1      -2.595  11.221  17.413  0.00  0.00    +0.000 C 
ATOM     17  C   UNL     1      -3.801  10.647  16.632  0.00  0.00    +0.000 C 
ATOM     18  N   UNL     1      -5.001  11.487  16.681  0.00  0.00    +0.000 NA
ATOM     19  H   UNL     1      -5.787  10.974  16.284  0.00  0.00    +0.000 HD
ENDBRANCH   1  15
BRANCH   3  20
ATOM     20  C   UNL     1      -3.517  12.865  22.629  0.00  0.00    +0.000 A 
ATOM     21  C   UNL     1      -3.675  12.588  23.998  0.00  0.00    +0.000 A 
ATOM     22  C   UNL     1      -4.949  12.431  24.547  0.00  0.00    +0.000 A 
ATOM     23  C   UNL     1      -6.071  12.556  23.735  0.00  0.00    +0.000 A 
ATOM     24  F   UNL     1      -7.289  12.364  24.253  0.00  0.00    +0.000 F 
ATOM     25  C   UNL     1      -5.941  12.872  22.388  0.00  0.00    +0.000 A 
ATOM     26  C   UNL     1      -4.666  13.024  21.836  0.00  0.00    +0.000 A 
ENDBRANCH   3  20
TORSDOF 2
ENDMDL
MODEL 3
REMARK VINA RESULT:      -6.9      3.449      5.884
REMARK  Name = 
REMARK  4 active torsions:
REMARK  status: ('A' for Active; 'I' for Inactive)
REMARK    1  A    between atoms: C_1  and  C_2
REMARK    2  A    between atoms: C_2  and  C_3
REMARK    3  A    between atoms: N_5  and  C_6
REMARK    4  A    between atoms: C_8  and  C_9
REMARK                            x       y       z     vdW  Elec       q    Type
REMARK                         _______ _______ _______ _____ _____    ______ ____
ROOT
ATOM      1  C   UNL     1      -0.001  11.860  21.717  0.00  0.00    +0.000 C 
ATOM      2  C   UNL     1      -0.507  10.530  21.071  0.00  0.00    +0.000 C 
ATOM      3  C   UNL     1      -0.153  10.506  19.565  0.00  0.00    +0.000 C 
ATOM      4  C   UNL     1       0.830  11.628  19.446  0.00  0.00    +0.000 A 
ATOM      5  C   UNL     1       1.637  11.907  18.347  0.00  0.00    +0.000 A 
ATOM      6  C   UNL     1       2.568  12.946  18.441  0.00  0.00    +0.000 A 
ATOM      7  C   UNL     1       2.684  13.673  19.629  0.00  0.00    +0.000 A 
ATOM      8 CL   UNL     1       3.833  14.952  19.734  0.00  0.00    +0.000 Cl
ATOM      9  C   UNL     1       1.889  13.369  20.738  0.00  0.00    +0.000 A 
ATOM     10  C   UNL     1       0.938  12.360  20.634  0.00  0.00    +0.000 A 
ENDROOT
BRANCH   1  15
ATOM     11  C   UNL     1      -4.138  13.223  22.063  0.00  0.00    +0.000 C 
ATOM     12  C   UNL     1      -3.304  13.011  23.343  0.00  0.00    +0.000 C 
ATOM     13  C   UNL     1      -4.191  12.322  24.395  0.00  0.00    +0.000 C 
ATOM     14  C   UNL     1      -2.064  12.110  23.028  0.00  0.00    +0.000 C 
ATOM     15  N   UNL     1      -1.115  12.765  22.081  0.00  0.00    +0.000 NA
ATOM     16  C   UNL     1      -0.671  14.012  22.747  0.00  0.00    +0.000 C 
ATOM     17  C   UNL     1      -1.847  14.945  23.122  0.00  0.00    +0.000 C 
ATOM     18  N   UNL     1      -2.887  14.302  23.930  0.00  0.00    +0.000 NA
ATOM     19  H   UNL     1      -3.691  14.924  24.001  0.00  0.00    +0.000 HD
ENDBRANCH   1  15
BRANCH   3  20
ATOM     20  C   UNL     1      -1.366  10.572  18.657  0.00  0.00    +0.000 A 
ATOM     21  C   UNL     1      -1.435   9.843  17.457  0.00  0.00    +0.000 A 
ATOM     22  C   UNL     1      -2.503  10.025  16.577  0.00  0.00    +0.000 A 
ATOM     23  C   UNL     1      -3.510  10.931  16.892  0.00  0.00    +0.000 A 
ATOM     24  F   UNL     1      -4.512  11.136  16.029  0.00  0.00    +0.000 F 
ATOM     25  C   UNL     1      -3.487  11.630  18.093  0.00  0.00    +0.000 A 
ATOM     26  C   UNL     1      -2.415  11.453  18.973  0.00  0.00    +0.000 A 
ENDBRANCH   3  20
TORSDOF 2
ENDMDL
MODEL 4
REMARK VINA RESULT:      -6.9      8.479     11.815
REMARK  Name = 
REMARK  4 active torsions:
REMARK  status: ('A' for Active; 'I' for Inactive)
REMARK    1  A    between atoms: C_1  and  C_2
REMARK    2  A    between atoms: C_2  and  C_3
REMARK    3  A    between atoms: N_5  and  C_6
REMARK    4  A    between atoms: C_8  and  C_9
REMARK                            x       y       z     vdW  Elec       q    Type
REMARK                         _______ _______ _______ _____ _____    ______ ____
ROOT
ATOM      1  C   UNL     1       4.541   5.280  19.785  0.00  0.00    +0.000 C 
ATOM      2  C   UNL     1       5.889   5.295  18.996  0.00  0.00    +0.000 C 
ATOM      3  C   UNL     1       5.730   6.113  17.693  0.00  0.00    +0.000 C 
ATOM      4  C   UNL     1       4.435   6.827  17.916  0.00  0.00    +0.000 A 
ATOM      5  C   UNL     1       3.923   7.870  17.148  0.00  0.00    +0.000 A 
ATOM      6  C   UNL     1       2.734   8.484  17.554  0.00  0.00    +0.000 A 
ATOM      7  C   UNL     1       2.091   8.059  18.720  0.00  0.00    +0.000 A 
ATOM      8 CL   UNL     1       0.627   8.821  19.210  0.00  0.00    +0.000 Cl
ATOM      9  C   UNL     1       2.626   7.029  19.500  0.00  0.00    +0.000 A 
ATOM     10  C   UNL     1       3.788   6.393  19.078  0.00  0.00    +0.000 A 
ENDROOT
BRANCH   1  15
ATOM     11  C   UNL     1       1.564   2.226  20.742  0.00  0.00    +0.000 C 
ATOM     12  C   UNL     1       1.782   2.633  19.270  0.00  0.00    +0.000 C 
ATOM     13  C   UNL     1       0.408   2.743  18.586  0.00  0.00    +0.000 C 
ATOM     14  C   UNL     1       2.518   4.011  19.200  0.00  0.00    +0.000 C 
ATOM     15  N   UNL     1       3.897   3.946  19.767  0.00  0.00    +0.000 NA
ATOM     16  C   UNL     1       4.626   2.948  18.949  0.00  0.00    +0.000 C 
ATOM     17  C   UNL     1       3.940   1.561  18.940  0.00  0.00    +0.000 C 
ATOM     18  N   UNL     1       2.532   1.593  18.534  0.00  0.00    +0.000 NA
ATOM     19  H   UNL     1       2.113   0.680  18.704  0.00  0.00    +0.000 HD
ENDBRANCH   1  15
BRANCH   3  20
ATOM     20  C   UNL     1       5.830   5.271  16.435  0.00  0.00    +0.000 A 
ATOM     21  C   UNL     1       6.993   5.251  15.646  0.00  0.00    +0.000 A 
ATOM     22  C   UNL     1       7.011   4.575  14.424  0.00  0.00    +0.000 A 
ATOM     23  C   UNL     1       5.870   3.911  13.988  0.00  0.00    +0.000 A 
ATOM     24  F   UNL     1       5.875   3.298  12.798  0.00  0.00    +0.000 F 
ATOM     25  C   UNL     1       4.722   3.879  14.770  0.00  0.00    +0.000 A 
ATOM     26  C   UNL     1       4.702   4.561  15.991  0.00  0.00    +0.000 A 
ENDBRANCH   3  20
TORSDOF 2
ENDMDL
MODEL 5
REMARK VINA RESULT:      -6.8      7.033     10.286
REMARK  Name = 
REMARK  4 active torsions:
REMARK  status: ('A' for Active; 'I' for Inactive)
REMARK    1  A    between atoms: C_1  and  C_2
REMARK    2  A    between atoms: C_2  and  C_3
REMARK    3  A    between atoms: N_5  and  C_6
REMARK    4  A    between atoms: C_8  and  C_9
REMARK                            x       y       z     vdW  Elec       q    Type
REMARK                         _______ _______ _______ _____ _____    ______ ____
ROOT
ATOM      1  C   UNL     1       2.373   5.870  17.976  0.00  0.00    +0.000 C 
ATOM      2  C   UNL     1       3.553   5.801  16.955  0.00  0.00    +0.000 C 
ATOM      3  C   UNL     1       4.702   4.940  17.534  0.00  0.00    +0.000 C 
ATOM      4  C   UNL     1       4.043   4.260  18.693  0.00  0.00    +0.000 A 
ATOM      5  C   UNL     1       4.562   3.201  19.433  0.00  0.00    +0.000 A 
ATOM      6  C   UNL     1       3.769   2.625  20.431  0.00  0.00    +0.000 A 
ATOM      7  C   UNL     1       2.476   3.105  20.659  0.00  0.00    +0.000 A 
ATOM      8 CL   UNL     1       1.509   2.389  21.891  0.00  0.00    +0.000 Cl
ATOM      9  C   UNL     1       1.953   4.151  19.893  0.00  0.00    +0.000 A 
ATOM     10  C   UNL     1       2.753   4.748  18.925  0.00  0.00    +0.000 A 
ENDROOT
BRANCH   1  15
ATOM     11  C   UNL     1       2.273  10.238  18.115  0.00  0.00    +0.000 C 
ATOM     12  C   UNL     1       1.014   9.440  18.517  0.00  0.00    +0.000 C 
ATOM     13  C   UNL     1      -0.219  10.140  17.918  0.00  0.00    +0.000 C 
ATOM     14  C   UNL     1       1.110   7.980  17.967  0.00  0.00    +0.000 C 
ATOM     15  N   UNL     1       2.235   7.215  18.581  0.00  0.00    +0.000 NA
ATOM     16  C   UNL     1       1.959   7.184  20.037  0.00  0.00    +0.000 C 
ATOM     17  C   UNL     1       1.817   8.597  20.652  0.00  0.00    +0.000 C 
ATOM     18  N   UNL     1       0.825   9.444  19.984  0.00  0.00    +0.000 NA
ATOM     19  H   UNL     1       0.902  10.396  20.339  0.00  0.00    +0.000 HD
ENDBRANCH   1  15
BRANCH   3  20
ATOM     20  C   UNL     1       5.957   5.734  17.840  0.00  0.00    +0.000 A 
ATOM     21  C   UNL     1       6.854   5.343  18.849  0.00  0.00    +0.000 A 
ATOM     22  C   UNL     1       7.928   6.162  19.201  0.00  0.00    +0.000 A 
ATOM     23  C   UNL     1       8.116   7.373  18.542  0.00  0.00    +0.000 A 
ATOM     24  F   UNL     1       9.121   8.177  18.908  0.00  0.00    +0.000 F 
ATOM     25  C   UNL     1       7.269   7.760  17.512  0.00  0.00    +0.000 A 
ATOM     26  C   UNL     1       6.189   6.943  17.163  0.00  0.00    +0.000 A 
ENDBRANCH   3  20
TORSDOF 2
ENDMDL
MODEL 6
REMARK VINA RESULT:      -6.8      3.355      5.794
REMARK  Name = 
REMARK  4 active torsions:
REMARK  status: ('A' for Active; 'I' for Inactive)
REMARK    1  A    between atoms: C_1  and  C_2
REMARK    2  A    between atoms: C_2  and  C_3
REMARK    3  A    between atoms: N_5  and  C_6
REMARK    4  A    between atoms: C_8  and  C_9
REMARK                            x       y       z     vdW  Elec       q    Type
REMARK                         _______ _______ _______ _____ _____    ______ ____
ROOT
ATOM      1  C   UNL     1      -5.742  11.795  17.772  0.00  0.00    +0.000 C 
ATOM      2  C   UNL     1      -5.921  11.379  19.267  0.00  0.00    +0.000 C 
ATOM      3  C   UNL     1      -6.239  12.624  20.128  0.00  0.00    +0.000 C 
ATOM      4  C   UNL     1      -6.574  13.654  19.095  0.00  0.00    +0.000 A 
ATOM      5  C   UNL     1      -7.149  14.900  19.327  0.00  0.00    +0.000 A 
ATOM      6  C   UNL     1      -7.478  15.705  18.232  0.00  0.00    +0.000 A 
ATOM      7  C   UNL     1      -7.242  15.246  16.933  0.00  0.00    +0.000 A 
ATOM      8 CL   UNL     1      -7.649  16.244  15.591  0.00  0.00    +0.000 Cl
ATOM      9  C   UNL     1      -6.689  13.981  16.708  0.00  0.00    +0.000 A 
ATOM     10  C   UNL     1      -6.328  13.196  17.797  0.00  0.00    +0.000 A 
ENDROOT
BRANCH   1  15
ATOM     11  C   UNL     1      -1.408  12.333  17.940  0.00  0.00    +0.000 C 
ATOM     12  C   UNL     1      -1.991  10.905  17.914  0.00  0.00    +0.000 C 
ATOM     13  C   UNL     1      -1.208  10.041  18.919  0.00  0.00    +0.000 C 
ATOM     14  C   UNL     1      -3.502  10.939  18.314  0.00  0.00    +0.000 C 
ATOM     15  N   UNL     1      -4.333  11.688  17.326  0.00  0.00    +0.000 NA
ATOM     16  C   UNL     1      -4.173  10.974  16.037  0.00  0.00    +0.000 C 
ATOM     17  C   UNL     1      -2.696  10.870  15.588  0.00  0.00    +0.000 C 
ATOM     18  N   UNL     1      -1.806  10.276  16.589  0.00  0.00    +0.000 NA
ATOM     19  H   UNL     1      -0.840  10.385  16.287  0.00  0.00    +0.000 HD
ENDBRANCH   1  15
BRANCH   3  20
ATOM     20  C   UNL     1      -5.135  12.981  21.105  0.00  0.00    +0.000 A 
ATOM     21  C   UNL     1      -3.851  13.350  20.671  0.00  0.00    +0.000 A 
ATOM     22  C   UNL     1      -2.818  13.542  21.590  0.00  0.00    +0.000 A 
ATOM     23  C   UNL     1      -3.065  13.374  22.949  0.00  0.00    +0.000 A 
ATOM     24  F   UNL     1      -2.065  13.518  23.826  0.00  0.00    +0.000 F 
ATOM     25  C   UNL     1      -4.337  13.054  23.406  0.00  0.00    +0.000 A 
ATOM     26  C   UNL     1      -5.370  12.855  22.485  0.00  0.00    +0.000 A 
ENDBRANCH   3  20
TORSDOF 2
ENDMDL
MODEL 7
REMARK VINA RESULT:      -6.7      7.892     11.373
REMARK  Name = 
REMARK  4 active torsions:
REMARK  status: ('A' for Active; 'I' for Inactive)
REMARK    1  A    between atoms: C_1  and  C_2
REMARK    2  A    between atoms: C_2  and  C_3
REMARK    3  A    between atoms: N_5  and  C_6
REMARK    4  A    between atoms: C_8  and  C_9
REMARK                            x       y       z     vdW  Elec       q    Type
REMARK                         _______ _______ _______ _____ _____    ______ ____
ROOT
ATOM      1  C   UNL     1       3.395   5.856  20.014  0.00  0.00    +0.000 C 
ATOM      2  C   UNL     1       4.808   5.744  19.358  0.00  0.00    +0.000 C 
ATOM      3  C   UNL     1       4.856   6.584  18.060  0.00  0.00    +0.000 C 
ATOM      4  C   UNL     1       3.621   7.421  18.171  0.00  0.00    +0.000 A 
ATOM      5  C   UNL     1       3.291   8.516  17.377  0.00  0.00    +0.000 A 
ATOM      6  C   UNL     1       2.134   9.242  17.678  0.00  0.00    +0.000 A 
ATOM      7  C   UNL     1       1.343   8.873  18.770  0.00  0.00    +0.000 A 
ATOM      8 CL   UNL     1      -0.079   9.773  19.132  0.00  0.00    +0.000 Cl
ATOM      9  C   UNL     1       1.697   7.789  19.579  0.00  0.00    +0.000 A 
ATOM     10  C   UNL     1       2.827   7.045  19.259  0.00  0.00    +0.000 A 
ENDROOT
BRANCH   1  15
ATOM     11  C   UNL     1       1.612   2.368  18.077  0.00  0.00    +0.000 C 
ATOM     12  C   UNL     1       2.662   2.160  19.188  0.00  0.00    +0.000 C 
ATOM     13  C   UNL     1       3.611   1.027  18.758  0.00  0.00    +0.000 C 
ATOM     14  C   UNL     1       3.478   3.477  19.404  0.00  0.00    +0.000 C 
ATOM     15  N   UNL     1       2.629   4.593  19.912  0.00  0.00    +0.000 NA
ATOM     16  C   UNL     1       2.078   4.128  21.208  0.00  0.00    +0.000 C 
ATOM     17  C   UNL     1       1.282   2.808  21.083  0.00  0.00    +0.000 C 
ATOM     18  N   UNL     1       2.027   1.717  20.448  0.00  0.00    +0.000 NA
ATOM     19  H   UNL     1       1.394   0.941  20.261  0.00  0.00    +0.000 HD
ENDBRANCH   1  15
BRANCH   3  20
ATOM     20  C   UNL     1       4.994   5.747  16.802  0.00  0.00    +0.000 A 
ATOM     21  C   UNL     1       4.946   4.343  16.837  0.00  0.00    +0.000 A 
ATOM     22  C   UNL     1       5.209   3.595  15.688  0.00  0.00    +0.000 A 
ATOM     23  C   UNL     1       5.514   4.245  14.497  0.00  0.00    +0.000 A 
ATOM     24  F   UNL     1       5.807   3.526  13.407  0.00  0.00    +0.000 F 
ATOM     25  C   UNL     1       5.523   5.632  14.427  0.00  0.00    +0.000 A 
ATOM     26  C   UNL     1       5.266   6.382  15.578  0.00  0.00    +0.000 A 
ENDBRANCH   3  20
TORSDOF 2
ENDMDL
MODEL 8
REMARK VINA RESULT:      -6.7      4.003      5.976
REMARK  Name = 
REMARK  4 active torsions:
REMARK  status: ('A' for Active; 'I' for Inactive)
REMARK    1  A    between atoms: C_1  and  C_2
REMARK    2  A    between atoms: C_2  and  C_3
REMARK    3  A    between atoms: N_5  and  C_6
REMARK    4  A    between atoms: C_8  and  C_9
REMARK                            x       y       z     vdW  Elec       q    Type
REMARK                         _______ _______ _______ _____ _____    ______ ____
ROOT
ATOM      1  C   UNL     1      -1.633  12.006  20.214  0.00  0.00    +0.000 C 
ATOM      2  C   UNL     1      -0.944  10.843  20.997  0.00  0.00    +0.000 C 
ATOM      3  C   UNL     1       0.582  10.866  20.742  0.00  0.00    +0.000 C 
ATOM      4  C   UNL     1       0.785  12.210  20.118  0.00  0.00    +0.000 A 
ATOM      5  C   UNL     1       2.005  12.839  19.890  0.00  0.00    +0.000 A 
ATOM      6  C   UNL     1       2.007  14.140  19.376  0.00  0.00    +0.000 A 
ATOM      7  C   UNL     1       0.797  14.789  19.115  0.00  0.00    +0.000 A 
ATOM      8 CL   UNL     1       0.810  16.389  18.481  0.00  0.00    +0.000 Cl
ATOM      9  C   UNL     1      -0.425  14.160  19.372  0.00  0.00    +0.000 A 
ATOM     10  C   UNL     1      -0.428  12.854  19.850  0.00  0.00    +0.000 A 
ENDROOT
BRANCH   1  15
ATOM     11  C   UNL     1      -5.087  10.241  18.200  0.00  0.00    +0.000 C 
ATOM     12  C   UNL     1      -4.658  11.679  17.842  0.00  0.00    +0.000 C 
ATOM     13  C   UNL     1      -5.922  12.547  17.712  0.00  0.00    +0.000 C 
ATOM     14  C   UNL     1      -3.737  12.256  18.967  0.00  0.00    +0.000 C 
ATOM     15  N   UNL     1      -2.448  11.511  19.081  0.00  0.00    +0.000 NA
ATOM     16  C   UNL     1      -1.780  11.651  17.765  0.00  0.00    +0.000 C 
ATOM     17  C   UNL     1      -2.645  11.131  16.593  0.00  0.00    +0.000 C 
ATOM     18  N   UNL     1      -3.983  11.725  16.527  0.00  0.00    +0.000 NA
ATOM     19  H   UNL     1      -4.540  11.224  15.837  0.00  0.00    +0.000 HD
ENDBRANCH   1  15
BRANCH   3  20
ATOM     20  C   UNL     1       1.080   9.671  19.952  0.00  0.00    +0.000 A 
ATOM     21  C   UNL     1       1.458   8.471  20.579  0.00  0.00    +0.000 A 
ATOM     22  C   UNL     1       2.039   7.437  19.842  0.00  0.00    +0.000 A 
ATOM     23  C   UNL     1       2.239   7.593  18.475  0.00  0.00    +0.000 A 
ATOM     24  F   UNL     1       2.834   6.619  17.777  0.00  0.00    +0.000 F 
ATOM     25  C   UNL     1       1.834   8.752  17.825  0.00  0.00    +0.000 A 
ATOM     26  C   UNL     1       1.258   9.791  18.562  0.00  0.00    +0.000 A 
ENDBRANCH   3  20
TORSDOF 2
ENDMDL
MODEL 9
REMARK VINA RESULT:      -6.7      3.570      5.804
REMARK  Name = 
REMARK  4 active torsions:
REMARK  status: ('A' for Active; 'I' for Inactive)
REMARK    1  A    between atoms: C_1  and  C_2
REMARK    2  A    between atoms: C_2  and  C_3
REMARK    3  A    between atoms: N_5  and  C_6
REMARK    4  A    between atoms: C_8  and  C_9
REMARK                            x       y       z     vdW  Elec       q    Type
REMARK                         _______ _______ _______ _____ _____    ______ ____
ROOT
ATOM      1  C   UNL     1      -6.642  11.636  18.316  0.00  0.00    +0.000 C 
ATOM      2  C   UNL     1      -7.237  11.155  19.678  0.00  0.00    +0.000 C 
ATOM      3  C   UNL     1      -7.569  12.375  20.570  0.00  0.00    +0.000 C 
ATOM      4  C   UNL     1      -7.490  13.513  19.602  0.00  0.00    +0.000 A 
ATOM      5  C   UNL     1      -7.916  14.819  19.825  0.00  0.00    +0.000 A 
ATOM      6  C   UNL     1      -7.849  15.739  18.774  0.00  0.00    +0.000 A 
ATOM      7  C   UNL     1      -7.375  15.336  17.523  0.00  0.00    +0.000 A 
ATOM      8 CL   UNL     1      -7.295  16.477  16.236  0.00  0.00    +0.000 Cl
ATOM      9  C   UNL     1      -6.974  14.015  17.299  0.00  0.00    +0.000 A 
ATOM     10  C   UNL     1      -7.007  13.109  18.353  0.00  0.00    +0.000 A 
ENDROOT
BRANCH   1  15
ATOM     11  C   UNL     1      -3.089   9.365  17.166  0.00  0.00    +0.000 C 
ATOM     12  C   UNL     1      -3.282  10.794  16.618  0.00  0.00    +0.000 C 
ATOM     13  C   UNL     1      -2.885  10.803  15.130  0.00  0.00    +0.000 C 
ATOM     14  C   UNL     1      -4.778  11.225  16.767  0.00  0.00    +0.000 C 
ATOM     15  N   UNL     1      -5.199  11.325  18.195  0.00  0.00    +0.000 NA
ATOM     16  C   UNL     1      -4.319  12.349  18.808  0.00  0.00    +0.000 C 
ATOM     17  C   UNL     1      -2.816  12.010  18.671  0.00  0.00    +0.000 C 
ATOM     18  N   UNL     1      -2.383  11.753  17.295  0.00  0.00    +0.000 NA
ATOM     19  H   UNL     1      -1.432  11.386  17.305  0.00  0.00    +0.000 HD
ENDBRANCH   1  15
BRANCH   3  20
ATOM     20  C   UNL     1      -6.695  12.477  21.805  0.00  0.00    +0.000 A 
ATOM     21  C   UNL     1      -7.238  12.471  23.101  0.00  0.00    +0.000 A 
ATOM     22  C   UNL     1      -6.426  12.701  24.213  0.00  0.00    +0.000 A 
ATOM     23  C   UNL     1      -5.066  12.931  24.037  0.00  0.00    +0.000 A 
ATOM     24  F   UNL     1      -4.295  13.193  25.099  0.00  0.00    +0.000 F 
ATOM     25  C   UNL     1      -4.497  12.898  22.769  0.00  0.00    +0.000 A 
ATOM     26  C   UNL     1      -5.311  12.674  21.655  0.00  0.00    +0.000 A 
ENDBRANCH   3  20
TORSDOF 2
ENDMDL
