MODEL 1
REMARK VINA RESULT:      -9.6      0.000      0.000
REMARK  Name = 
REMARK  9 active torsions:
REMARK  status: ('A' for Active; 'I' for Inactive)
REMARK    1  A    between atoms: C_1  and  C_2
REMARK    2  A    between atoms: C_2  and  C_3
REMARK    3  A    between atoms: C_2  and  C_4
REMARK    4  A    between atoms: C_2  and  N_5
REMARK    5  A    between atoms: N_5  and  S_6
REMARK    6  A    between atoms: S_6  and  C_9
REMARK    7  A    between atoms: C_14  and  C_15
REMARK    8  A    between atoms: C_18  and  C_19
REMARK    9  A    between atoms: C_23  and  C_24
REMARK                            x       y       z     vdW  Elec       q    Type
REMARK                         _______ _______ _______ _____ _____    ______ ____
ROOT
ATOM      1  C   UNL     1       3.323   7.097  18.086  0.00  0.00    +0.000 A 
ATOM      2  C   UNL     1       2.869   8.251  17.410  0.00  0.00    +0.000 A 
ATOM      3  C   UNL     1       1.948   9.139  17.988  0.00  0.00    +0.000 A 
ATOM      4  C   UNL     1       1.506   8.943  19.297  0.00  0.00    +0.000 A 
ATOM      5  C   UNL     1       1.955   7.822  19.980  0.00  0.00    +0.000 A 
ATOM      6  F   UNL     1       1.560   7.570  21.237  0.00  0.00    +0.000 F 
ATOM      7  C   UNL     1       2.790   6.891  19.362  0.00  0.00    +0.000 A 
ENDROOT
BRANCH   4   8
ATOM      8  C   UNL     1       0.541   9.843  19.877  0.00  0.00    +0.000 A 
ATOM      9  C   UNL     1       0.364  10.097  21.220  0.00  0.00    +0.000 A 
ATOM     10  N   UNL     1      -0.694  10.958  21.292  0.00  0.00    +0.000 N 
ATOM     11  C   UNL     1      -1.292  11.533  22.414  0.00  0.00    +0.000 A 
ATOM     12  C   UNL     1      -2.349  12.355  22.254  0.00  0.00    +0.000 A 
ATOM     13  C   UNL     1      -2.832  12.594  20.886  0.00  0.00    +0.000 A 
ATOM     14  C   UNL     1      -2.240  12.039  19.812  0.00  0.00    +0.000 A 
ATOM     15  C   UNL     1      -1.112  11.192  19.989  0.00  0.00    +0.000 A 
ATOM     16  N   UNL     1      -0.360  10.559  19.118  0.00  0.00    +0.000 NA
BRANCH  12  17
ATOM     17  C   UNL     1      -3.029  13.025  23.411  0.00  0.00    +0.000 C 
ATOM     18  F   UNL     1      -4.028  13.857  23.040  0.00  0.00    +0.000 F 
ATOM     19  F   UNL     1      -3.579  12.110  24.258  0.00  0.00    +0.000 F 
ATOM     20  F   UNL     1      -2.157  13.756  24.144  0.00  0.00    +0.000 F 
ENDBRANCH  12  17
ENDBRANCH   4   8
BRANCH   1  26
ATOM     21  C   UNL     1       3.987   4.756  17.144  0.00  0.00    +0.000 A 
ATOM     22  C   UNL     1       4.969   3.968  16.495  0.00  0.00    +0.000 A 
ATOM     23  C   UNL     1       6.216   4.483  16.163  0.00  0.00    +0.000 A 
ATOM     24  C   UNL     1       6.490   5.808  16.435  0.00  0.00    +0.000 A 
ATOM     25  C   UNL     1       5.513   6.612  17.030  0.00  0.00    +0.000 A 
ATOM     26  C   UNL     1       4.236   6.125  17.422  0.00  0.00    +0.000 A 
BRANCH  21  27
ATOM     27  S   UNL     1       2.516   3.836  17.629  0.00  0.00    +0.000 S 
ATOM     28  O   UNL     1       2.538   2.585  16.902  0.00  0.00    +0.000 OA
ATOM     29  O   UNL     1       1.367   4.700  17.491  0.00  0.00    +0.000 OA
BRANCH  27  30
ATOM     30  N   UNL     1       2.747   3.511  19.279  0.00  0.00    +0.000 NA
ATOM     31  H   UNL     1       3.599   2.974  19.434  0.00  0.00    +0.000 HD
BRANCH  30  33
ATOM     32  C   UNL     1       0.753   2.034  19.510  0.00  0.00    +0.000 C 
ATOM     33  C   UNL     1       1.613   3.112  20.167  0.00  0.00    +0.000 C 
ATOM     34  C   UNL     1       0.793   4.341  20.586  0.00  0.00    +0.000 C 
ATOM     35  C   UNL     1       2.214   2.523  21.460  0.00  0.00    +0.000 C 
ENDBRANCH  30  33
ENDBRANCH  27  30
ENDBRANCH  21  27
ENDBRANCH   1  26
TORSDOF 6
ENDMDL
MODEL 2
REMARK VINA RESULT:      -9.5      0.586      1.080
REMARK  Name = 
REMARK  9 active torsions:
REMARK  status: ('A' for Active; 'I' for Inactive)
REMARK    1  A    between atoms: C_1  and  C_2
REMARK    2  A    between atoms: C_2  and  C_3
REMARK    3  A    between atoms: C_2  and  C_4
REMARK    4  A    between atoms: C_2  and  N_5
REMARK    5  A    between atoms: N_5  and  S_6
REMARK    6  A    between atoms: S_6  and  C_9
REMARK    7  A    between atoms: C_14  and  C_15
REMARK    8  A    between atoms: C_18  and  C_19
REMARK    9  A    between atoms: C_23  and  C_24
REMARK                            x       y       z     vdW  Elec       q    Type
REMARK                         _______ _______ _______ _____ _____    ______ ____
ROOT
ATOM      1  C   UNL     1       3.054   7.181  18.256  0.00  0.00    +0.000 A 
ATOM      2  C   UNL     1       2.587   8.326  17.573  0.00  0.00    +0.000 A 
ATOM      3  C   UNL     1       1.687   9.228  18.163  0.00  0.00    +0.000 A 
ATOM      4  C   UNL     1       1.280   9.056  19.486  0.00  0.00    +0.000 A 
ATOM      5  C   UNL     1       1.743   7.943  20.175  0.00  0.00    +0.000 A 
ATOM      6  F   UNL     1       1.381   7.713  21.446  0.00  0.00    +0.000 F 
ATOM      7  C   UNL     1       2.555   6.998  19.549  0.00  0.00    +0.000 A 
ENDROOT
BRANCH   4   8
ATOM      8  C   UNL     1       0.336   9.970  20.078  0.00  0.00    +0.000 A 
ATOM      9  C   UNL     1       0.136  10.180  21.425  0.00  0.00    +0.000 A 
ATOM     10  N   UNL     1      -0.890  11.078  21.507  0.00  0.00    +0.000 N 
ATOM     11  C   UNL     1      -1.493  11.633  22.636  0.00  0.00    +0.000 A 
ATOM     12  C   UNL     1      -2.514  12.501  22.483  0.00  0.00    +0.000 A 
ATOM     13  C   UNL     1      -2.954  12.811  21.115  0.00  0.00    +0.000 A 
ATOM     14  C   UNL     1      -2.357  12.274  20.033  0.00  0.00    +0.000 A 
ATOM     15  C   UNL     1      -1.266  11.377  20.204  0.00  0.00    +0.000 A 
ATOM     16  N   UNL     1      -0.518  10.749  19.327  0.00  0.00    +0.000 NA
BRANCH  12  17
ATOM     17  C   UNL     1      -3.196  13.154  23.649  0.00  0.00    +0.000 C 
ATOM     18  F   UNL     1      -3.761  12.272  24.503  0.00  0.00    +0.000 F 
ATOM     19  F   UNL     1      -2.318  13.896  24.381  0.00  0.00    +0.000 F 
ATOM     20  F   UNL     1      -4.174  13.998  23.245  0.00  0.00    +0.000 F 
ENDBRANCH  12  17
ENDBRANCH   4   8
BRANCH   1  26
ATOM     21  C   UNL     1       3.648   4.843  17.260  0.00  0.00    +0.000 A 
ATOM     22  C   UNL     1       4.613   4.036  16.608  0.00  0.00    +0.000 A 
ATOM     23  C   UNL     1       5.885   4.512  16.317  0.00  0.00    +0.000 A 
ATOM     24  C   UNL     1       6.204   5.818  16.632  0.00  0.00    +0.000 A 
ATOM     25  C   UNL     1       5.246   6.641  17.230  0.00  0.00    +0.000 A 
ATOM     26  C   UNL     1       3.943   6.193  17.582  0.00  0.00    +0.000 A 
BRANCH  21  27
ATOM     27  S   UNL     1       2.133   3.967  17.688  0.00  0.00    +0.000 S 
ATOM     28  O   UNL     1       2.289   2.602  17.235  0.00  0.00    +0.000 OA
ATOM     29  O   UNL     1       1.008   4.735  17.209  0.00  0.00    +0.000 OA
BRANCH  27  30
ATOM     30  N   UNL     1       2.106   3.979  19.386  0.00  0.00    +0.000 NA
ATOM     31  H   UNL     1       2.458   4.862  19.755  0.00  0.00    +0.000 HD
BRANCH  30  33
ATOM     32  C   UNL     1       4.011   2.510  20.039  0.00  0.00    +0.000 C 
ATOM     33  C   UNL     1       2.515   2.785  20.186  0.00  0.00    +0.000 C 
ATOM     34  C   UNL     1       1.657   1.565  19.818  0.00  0.00    +0.000 C 
ATOM     35  C   UNL     1       2.228   3.093  21.670  0.00  0.00    +0.000 C 
ENDBRANCH  30  33
ENDBRANCH  27  30
ENDBRANCH  21  27
ENDBRANCH   1  26
TORSDOF 6
ENDMDL
MODEL 3
REMARK VINA RESULT:      -9.5      0.848      1.623
REMARK  Name = 
REMARK  9 active torsions:
REMARK  status: ('A' for Active; 'I' for Inactive)
REMARK    1  A    between atoms: C_1  and  C_2
REMARK    2  A    between atoms: C_2  and  C_3
REMARK    3  A    between atoms: C_2  and  C_4
REMARK    4  A    between atoms: C_2  and  N_5
REMARK    5  A    between atoms: N_5  and  S_6
REMARK    6  A    between atoms: S_6  and  C_9
REMARK    7  A    between atoms: C_14  and  C_15
REMARK    8  A    between atoms: C_18  and  C_19
REMARK    9  A    between atoms: C_23  and  C_24
REMARK                            x       y       z     vdW  Elec       q    Type
REMARK                         _______ _______ _______ _____ _____    ______ ____
ROOT
ATOM      1  C   UNL     1       3.273   6.983  18.070  0.00  0.00    +0.000 A 
ATOM      2  C   UNL     1       2.738   8.139  17.462  0.00  0.00    +0.000 A 
ATOM      3  C   UNL     1       1.829   8.978  18.127  0.00  0.00    +0.000 A 
ATOM      4  C   UNL     1       1.481   8.729  19.455  0.00  0.00    +0.000 A 
ATOM      5  C   UNL     1       2.011   7.604  20.071  0.00  0.00    +0.000 A 
ATOM      6  F   UNL     1       1.708   7.302  21.343  0.00  0.00    +0.000 F 
ATOM      7  C   UNL     1       2.832   6.721  19.371  0.00  0.00    +0.000 A 
ENDROOT
BRANCH   4   8
ATOM      8  C   UNL     1       0.528   9.577  20.125  0.00  0.00    +0.000 A 
ATOM      9  C   UNL     1      -0.269  10.535  19.537  0.00  0.00    +0.000 A 
ATOM     10  N   UNL     1      -0.954  11.121  20.564  0.00  0.00    +0.000 N 
ATOM     11  C   UNL     1      -1.895  12.151  20.526  0.00  0.00    +0.000 A 
ATOM     12  C   UNL     1      -2.442  12.590  21.678  0.00  0.00    +0.000 A 
ATOM     13  C   UNL     1      -2.002  11.962  22.932  0.00  0.00    +0.000 A 
ATOM     14  C   UNL     1      -1.099  10.963  22.952  0.00  0.00    +0.000 A 
ATOM     15  C   UNL     1      -0.544  10.491  21.731  0.00  0.00    +0.000 A 
ATOM     16  N   UNL     1       0.322   9.534  21.487  0.00  0.00    +0.000 NA
BRANCH  12  17
ATOM     17  C   UNL     1      -3.475  13.678  21.713  0.00  0.00    +0.000 C 
ATOM     18  F   UNL     1      -2.955  14.907  21.924  0.00  0.00    +0.000 F 
ATOM     19  F   UNL     1      -4.163  13.743  20.538  0.00  0.00    +0.000 F 
ATOM     20  F   UNL     1      -4.391  13.462  22.686  0.00  0.00    +0.000 F 
ENDBRANCH  12  17
ENDBRANCH   4   8
BRANCH   1  26
ATOM     21  C   UNL     1       3.965   4.685  17.044  0.00  0.00    +0.000 A 
ATOM     22  C   UNL     1       4.924   3.952  16.303  0.00  0.00    +0.000 A 
ATOM     23  C   UNL     1       6.111   4.531  15.873  0.00  0.00    +0.000 A 
ATOM     24  C   UNL     1       6.345   5.866  16.138  0.00  0.00    +0.000 A 
ATOM     25  C   UNL     1       5.385   6.615  16.824  0.00  0.00    +0.000 A 
ATOM     26  C   UNL     1       4.171   6.062  17.318  0.00  0.00    +0.000 A 
BRANCH  21  27
ATOM     27  S   UNL     1       2.587   3.690  17.641  0.00  0.00    +0.000 S 
ATOM     28  O   UNL     1       2.744   2.366  17.078  0.00  0.00    +0.000 OA
ATOM     29  O   UNL     1       1.360   4.410  17.394  0.00  0.00    +0.000 OA
BRANCH  27  30
ATOM     30  N   UNL     1       2.827   3.601  19.319  0.00  0.00    +0.000 NA
ATOM     31  H   UNL     1       3.774   3.291  19.540  0.00  0.00    +0.000 HD
BRANCH  30  33
ATOM     32  C   UNL     1       2.390   2.626  21.571  0.00  0.00    +0.000 C 
ATOM     33  C   UNL     1       1.784   3.048  20.234  0.00  0.00    +0.000 C 
ATOM     34  C   UNL     1       1.015   1.906  19.553  0.00  0.00    +0.000 C 
ATOM     35  C   UNL     1       0.757   4.167  20.506  0.00  0.00    +0.000 C 
ENDBRANCH  30  33
ENDBRANCH  27  30
ENDBRANCH  21  27
ENDBRANCH   1  26
TORSDOF 6
ENDMDL
MODEL 4
REMARK VINA RESULT:      -9.4      0.878      1.573
REMARK  Name = 
REMARK  9 active torsions:
REMARK  status: ('A' for Active; 'I' for Inactive)
REMARK    1  A    between atoms: C_1  and  C_2
REMARK    2  A    between atoms: C_2  and  C_3
REMARK    3  A    between atoms: C_2  and  C_4
REMARK    4  A    between atoms: C_2  and  N_5
REMARK    5  A    between atoms: N_5  and  S_6
REMARK    6  A    between atoms: S_6  and  C_9
REMARK    7  A    between atoms: C_14  and  C_15
REMARK    8  A    between atoms: C_18  and  C_19
REMARK    9  A    between atoms: C_23  and  C_24
REMARK                            x       y       z     vdW  Elec       q    Type
REMARK                         _______ _______ _______ _____ _____    ______ ____
ROOT
ATOM      1  C   UNL     1       3.274   7.038  18.065  0.00  0.00    +0.000 A 
ATOM      2  C   UNL     1       2.765   8.168  17.389  0.00  0.00    +0.000 A 
ATOM      3  C   UNL     1       1.838   9.038  17.987  0.00  0.00    +0.000 A 
ATOM      4  C   UNL     1       1.445   8.849  19.311  0.00  0.00    +0.000 A 
ATOM      5  C   UNL     1       1.949   7.750  19.994  0.00  0.00    +0.000 A 
ATOM      6  F   UNL     1       1.602   7.504  21.266  0.00  0.00    +0.000 F 
ATOM      7  C   UNL     1       2.789   6.834  19.360  0.00  0.00    +0.000 A 
ENDROOT
BRANCH   4   8
ATOM      8  C   UNL     1       0.475   9.729  19.912  0.00  0.00    +0.000 A 
ATOM      9  C   UNL     1      -0.486  10.461  19.249  0.00  0.00    +0.000 A 
ATOM     10  N   UNL     1      -1.123  11.187  20.215  0.00  0.00    +0.000 N 
ATOM     11  C   UNL     1      -2.176  12.093  20.090  0.00  0.00    +0.000 A 
ATOM     12  C   UNL     1      -2.648  12.716  21.190  0.00  0.00    +0.000 A 
ATOM     13  C   UNL     1      -2.009  12.414  22.478  0.00  0.00    +0.000 A 
ATOM     14  C   UNL     1      -0.998  11.531  22.585  0.00  0.00    +0.000 A 
ATOM     15  C   UNL     1      -0.523  10.861  21.424  0.00  0.00    +0.000 A 
ATOM     16  N   UNL     1       0.419   9.959  21.270  0.00  0.00    +0.000 NA
BRANCH  12  17
ATOM     17  C   UNL     1      -3.792  13.686  21.135  0.00  0.00    +0.000 C 
ATOM     18  F   UNL     1      -4.448  13.810  22.311  0.00  0.00    +0.000 F 
ATOM     19  F   UNL     1      -3.365  14.934  20.794  0.00  0.00    +0.000 F 
ATOM     20  F   UNL     1      -4.708  13.323  20.207  0.00  0.00    +0.000 F 
ENDBRANCH  12  17
ENDBRANCH   4   8
BRANCH   1  26
ATOM     21  C   UNL     1       3.958   4.712  17.100  0.00  0.00    +0.000 A 
ATOM     22  C   UNL     1       4.942   3.941  16.434  0.00  0.00    +0.000 A 
ATOM     23  C   UNL     1       6.177   4.475  16.089  0.00  0.00    +0.000 A 
ATOM     24  C   UNL     1       6.437   5.803  16.366  0.00  0.00    +0.000 A 
ATOM     25  C   UNL     1       5.456   6.589  16.978  0.00  0.00    +0.000 A 
ATOM     26  C   UNL     1       4.191   6.082  17.383  0.00  0.00    +0.000 A 
BRANCH  21  27
ATOM     27  S   UNL     1       2.506   3.768  17.598  0.00  0.00    +0.000 S 
ATOM     28  O   UNL     1       2.587   2.483  16.938  0.00  0.00    +0.000 OA
ATOM     29  O   UNL     1       1.334   4.584  17.389  0.00  0.00    +0.000 OA
BRANCH  27  30
ATOM     30  N   UNL     1       2.707   3.537  19.268  0.00  0.00    +0.000 NA
ATOM     31  H   UNL     1       3.579   3.049  19.471  0.00  0.00    +0.000 HD
BRANCH  30  33
ATOM     32  C   UNL     1       0.735   2.029  19.491  0.00  0.00    +0.000 C 
ATOM     33  C   UNL     1       1.569   3.128  20.146  0.00  0.00    +0.000 C 
ATOM     34  C   UNL     1       0.723   4.347  20.542  0.00  0.00    +0.000 C 
ATOM     35  C   UNL     1       2.164   2.562  21.453  0.00  0.00    +0.000 C 
ENDBRANCH  30  33
ENDBRANCH  27  30
ENDBRANCH  21  27
ENDBRANCH   1  26
TORSDOF 6
ENDMDL
MODEL 5
REMARK VINA RESULT:      -9.4      1.149      1.820
REMARK  Name = 
REMARK  9 active torsions:
REMARK  status: ('A' for Active; 'I' for Inactive)
REMARK    1  A    between atoms: C_1  and  C_2
REMARK    2  A    between atoms: C_2  and  C_3
REMARK    3  A    between atoms: C_2  and  C_4
REMARK    4  A    between atoms: C_2  and  N_5
REMARK    5  A    between atoms: N_5  and  S_6
REMARK    6  A    between atoms: S_6  and  C_9
REMARK    7  A    between atoms: C_14  and  C_15
REMARK    8  A    between atoms: C_18  and  C_19
REMARK    9  A    between atoms: C_23  and  C_24
REMARK                            x       y       z     vdW  Elec       q    Type
REMARK                         _______ _______ _______ _____ _____    ______ ____
ROOT
ATOM      1  C   UNL     1       3.378   6.870  18.099  0.00  0.00    +0.000 A 
ATOM      2  C   UNL     1       3.004   6.642  19.442  0.00  0.00    +0.000 A 
ATOM      3  C   UNL     1       2.112   7.488  20.121  0.00  0.00    +0.000 A 
ATOM      4  C   UNL     1       1.504   8.552  19.455  0.00  0.00    +0.000 A 
ATOM      5  C   UNL     1       1.850   8.780  18.129  0.00  0.00    +0.000 A 
ATOM      6  F   UNL     1       1.309   9.792  17.435  0.00  0.00    +0.000 F 
ATOM      7  C   UNL     1       2.813   7.996  17.494  0.00  0.00    +0.000 A 
ENDROOT
BRANCH   4   8
ATOM      8  C   UNL     1       0.609   9.433  20.162  0.00  0.00    +0.000 A 
ATOM      9  C   UNL     1      -0.060  10.516  19.634  0.00  0.00    +0.000 A 
ATOM     10  N   UNL     1      -0.731  11.077  20.683  0.00  0.00    +0.000 N 
ATOM     11  C   UNL     1      -1.562  12.198  20.704  0.00  0.00    +0.000 A 
ATOM     12  C   UNL     1      -2.117  12.589  21.869  0.00  0.00    +0.000 A 
ATOM     13  C   UNL     1      -1.803  11.812  23.076  0.00  0.00    +0.000 A 
ATOM     14  C   UNL     1      -1.005  10.727  23.039  0.00  0.00    +0.000 A 
ATOM     15  C   UNL     1      -0.443  10.308  21.803  0.00  0.00    +0.000 A 
ATOM     16  N   UNL     1       0.334   9.292  21.506  0.00  0.00    +0.000 NA
BRANCH  12  17
ATOM     17  C   UNL     1      -3.038  13.770  21.963  0.00  0.00    +0.000 C 
ATOM     18  F   UNL     1      -2.403  14.923  22.276  0.00  0.00    +0.000 F 
ATOM     19  F   UNL     1      -3.682  13.989  20.782  0.00  0.00    +0.000 F 
ATOM     20  F   UNL     1      -3.997  13.580  22.899  0.00  0.00    +0.000 F 
ENDBRANCH  12  17
ENDBRANCH   4   8
BRANCH   1  26
ATOM     21  C   UNL     1       4.295   4.620  17.148  0.00  0.00    +0.000 A 
ATOM     22  C   UNL     1       5.354   3.949  16.488  0.00  0.00    +0.000 A 
ATOM     23  C   UNL     1       6.529   4.603  16.142  0.00  0.00    +0.000 A 
ATOM     24  C   UNL     1       6.653   5.952  16.412  0.00  0.00    +0.000 A 
ATOM     25  C   UNL     1       5.597   6.638  17.018  0.00  0.00    +0.000 A 
ATOM     26  C   UNL     1       4.388   6.008  17.424  0.00  0.00    +0.000 A 
BRANCH  21  27
ATOM     27  S   UNL     1       2.944   3.537  17.648  0.00  0.00    +0.000 S 
ATOM     28  O   UNL     1       3.282   2.203  17.203  0.00  0.00    +0.000 OA
ATOM     29  O   UNL     1       1.700   4.123  17.211  0.00  0.00    +0.000 OA
BRANCH  27  30
ATOM     30  N   UNL     1       2.984   3.571  19.346  0.00  0.00    +0.000 NA
ATOM     31  H   UNL     1       3.905   3.310  19.698  0.00  0.00    +0.000 HD
BRANCH  30  33
ATOM     32  C   UNL     1       1.236   1.805  19.529  0.00  0.00    +0.000 C 
ATOM     33  C   UNL     1       1.853   3.048  20.168  0.00  0.00    +0.000 C 
ATOM     34  C   UNL     1       0.814   4.149  20.426  0.00  0.00    +0.000 C 
ATOM     35  C   UNL     1       2.419   2.646  21.546  0.00  0.00    +0.000 C 
ENDBRANCH  30  33
ENDBRANCH  27  30
ENDBRANCH  21  27
ENDBRANCH   1  26
TORSDOF 6
ENDMDL
MODEL 6
REMARK VINA RESULT:      -9.4      1.133      1.901
REMARK  Name = 
REMARK  9 active torsions:
REMARK  status: ('A' for Active; 'I' for Inactive)
REMARK    1  A    between atoms: C_1  and  C_2
REMARK    2  A    between atoms: C_2  and  C_3
REMARK    3  A    between atoms: C_2  and  C_4
REMARK    4  A    between atoms: C_2  and  N_5
REMARK    5  A    between atoms: N_5  and  S_6
REMARK    6  A    between atoms: S_6  and  C_9
REMARK    7  A    between atoms: C_14  and  C_15
REMARK    8  A    between atoms: C_18  and  C_19
REMARK    9  A    between atoms: C_23  and  C_24
REMARK                            x       y       z     vdW  Elec       q    Type
REMARK                         _______ _______ _______ _____ _____    ______ ____
ROOT
ATOM      1  C   UNL     1       3.307   6.892  18.111  0.00  0.00    +0.000 A 
ATOM      2  C   UNL     1       2.934   6.661  19.453  0.00  0.00    +0.000 A 
ATOM      3  C   UNL     1       2.046   7.508  20.136  0.00  0.00    +0.000 A 
ATOM      4  C   UNL     1       1.440   8.576  19.474  0.00  0.00    +0.000 A 
ATOM      5  C   UNL     1       1.784   8.807  18.150  0.00  0.00    +0.000 A 
ATOM      6  F   UNL     1       1.246   9.823  17.460  0.00  0.00    +0.000 F 
ATOM      7  C   UNL     1       2.744   8.022  17.510  0.00  0.00    +0.000 A 
ENDROOT
BRANCH   4   8
ATOM      8  C   UNL     1       0.549   9.457  20.186  0.00  0.00    +0.000 A 
ATOM      9  C   UNL     1      -0.154  10.515  19.652  0.00  0.00    +0.000 A 
ATOM     10  N   UNL     1      -0.806  11.089  20.706  0.00  0.00    +0.000 N 
ATOM     11  C   UNL     1      -1.657  12.194  20.725  0.00  0.00    +0.000 A 
ATOM     12  C   UNL     1      -2.188  12.603  21.895  0.00  0.00    +0.000 A 
ATOM     13  C   UNL     1      -1.826  11.860  23.110  0.00  0.00    +0.000 A 
ATOM     14  C   UNL     1      -1.010  10.789  23.077  0.00  0.00    +0.000 A 
ATOM     15  C   UNL     1      -0.474  10.352  21.835  0.00  0.00    +0.000 A 
ATOM     16  N   UNL     1       0.314   9.343  21.540  0.00  0.00    +0.000 NA
BRANCH  12  17
ATOM     17  C   UNL     1      -3.127  13.770  21.988  0.00  0.00    +0.000 C 
ATOM     18  F   UNL     1      -4.233  13.631  21.224  0.00  0.00    +0.000 F 
ATOM     19  F   UNL     1      -3.558  13.956  23.268  0.00  0.00    +0.000 F 
ATOM     20  F   UNL     1      -2.526  14.923  21.610  0.00  0.00    +0.000 F 
ENDBRANCH  12  17
ENDBRANCH   4   8
BRANCH   1  26
ATOM     21  C   UNL     1       4.221   4.640  17.162  0.00  0.00    +0.000 A 
ATOM     22  C   UNL     1       5.276   3.968  16.496  0.00  0.00    +0.000 A 
ATOM     23  C   UNL     1       6.447   4.624  16.139  0.00  0.00    +0.000 A 
ATOM     24  C   UNL     1       6.571   5.974  16.402  0.00  0.00    +0.000 A 
ATOM     25  C   UNL     1       5.517   6.661  17.013  0.00  0.00    +0.000 A 
ATOM     26  C   UNL     1       4.314   6.030  17.432  0.00  0.00    +0.000 A 
BRANCH  21  27
ATOM     27  S   UNL     1       2.877   3.557  17.678  0.00  0.00    +0.000 S 
ATOM     28  O   UNL     1       3.206   2.224  17.222  0.00  0.00    +0.000 OA
ATOM     29  O   UNL     1       1.626   4.145  17.260  0.00  0.00    +0.000 OA
BRANCH  27  30
ATOM     30  N   UNL     1       2.941   3.584  19.375  0.00  0.00    +0.000 NA
ATOM     31  H   UNL     1       3.877   3.358  19.712  0.00  0.00    +0.000 HD
BRANCH  30  33
ATOM     32  C   UNL     1       2.361   2.594  21.587  0.00  0.00    +0.000 C 
ATOM     33  C   UNL     1       1.844   3.012  20.211  0.00  0.00    +0.000 C 
ATOM     34  C   UNL     1       1.144   1.860  19.474  0.00  0.00    +0.000 C 
ATOM     35  C   UNL     1       0.783   4.113  20.413  0.00  0.00    +0.000 C 
ENDBRANCH  30  33
ENDBRANCH  27  30
ENDBRANCH  21  27
ENDBRANCH   1  26
TORSDOF 6
ENDMDL
MODEL 7
REMARK VINA RESULT:      -9.4      0.279      1.032
REMARK  Name = 
REMARK  9 active torsions:
REMARK  status: ('A' for Active; 'I' for Inactive)
REMARK    1  A    between atoms: C_1  and  C_2
REMARK    2  A    between atoms: C_2  and  C_3
REMARK    3  A    between atoms: C_2  and  C_4
REMARK    4  A    between atoms: C_2  and  N_5
REMARK    5  A    between atoms: N_5  and  S_6
REMARK    6  A    between atoms: S_6  and  C_9
REMARK    7  A    between atoms: C_14  and  C_15
REMARK    8  A    between atoms: C_18  and  C_19
REMARK    9  A    between atoms: C_23  and  C_24
REMARK                            x       y       z     vdW  Elec       q    Type
REMARK                         _______ _______ _______ _____ _____    ______ ____
ROOT
ATOM      1  C   UNL     1       3.383   6.944  17.927  0.00  0.00    +0.000 A 
ATOM      2  C   UNL     1       2.928   8.096  17.248  0.00  0.00    +0.000 A 
ATOM      3  C   UNL     1       2.042   9.009  17.842  0.00  0.00    +0.000 A 
ATOM      4  C   UNL     1       1.638   8.841  19.167  0.00  0.00    +0.000 A 
ATOM      5  C   UNL     1       2.089   7.721  19.852  0.00  0.00    +0.000 A 
ATOM      6  F   UNL     1       1.729   7.495  21.124  0.00  0.00    +0.000 F 
ATOM      7  C   UNL     1       2.887   6.766  19.222  0.00  0.00    +0.000 A 
ENDROOT
BRANCH   4   8
ATOM      8  C   UNL     1       0.709   9.767  19.764  0.00  0.00    +0.000 A 
ATOM      9  C   UNL     1       0.654  10.128  21.092  0.00  0.00    +0.000 A 
ATOM     10  N   UNL     1      -0.415  10.970  21.198  0.00  0.00    +0.000 N 
ATOM     11  C   UNL     1      -0.919  11.625  22.322  0.00  0.00    +0.000 A 
ATOM     12  C   UNL     1      -2.009  12.410  22.200  0.00  0.00    +0.000 A 
ATOM     13  C   UNL     1      -2.626  12.526  20.871  0.00  0.00    +0.000 A 
ATOM     14  C   UNL     1      -2.124  11.895  19.792  0.00  0.00    +0.000 A 
ATOM     15  C   UNL     1      -0.961  11.088  19.927  0.00  0.00    +0.000 A 
ATOM     16  N   UNL     1      -0.279  10.400  19.040  0.00  0.00    +0.000 NA
BRANCH  12  17
ATOM     17  C   UNL     1      -2.593  13.161  23.360  0.00  0.00    +0.000 C 
ATOM     18  F   UNL     1      -1.667  13.809  24.102  0.00  0.00    +0.000 F 
ATOM     19  F   UNL     1      -3.484  14.103  22.940  0.00  0.00    +0.000 F 
ATOM     20  F   UNL     1      -3.266  12.337  24.197  0.00  0.00    +0.000 F 
ENDBRANCH  12  17
ENDBRANCH   4   8
BRANCH   1  26
ATOM     21  C   UNL     1       3.980   4.573  17.014  0.00  0.00    +0.000 A 
ATOM     22  C   UNL     1       4.925   3.758  16.344  0.00  0.00    +0.000 A 
ATOM     23  C   UNL     1       6.163   4.250  15.949  0.00  0.00    +0.000 A 
ATOM     24  C   UNL     1       6.464   5.578  16.178  0.00  0.00    +0.000 A 
ATOM     25  C   UNL     1       5.521   6.407  16.793  0.00  0.00    +0.000 A 
ATOM     26  C   UNL     1       4.256   5.945  17.249  0.00  0.00    +0.000 A 
BRANCH  21  27
ATOM     27  S   UNL     1       2.520   3.683  17.582  0.00  0.00    +0.000 S 
ATOM     28  O   UNL     1       2.563   2.368  16.979  0.00  0.00    +0.000 OA
ATOM     29  O   UNL     1       1.360   4.513  17.359  0.00  0.00    +0.000 OA
BRANCH  27  30
ATOM     30  N   UNL     1       2.750   3.522  19.256  0.00  0.00    +0.000 NA
ATOM     31  H   UNL     1       3.623   3.039  19.464  0.00  0.00    +0.000 HD
BRANCH  30  33
ATOM     32  C   UNL     1       0.743   4.367  20.470  0.00  0.00    +0.000 C 
ATOM     33  C   UNL     1       1.626   3.157  20.171  0.00  0.00    +0.000 C 
ATOM     34  C   UNL     1       2.160   2.492  21.448  0.00  0.00    +0.000 C 
ATOM     35  C   UNL     1       0.762   2.099  19.454  0.00  0.00    +0.000 C 
ENDBRANCH  30  33
ENDBRANCH  27  30
ENDBRANCH  21  27
ENDBRANCH   1  26
TORSDOF 6
ENDMDL
MODEL 8
REMARK VINA RESULT:      -9.4      0.847      1.545
REMARK  Name = 
REMARK  9 active torsions:
REMARK  status: ('A' for Active; 'I' for Inactive)
REMARK    1  A    between atoms: C_1  and  C_2
REMARK    2  A    between atoms: C_2  and  C_3
REMARK    3  A    between atoms: C_2  and  C_4
REMARK    4  A    between atoms: C_2  and  N_5
REMARK    5  A    between atoms: N_5  and  S_6
REMARK    6  A    between atoms: S_6  and  C_9
REMARK    7  A    between atoms: C_14  and  C_15
REMARK    8  A    between atoms: C_18  and  C_19
REMARK    9  A    between atoms: C_23  and  C_24
REMARK                            x       y       z     vdW  Elec       q    Type
REMARK                         _______ _______ _______ _____ _____    ______ ____
ROOT
ATOM      1  C   UNL     1       3.380   6.989  18.136  0.00  0.00    +0.000 A 
ATOM      2  C   UNL     1       2.861   6.801  19.436  0.00  0.00    +0.000 A 
ATOM      3  C   UNL     1       1.951   7.703  20.012  0.00  0.00    +0.000 A 
ATOM      4  C   UNL     1       1.471   8.787  19.278  0.00  0.00    +0.000 A 
ATOM      5  C   UNL     1       1.960   8.976  17.992  0.00  0.00    +0.000 A 
ATOM      6  F   UNL     1       1.547  10.005  17.237  0.00  0.00    +0.000 F 
ATOM      7  C   UNL     1       2.939   8.134  17.465  0.00  0.00    +0.000 A 
ENDROOT
BRANCH   4   8
ATOM      8  C   UNL     1       0.557   9.723  19.882  0.00  0.00    +0.000 A 
ATOM      9  C   UNL     1       0.395   9.953  21.231  0.00  0.00    +0.000 A 
ATOM     10  N   UNL     1      -0.614  10.868  21.327  0.00  0.00    +0.000 N 
ATOM     11  C   UNL     1      -1.179  11.447  22.464  0.00  0.00    +0.000 A 
ATOM     12  C   UNL     1      -2.189  12.330  22.326  0.00  0.00    +0.000 A 
ATOM     13  C   UNL     1      -2.659  12.630  20.966  0.00  0.00    +0.000 A 
ATOM     14  C   UNL     1      -2.099  12.070  19.877  0.00  0.00    +0.000 A 
ATOM     15  C   UNL     1      -1.018  11.158  20.031  0.00  0.00    +0.000 A 
ATOM     16  N   UNL     1      -0.303  10.507  19.143  0.00  0.00    +0.000 NA
BRANCH  12  17
ATOM     17  C   UNL     1      -2.830  13.007  23.501  0.00  0.00    +0.000 C 
ATOM     18  F   UNL     1      -1.949  13.663  24.290  0.00  0.00    +0.000 F 
ATOM     19  F   UNL     1      -3.752  13.928  23.098  0.00  0.00    +0.000 F 
ATOM     20  F   UNL     1      -3.486  12.123  24.289  0.00  0.00    +0.000 F 
ENDBRANCH  12  17
ENDBRANCH   4   8
BRANCH   1  26
ATOM     21  C   UNL     1       4.277   4.675  17.332  0.00  0.00    +0.000 A 
ATOM     22  C   UNL     1       5.358   3.940  16.785  0.00  0.00    +0.000 A 
ATOM     23  C   UNL     1       6.585   4.535  16.524  0.00  0.00    +0.000 A 
ATOM     24  C   UNL     1       6.744   5.886  16.765  0.00  0.00    +0.000 A 
ATOM     25  C   UNL     1       5.670   6.634  17.257  0.00  0.00    +0.000 A 
ATOM     26  C   UNL     1       4.406   6.066  17.576  0.00  0.00    +0.000 A 
BRANCH  21  27
ATOM     27  S   UNL     1       2.843   3.664  17.746  0.00  0.00    +0.000 S 
ATOM     28  O   UNL     1       3.091   2.339  17.220  0.00  0.00    +0.000 OA
ATOM     29  O   UNL     1       1.652   4.365  17.330  0.00  0.00    +0.000 OA
BRANCH  27  30
ATOM     30  N   UNL     1       2.856   3.589  19.442  0.00  0.00    +0.000 NA
ATOM     31  H   UNL     1       3.755   3.257  19.790  0.00  0.00    +0.000 HD
BRANCH  30  33
ATOM     32  C   UNL     1       2.117   2.517  21.568  0.00  0.00    +0.000 C 
ATOM     33  C   UNL     1       1.684   3.077  20.214  0.00  0.00    +0.000 C 
ATOM     34  C   UNL     1       0.893   2.054  19.384  0.00  0.00    +0.000 C 
ATOM     35  C   UNL     1       0.734   4.265  20.469  0.00  0.00    +0.000 C 
ENDBRANCH  30  33
ENDBRANCH  27  30
ENDBRANCH  21  27
ENDBRANCH   1  26
TORSDOF 6
ENDMDL
MODEL 9
REMARK VINA RESULT:      -9.4      0.836      1.167
REMARK  Name = 
REMARK  9 active torsions:
REMARK  status: ('A' for Active; 'I' for Inactive)
REMARK    1  A    between atoms: C_1  and  C_2
REMARK    2  A    between atoms: C_2  and  C_3
REMARK    3  A    between atoms: C_2  and  C_4
REMARK    4  A    between atoms: C_2  and  N_5
REMARK    5  A    between atoms: N_5  and  S_6
REMARK    6  A    between atoms: S_6  and  C_9
REMARK    7  A    between atoms: C_14  and  C_15
REMARK    8  A    between atoms: C_18  and  C_19
REMARK    9  A    between atoms: C_23  and  C_24
REMARK                            x       y       z     vdW  Elec       q    Type
REMARK                         _______ _______ _______ _____ _____    ______ ____
ROOT
ATOM      1  C   UNL     1       3.253   7.025  18.159  0.00  0.00    +0.000 A 
ATOM      2  C   UNL     1       2.858   6.916  19.510  0.00  0.00    +0.000 A 
ATOM      3  C   UNL     1       1.960   7.821  20.099  0.00  0.00    +0.000 A 
ATOM      4  C   UNL     1       1.367   8.825  19.334  0.00  0.00    +0.000 A 
ATOM      5  C   UNL     1       1.734   8.936  18.000  0.00  0.00    +0.000 A 
ATOM      6  F   UNL     1       1.209   9.886  17.213  0.00  0.00    +0.000 F 
ATOM      7  C   UNL     1       2.702   8.097  17.449  0.00  0.00    +0.000 A 
ENDROOT
BRANCH   4   8
ATOM      8  C   UNL     1       0.466   9.767  19.949  0.00  0.00    +0.000 A 
ATOM      9  C   UNL     1       0.149   9.842  21.288  0.00  0.00    +0.000 A 
ATOM     10  N   UNL     1      -0.781  10.836  21.389  0.00  0.00    +0.000 N 
ATOM     11  C   UNL     1      -1.438  11.323  22.520  0.00  0.00    +0.000 A 
ATOM     12  C   UNL     1      -2.343  12.314  22.385  0.00  0.00    +0.000 A 
ATOM     13  C   UNL     1      -2.604  12.827  21.033  0.00  0.00    +0.000 A 
ATOM     14  C   UNL     1      -1.957  12.353  19.951  0.00  0.00    +0.000 A 
ATOM     15  C   UNL     1      -0.988  11.324  20.106  0.00  0.00    +0.000 A 
ATOM     16  N   UNL     1      -0.221  10.720  19.227  0.00  0.00    +0.000 NA
BRANCH  12  17
ATOM     17  C   UNL     1      -3.071  12.901  23.558  0.00  0.00    +0.000 C 
ATOM     18  F   UNL     1      -4.119  13.679  23.206  0.00  0.00    +0.000 F 
ATOM     19  F   UNL     1      -3.566  11.925  24.371  0.00  0.00    +0.000 F 
ATOM     20  F   UNL     1      -2.252  13.662  24.322  0.00  0.00    +0.000 F 
ENDBRANCH  12  17
ENDBRANCH   4   8
BRANCH   1  26
ATOM     21  C   UNL     1       4.127   4.719  17.306  0.00  0.00    +0.000 A 
ATOM     22  C   UNL     1       5.200   3.987  16.741  0.00  0.00    +0.000 A 
ATOM     23  C   UNL     1       6.432   4.576  16.487  0.00  0.00    +0.000 A 
ATOM     24  C   UNL     1       6.603   5.921  16.754  0.00  0.00    +0.000 A 
ATOM     25  C   UNL     1       5.537   6.667  17.265  0.00  0.00    +0.000 A 
ATOM     26  C   UNL     1       4.269   6.105  17.577  0.00  0.00    +0.000 A 
BRANCH  21  27
ATOM     27  S   UNL     1       2.687   3.713  17.705  0.00  0.00    +0.000 S 
ATOM     28  O   UNL     1       2.893   2.416  17.098  0.00  0.00    +0.000 OA
ATOM     29  O   UNL     1       1.498   4.458  17.366  0.00  0.00    +0.000 OA
BRANCH  27  30
ATOM     30  N   UNL     1       2.747   3.540  19.393  0.00  0.00    +0.000 NA
ATOM     31  H   UNL     1       3.601   3.065  19.685  0.00  0.00    +0.000 HD
BRANCH  30  33
ATOM     32  C   UNL     1       0.711   2.105  19.451  0.00  0.00    +0.000 C 
ATOM     33  C   UNL     1       1.542   3.155  20.186  0.00  0.00    +0.000 C 
ATOM     34  C   UNL     1       0.718   4.396  20.560  0.00  0.00    +0.000 C 
ATOM     35  C   UNL     1       2.030   2.535  21.512  0.00  0.00    +0.000 C 
ENDBRANCH  30  33
ENDBRANCH  27  30
ENDBRANCH  21  27
ENDBRANCH   1  26
TORSDOF 6
ENDMDL
