MODEL 1
REMARK VINA RESULT:      -8.6      0.000      0.000
REMARK  Name = 
REMARK  11 active torsions:
REMARK  status: ('A' for Active; 'I' for Inactive)
REMARK    1  A    between atoms: C_1  and  C_2
REMARK    2  A    between atoms: C_2  and  C_3
REMARK    3  A    between atoms: C_2  and  C_4
REMARK    4  A    between atoms: C_2  and  N_5
REMARK    5  A    between atoms: N_5  and  C_6
REMARK    6  A    between atoms: C_6  and  C_7
REMARK    7  A    between atoms: C_7  and  O_8
REMARK    8  A    between atoms: C_7  and  C_9
REMARK    9  A    between atoms: C_9  and  O_10
REMARK   10  A    between atoms: O_10  and  C_11
REMARK   11  A    between atoms: C_17  and  O_18
REMARK                            x       y       z     vdW  Elec       q    Type
REMARK                         _______ _______ _______ _____ _____    ______ ____
ROOT
ATOM      1  C   UNL     1       3.973   5.724  17.501  0.00  0.00    +0.000 A 
ATOM      2  C   UNL     1       3.451   7.026  17.573  0.00  0.00    +0.000 A 
ATOM      3  C   UNL     1       2.720   7.463  18.692  0.00  0.00    +0.000 A 
ATOM      4  C   UNL     1       2.509   6.605  19.767  0.00  0.00    +0.000 A 
ATOM      5  C   UNL     1       3.033   5.332  19.672  0.00  0.00    +0.000 A 
ATOM      6  C   UNL     1       3.743   4.886  18.575  0.00  0.00    +0.000 A 
ATOM      7  C   UNL     1       4.018   3.529  19.207  0.00  0.00    +0.000 C 
ATOM      8  C   UNL     1       3.515   2.270  18.497  0.00  0.00    +0.000 C 
ATOM      9  C   UNL     1       2.158   2.383  17.813  0.00  0.00    +0.000 C 
ATOM     10  C   UNL     1       0.969   2.189  18.744  0.00  0.00    +0.000 C 
ATOM     11  C   UNL     1       0.764   3.309  19.756  0.00  0.00    +0.000 C 
ATOM     12  C   UNL     1       1.837   3.382  20.841  0.00  0.00    +0.000 C 
ATOM     13  C   UNL     1       3.151   4.040  20.429  0.00  0.00    +0.000 C 
ENDROOT
BRANCH   7  14
ATOM     14  O   UNL     1       5.410   3.311  19.561  0.00  0.00    +0.000 OA
ATOM     15  H   UNL     1       5.912   3.976  19.059  0.00  0.00    +0.000 HD
ENDBRANCH   7  14
BRANCH   1  16
ATOM     16  O   UNL     1       4.713   5.461  16.387  0.00  0.00    +0.000 OA
BRANCH  16  17
ATOM     17  C   UNL     1       6.132   5.440  16.565  0.00  0.00    +0.000 C 
BRANCH  17  18
ATOM     18  C   UNL     1       6.792   4.713  15.386  0.00  0.00    +0.000 C 
BRANCH  18  19
ATOM     19  O   UNL     1       7.760   5.584  14.780  0.00  0.00    +0.000 OA
ATOM     20  H   UNL     1       7.292   6.416  14.582  0.00  0.00    +0.000 HD
ENDBRANCH  18  19
BRANCH  18  21
ATOM     21  C   UNL     1       5.741   4.293  14.344  0.00  0.00    +0.000 C 
BRANCH  21  22
ATOM     22  N   UNL     1       6.173   3.094  13.613  0.00  0.00    +0.000 NA
ATOM     23  H   UNL     1       7.154   2.915  13.847  0.00  0.00    +0.000 HD
BRANCH  22  25
ATOM     24  C   UNL     1       4.600   3.673  11.757  0.00  0.00    +0.000 C 
ATOM     25  C   UNL     1       5.991   3.150  12.152  0.00  0.00    +0.000 C 
ATOM     26  C   UNL     1       6.240   1.773  11.515  0.00  0.00    +0.000 C 
ATOM     27  C   UNL     1       7.045   4.131  11.601  0.00  0.00    +0.000 C 
ENDBRANCH  22  25
ENDBRANCH  21  22
ENDBRANCH  18  21
ENDBRANCH  17  18
ENDBRANCH  16  17
ENDBRANCH   1  16
TORSDOF 8
ENDMDL
MODEL 2
REMARK VINA RESULT:      -8.6      0.628      1.036
REMARK  Name = 
REMARK  11 active torsions:
REMARK  status: ('A' for Active; 'I' for Inactive)
REMARK    1  A    between atoms: C_1  and  C_2
REMARK    2  A    between atoms: C_2  and  C_3
REMARK    3  A    between atoms: C_2  and  C_4
REMARK    4  A    between atoms: C_2  and  N_5
REMARK    5  A    between atoms: N_5  and  C_6
REMARK    6  A    between atoms: C_6  and  C_7
REMARK    7  A    between atoms: C_7  and  O_8
REMARK    8  A    between atoms: C_7  and  C_9
REMARK    9  A    between atoms: C_9  and  O_10
REMARK   10  A    between atoms: O_10  and  C_11
REMARK   11  A    between atoms: C_17  and  O_18
REMARK                            x       y       z     vdW  Elec       q    Type
REMARK                         _______ _______ _______ _____ _____    ______ ____
ROOT
ATOM      1  C   UNL     1       3.925   5.956  17.505  0.00  0.00    +0.000 A 
ATOM      2  C   UNL     1       3.337   7.226  17.620  0.00  0.00    +0.000 A 
ATOM      3  C   UNL     1       2.595   7.591  18.758  0.00  0.00    +0.000 A 
ATOM      4  C   UNL     1       2.442   6.692  19.809  0.00  0.00    +0.000 A 
ATOM      5  C   UNL     1       3.030   5.452  19.672  0.00  0.00    +0.000 A 
ATOM      6  C   UNL     1       3.751   5.076  18.556  0.00  0.00    +0.000 A 
ATOM      7  C   UNL     1       4.104   3.718  19.146  0.00  0.00    +0.000 C 
ATOM      8  C   UNL     1       3.661   2.455  18.404  0.00  0.00    +0.000 C 
ATOM      9  C   UNL     1       2.292   2.516  17.736  0.00  0.00    +0.000 C 
ATOM     10  C   UNL     1       1.125   2.233  18.672  0.00  0.00    +0.000 C 
ATOM     11  C   UNL     1       0.872   3.310  19.718  0.00  0.00    +0.000 C 
ATOM     12  C   UNL     1       1.951   3.409  20.795  0.00  0.00    +0.000 C 
ATOM     13  C   UNL     1       3.225   4.147  20.390  0.00  0.00    +0.000 C 
ENDROOT
BRANCH   7  14
ATOM     14  O   UNL     1       5.510   3.564  19.481  0.00  0.00    +0.000 OA
ATOM     15  H   UNL     1       5.612   3.973  20.357  0.00  0.00    +0.000 HD
ENDBRANCH   7  14
BRANCH   1  16
ATOM     16  O   UNL     1       4.667   5.764  16.377  0.00  0.00    +0.000 OA
BRANCH  16  17
ATOM     17  C   UNL     1       6.085   5.719  16.557  0.00  0.00    +0.000 C 
BRANCH  17  18
ATOM     18  C   UNL     1       6.634   4.392  16.016  0.00  0.00    +0.000 C 
BRANCH  18  19
ATOM     19  O   UNL     1       7.865   4.084  16.687  0.00  0.00    +0.000 OA
ATOM     20  H   UNL     1       7.768   3.177  17.033  0.00  0.00    +0.000 HD
ENDBRANCH  18  19
BRANCH  18  21
ATOM     21  C   UNL     1       6.872   4.476  14.498  0.00  0.00    +0.000 C 
BRANCH  21  22
ATOM     22  N   UNL     1       6.267   3.332  13.804  0.00  0.00    +0.000 NA
ATOM     23  H   UNL     1       6.767   2.485  14.092  0.00  0.00    +0.000 HD
BRANCH  22  25
ATOM     24  C   UNL     1       7.123   4.573  11.809  0.00  0.00    +0.000 C 
ATOM     25  C   UNL     1       6.231   3.437  12.335  0.00  0.00    +0.000 C 
ATOM     26  C   UNL     1       4.788   3.621  11.833  0.00  0.00    +0.000 C 
ATOM     27  C   UNL     1       6.768   2.106  11.772  0.00  0.00    +0.000 C 
ENDBRANCH  22  25
ENDBRANCH  21  22
ENDBRANCH  18  21
ENDBRANCH  17  18
ENDBRANCH  16  17
ENDBRANCH   1  16
TORSDOF 8
ENDMDL
MODEL 3
REMARK VINA RESULT:      -8.0      0.637      1.120
REMARK  Name = 
REMARK  11 active torsions:
REMARK  status: ('A' for Active; 'I' for Inactive)
REMARK    1  A    between atoms: C_1  and  C_2
REMARK    2  A    between atoms: C_2  and  C_3
REMARK    3  A    between atoms: C_2  and  C_4
REMARK    4  A    between atoms: C_2  and  N_5
REMARK    5  A    between atoms: N_5  and  C_6
REMARK    6  A    between atoms: C_6  and  C_7
REMARK    7  A    between atoms: C_7  and  O_8
REMARK    8  A    between atoms: C_7  and  C_9
REMARK    9  A    between atoms: C_9  and  O_10
REMARK   10  A    between atoms: O_10  and  C_11
REMARK   11  A    between atoms: C_17  and  O_18
REMARK                            x       y       z     vdW  Elec       q    Type
REMARK                         _______ _______ _______ _____ _____    ______ ____
ROOT
ATOM      1  C   UNL     1       4.692   4.931  17.801  0.00  0.00    +0.000 A 
ATOM      2  C   UNL     1       4.419   6.283  17.536  0.00  0.00    +0.000 A 
ATOM      3  C   UNL     1       3.514   7.017  18.323  0.00  0.00    +0.000 A 
ATOM      4  C   UNL     1       2.875   6.411  19.401  0.00  0.00    +0.000 A 
ATOM      5  C   UNL     1       3.162   5.083  19.640  0.00  0.00    +0.000 A 
ATOM      6  C   UNL     1       4.039   4.347  18.869  0.00  0.00    +0.000 A 
ATOM      7  C   UNL     1       3.885   3.106  19.737  0.00  0.00    +0.000 C 
ATOM      8  C   UNL     1       3.362   1.818  19.096  0.00  0.00    +0.000 C 
ATOM      9  C   UNL     1       2.276   1.989  18.041  0.00  0.00    +0.000 C 
ATOM     10  C   UNL     1       0.870   2.137  18.606  0.00  0.00    +0.000 C 
ATOM     11  C   UNL     1       0.617   3.443  19.348  0.00  0.00    +0.000 C 
ATOM     12  C   UNL     1       1.364   3.568  20.676  0.00  0.00    +0.000 C 
ATOM     13  C   UNL     1       2.838   3.950  20.572  0.00  0.00    +0.000 C 
ENDROOT
BRANCH   7  14
ATOM     14  O   UNL     1       5.071   2.769  20.505  0.00  0.00    +0.000 OA
ATOM     15  H   UNL     1       5.403   1.941  20.118  0.00  0.00    +0.000 HD
ENDBRANCH   7  14
BRANCH   1  16
ATOM     16  O   UNL     1       5.637   4.366  16.996  0.00  0.00    +0.000 OA
BRANCH  16  17
ATOM     17  C   UNL     1       6.551   5.270  16.369  0.00  0.00    +0.000 C 
BRANCH  17  18
ATOM     18  C   UNL     1       7.047   4.671  15.047  0.00  0.00    +0.000 C 
BRANCH  18  19
ATOM     19  O   UNL     1       7.931   5.606  14.409  0.00  0.00    +0.000 OA
ATOM     20  H   UNL     1       8.777   5.139  14.284  0.00  0.00    +0.000 HD
ENDBRANCH  18  19
BRANCH  18  21
ATOM     21  C   UNL     1       5.866   4.347  14.114  0.00  0.00    +0.000 C 
BRANCH  21  22
ATOM     22  N   UNL     1       6.021   3.018  13.508  0.00  0.00    +0.000 NA
ATOM     23  H   UNL     1       6.899   2.614  13.849  0.00  0.00    +0.000 HD
BRANCH  22  25
ATOM     24  C   UNL     1       6.219   1.581  11.470  0.00  0.00    +0.000 C 
ATOM     25  C   UNL     1       5.977   2.991  12.036  0.00  0.00    +0.000 C 
ATOM     26  C   UNL     1       6.989   3.982  11.438  0.00  0.00    +0.000 C 
ATOM     27  C   UNL     1       4.562   3.439  11.616  0.00  0.00    +0.000 C 
ENDBRANCH  22  25
ENDBRANCH  21  22
ENDBRANCH  18  21
ENDBRANCH  17  18
ENDBRANCH  16  17
ENDBRANCH   1  16
TORSDOF 8
ENDMDL
MODEL 4
REMARK VINA RESULT:      -7.5      1.922      2.527
REMARK  Name = 
REMARK  11 active torsions:
REMARK  status: ('A' for Active; 'I' for Inactive)
REMARK    1  A    between atoms: C_1  and  C_2
REMARK    2  A    between atoms: C_2  and  C_3
REMARK    3  A    between atoms: C_2  and  C_4
REMARK    4  A    between atoms: C_2  and  N_5
REMARK    5  A    between atoms: N_5  and  C_6
REMARK    6  A    between atoms: C_6  and  C_7
REMARK    7  A    between atoms: C_7  and  O_8
REMARK    8  A    between atoms: C_7  and  C_9
REMARK    9  A    between atoms: C_9  and  O_10
REMARK   10  A    between atoms: O_10  and  C_11
REMARK   11  A    between atoms: C_17  and  O_18
REMARK                            x       y       z     vdW  Elec       q    Type
REMARK                         _______ _______ _______ _____ _____    ______ ____
ROOT
ATOM      1  C   UNL     1       4.111   5.530  19.113  0.00  0.00    +0.000 A 
ATOM      2  C   UNL     1       3.452   6.763  19.247  0.00  0.00    +0.000 A 
ATOM      3  C   UNL     1       2.278   6.889  20.011  0.00  0.00    +0.000 A 
ATOM      4  C   UNL     1       1.750   5.780  20.666  0.00  0.00    +0.000 A 
ATOM      5  C   UNL     1       2.416   4.582  20.519  0.00  0.00    +0.000 A 
ATOM      6  C   UNL     1       3.563   4.442  19.763  0.00  0.00    +0.000 A 
ATOM      7  C   UNL     1       3.717   2.972  20.126  0.00  0.00    +0.000 C 
ATOM      8  C   UNL     1       3.707   1.930  19.004  0.00  0.00    +0.000 C 
ATOM      9  C   UNL     1       2.749   2.198  17.850  0.00  0.00    +0.000 C 
ATOM     10  C   UNL     1       1.315   1.756  18.110  0.00  0.00    +0.000 C 
ATOM     11  C   UNL     1       0.578   2.576  19.161  0.00  0.00    +0.000 C 
ATOM     12  C   UNL     1       1.092   2.381  20.587  0.00  0.00    +0.000 C 
ATOM     13  C   UNL     1       2.369   3.140  20.939  0.00  0.00    +0.000 C 
ENDROOT
BRANCH   7  14
ATOM     14  O   UNL     1       4.855   2.688  20.984  0.00  0.00    +0.000 OA
ATOM     15  H   UNL     1       4.490   2.209  21.747  0.00  0.00    +0.000 HD
ENDBRANCH   7  14
BRANCH   1  16
ATOM     16  O   UNL     1       5.270   5.572  18.396  0.00  0.00    +0.000 OA
BRANCH  16  17
ATOM     17  C   UNL     1       6.478   5.419  19.146  0.00  0.00    +0.000 C 
BRANCH  17  18
ATOM     18  C   UNL     1       7.671   5.900  18.310  0.00  0.00    +0.000 C 
BRANCH  18  19
ATOM     19  O   UNL     1       8.356   6.942  19.023  0.00  0.00    +0.000 OA
ATOM     20  H   UNL     1       7.669   7.571  19.312  0.00  0.00    +0.000 HD
ENDBRANCH  18  19
BRANCH  18  21
ATOM     21  C   UNL     1       7.206   6.422  16.939  0.00  0.00    +0.000 C 
BRANCH  21  22
ATOM     22  N   UNL     1       7.547   5.475  15.870  0.00  0.00    +0.000 NA
ATOM     23  H   UNL     1       8.195   5.941  15.227  0.00  0.00    +0.000 HD
BRANCH  22  25
ATOM     24  C   UNL     1       5.841   3.648  15.795  0.00  0.00    +0.000 C 
ATOM     25  C   UNL     1       6.398   4.920  15.134  0.00  0.00    +0.000 C 
ATOM     26  C   UNL     1       6.770   4.635  13.669  0.00  0.00    +0.000 C 
ATOM     27  C   UNL     1       5.290   5.991  15.148  0.00  0.00    +0.000 C 
ENDBRANCH  22  25
ENDBRANCH  21  22
ENDBRANCH  18  21
ENDBRANCH  17  18
ENDBRANCH  16  17
ENDBRANCH   1  16
TORSDOF 8
ENDMDL
MODEL 5
REMARK VINA RESULT:      -7.3      3.899      7.324
REMARK  Name = 
REMARK  11 active torsions:
REMARK  status: ('A' for Active; 'I' for Inactive)
REMARK    1  A    between atoms: C_1  and  C_2
REMARK    2  A    between atoms: C_2  and  C_3
REMARK    3  A    between atoms: C_2  and  C_4
REMARK    4  A    between atoms: C_2  and  N_5
REMARK    5  A    between atoms: N_5  and  C_6
REMARK    6  A    between atoms: C_6  and  C_7
REMARK    7  A    between atoms: C_7  and  O_8
REMARK    8  A    between atoms: C_7  and  C_9
REMARK    9  A    between atoms: C_9  and  O_10
REMARK   10  A    between atoms: O_10  and  C_11
REMARK   11  A    between atoms: C_17  and  O_18
REMARK                            x       y       z     vdW  Elec       q    Type
REMARK                         _______ _______ _______ _____ _____    ______ ____
ROOT
ATOM      1  C   UNL     1       3.213   6.266  17.940  0.00  0.00    +0.000 A 
ATOM      2  C   UNL     1       4.463   6.634  17.418  0.00  0.00    +0.000 A 
ATOM      3  C   UNL     1       5.359   5.674  16.913  0.00  0.00    +0.000 A 
ATOM      4  C   UNL     1       5.009   4.327  16.910  0.00  0.00    +0.000 A 
ATOM      5  C   UNL     1       3.775   3.993  17.428  0.00  0.00    +0.000 A 
ATOM      6  C   UNL     1       2.891   4.923  17.938  0.00  0.00    +0.000 A 
ATOM      7  C   UNL     1       1.827   3.873  18.219  0.00  0.00    +0.000 C 
ATOM      8  C   UNL     1       1.342   3.681  19.658  0.00  0.00    +0.000 C 
ATOM      9  C   UNL     1       2.403   3.810  20.745  0.00  0.00    +0.000 C 
ATOM     10  C   UNL     1       3.219   2.546  20.977  0.00  0.00    +0.000 C 
ATOM     11  C   UNL     1       4.161   2.178  19.838  0.00  0.00    +0.000 C 
ATOM     12  C   UNL     1       3.457   1.711  18.565  0.00  0.00    +0.000 C 
ATOM     13  C   UNL     1       2.877   2.816  17.686  0.00  0.00    +0.000 C 
ENDROOT
BRANCH   7  14
ATOM     14  O   UNL     1       0.654   3.974  17.367  0.00  0.00    +0.000 OA
ATOM     15  H   UNL     1       0.850   4.692  16.742  0.00  0.00    +0.000 HD
ENDBRANCH   7  14
BRANCH   1  16
ATOM     16  O   UNL     1       2.425   7.307  18.335  0.00  0.00    +0.000 OA
BRANCH  16  17
ATOM     17  C   UNL     1       2.741   8.583  17.772  0.00  0.00    +0.000 C 
BRANCH  17  18
ATOM     18  C   UNL     1       1.560   9.543  17.965  0.00  0.00    +0.000 C 
BRANCH  18  19
ATOM     19  O   UNL     1       1.951  10.860  17.549  0.00  0.00    +0.000 OA
ATOM     20  H   UNL     1       2.858  10.778  17.200  0.00  0.00    +0.000 HD
ENDBRANCH  18  19
BRANCH  18  21
ATOM     21  C   UNL     1       1.111   9.571  19.437  0.00  0.00    +0.000 C 
BRANCH  21  22
ATOM     22  N   UNL     1      -0.210  10.196  19.574  0.00  0.00    +0.000 NA
ATOM     23  H   UNL     1      -0.450  10.634  18.679  0.00  0.00    +0.000 HD
BRANCH  22  25
ATOM     24  C   UNL     1      -1.599  12.033  20.551  0.00  0.00    +0.000 C 
ATOM     25  C   UNL     1      -0.332  11.170  20.673  0.00  0.00    +0.000 C 
ATOM     26  C   UNL     1       0.914  12.067  20.753  0.00  0.00    +0.000 C 
ATOM     27  C   UNL     1      -0.427  10.364  21.984  0.00  0.00    +0.000 C 
ENDBRANCH  22  25
ENDBRANCH  21  22
ENDBRANCH  18  21
ENDBRANCH  17  18
ENDBRANCH  16  17
ENDBRANCH   1  16
TORSDOF 8
ENDMDL
MODEL 6
REMARK VINA RESULT:      -7.3      3.988      7.173
REMARK  Name = 
REMARK  11 active torsions:
REMARK  status: ('A' for Active; 'I' for Inactive)
REMARK    1  A    between atoms: C_1  and  C_2
REMARK    2  A    between atoms: C_2  and  C_3
REMARK    3  A    between atoms: C_2  and  C_4
REMARK    4  A    between atoms: C_2  and  N_5
REMARK    5  A    between atoms: N_5  and  C_6
REMARK    6  A    between atoms: C_6  and  C_7
REMARK    7  A    between atoms: C_7  and  O_8
REMARK    8  A    between atoms: C_7  and  C_9
REMARK    9  A    between atoms: C_9  and  O_10
REMARK   10  A    between atoms: O_10  and  C_11
REMARK   11  A    between atoms: C_17  and  O_18
REMARK                            x       y       z     vdW  Elec       q    Type
REMARK                         _______ _______ _______ _____ _____    ______ ____
ROOT
ATOM      1  C   UNL     1       3.028   6.406  17.958  0.00  0.00    +0.000 A 
ATOM      2  C   UNL     1       4.286   6.831  17.499  0.00  0.00    +0.000 A 
ATOM      3  C   UNL     1       5.249   5.913  17.044  0.00  0.00    +0.000 A 
ATOM      4  C   UNL     1       4.963   4.551  17.026  0.00  0.00    +0.000 A 
ATOM      5  C   UNL     1       3.720   4.161  17.480  0.00  0.00    +0.000 A 
ATOM      6  C   UNL     1       2.769   5.049  17.941  0.00  0.00    +0.000 A 
ATOM      7  C   UNL     1       1.741   3.951  18.170  0.00  0.00    +0.000 C 
ATOM      8  C   UNL     1       1.192   3.737  19.582  0.00  0.00    +0.000 C 
ATOM      9  C   UNL     1       2.189   3.914  20.722  0.00  0.00    +0.000 C 
ATOM     10  C   UNL     1       3.049   2.689  20.999  0.00  0.00    +0.000 C 
ATOM     11  C   UNL     1       4.064   2.365  19.911  0.00  0.00    +0.000 C 
ATOM     12  C   UNL     1       3.448   1.866  18.604  0.00  0.00    +0.000 C 
ATOM     13  C   UNL     1       2.865   2.944  17.693  0.00  0.00    +0.000 C 
ENDROOT
BRANCH   7  14
ATOM     14  O   UNL     1       0.610   3.999  17.258  0.00  0.00    +0.000 OA
ATOM     15  H   UNL     1       0.912   4.526  16.500  0.00  0.00    +0.000 HD
ENDBRANCH   7  14
BRANCH   1  16
ATOM     16  O   UNL     1       2.174   7.410  18.309  0.00  0.00    +0.000 OA
BRANCH  16  17
ATOM     17  C   UNL     1       2.703   8.737  18.243  0.00  0.00    +0.000 C 
BRANCH  17  18
ATOM     18  C   UNL     1       1.646   9.688  17.670  0.00  0.00    +0.000 C 
BRANCH  18  19
ATOM     19  O   UNL     1       2.237  10.982  17.468  0.00  0.00    +0.000 OA
ATOM     20  H   UNL     1       3.177  10.823  17.265  0.00  0.00    +0.000 HD
ENDBRANCH  18  19
BRANCH  18  21
ATOM     21  C   UNL     1       0.441   9.806  18.620  0.00  0.00    +0.000 C 
BRANCH  21  22
ATOM     22  N   UNL     1      -0.690  10.470  17.958  0.00  0.00    +0.000 NA
ATOM     23  H   UNL     1      -0.377  10.788  17.036  0.00  0.00    +0.000 HD
BRANCH  22  25
ATOM     24  C   UNL     1      -2.821  11.641  18.545  0.00  0.00    +0.000 C 
ATOM     25  C   UNL     1      -1.293  11.583  18.712  0.00  0.00    +0.000 C 
ATOM     26  C   UNL     1      -0.664  12.926  18.304  0.00  0.00    +0.000 C 
ATOM     27  C   UNL     1      -0.983  11.341  20.203  0.00  0.00    +0.000 C 
ENDBRANCH  22  25
ENDBRANCH  21  22
ENDBRANCH  18  21
ENDBRANCH  17  18
ENDBRANCH  16  17
ENDBRANCH   1  16
TORSDOF 8
ENDMDL
MODEL 7
REMARK VINA RESULT:      -7.2      3.878      7.155
REMARK  Name = 
REMARK  11 active torsions:
REMARK  status: ('A' for Active; 'I' for Inactive)
REMARK    1  A    between atoms: C_1  and  C_2
REMARK    2  A    between atoms: C_2  and  C_3
REMARK    3  A    between atoms: C_2  and  C_4
REMARK    4  A    between atoms: C_2  and  N_5
REMARK    5  A    between atoms: N_5  and  C_6
REMARK    6  A    between atoms: C_6  and  C_7
REMARK    7  A    between atoms: C_7  and  O_8
REMARK    8  A    between atoms: C_7  and  C_9
REMARK    9  A    between atoms: C_9  and  O_10
REMARK   10  A    between atoms: O_10  and  C_11
REMARK   11  A    between atoms: C_17  and  O_18
REMARK                            x       y       z     vdW  Elec       q    Type
REMARK                         _______ _______ _______ _____ _____    ______ ____
ROOT
ATOM      1  C   UNL     1       3.320   6.463  17.886  0.00  0.00    +0.000 A 
ATOM      2  C   UNL     1       4.598   6.812  17.421  0.00  0.00    +0.000 A 
ATOM      3  C   UNL     1       5.484   5.845  16.914  0.00  0.00    +0.000 A 
ATOM      4  C   UNL     1       5.099   4.509  16.851  0.00  0.00    +0.000 A 
ATOM      5  C   UNL     1       3.838   4.193  17.312  0.00  0.00    +0.000 A 
ATOM      6  C   UNL     1       2.962   5.130  17.823  0.00  0.00    +0.000 A 
ATOM      7  C   UNL     1       1.859   4.101  18.029  0.00  0.00    +0.000 C 
ATOM      8  C   UNL     1       1.317   3.873  19.442  0.00  0.00    +0.000 C 
ATOM      9  C   UNL     1       2.342   3.934  20.569  0.00  0.00    +0.000 C 
ATOM     10  C   UNL     1       3.114   2.639  20.785  0.00  0.00    +0.000 C 
ATOM     11  C   UNL     1       4.085   2.284  19.667  0.00  0.00    +0.000 C 
ATOM     12  C   UNL     1       3.415   1.883  18.353  0.00  0.00    +0.000 C 
ATOM     13  C   UNL     1       2.899   3.035  17.495  0.00  0.00    +0.000 C 
ENDROOT
BRANCH   7  14
ATOM     14  O   UNL     1       0.721   4.266  17.140  0.00  0.00    +0.000 OA
ATOM     15  H   UNL     1       0.750   3.502  16.540  0.00  0.00    +0.000 HD
ENDBRANCH   7  14
BRANCH   1  16
ATOM     16  O   UNL     1       2.547   7.511  18.290  0.00  0.00    +0.000 OA
BRANCH  16  17
ATOM     17  C   UNL     1       2.147   7.505  19.663  0.00  0.00    +0.000 C 
BRANCH  17  18
ATOM     18  C   UNL     1       1.494   8.847  20.018  0.00  0.00    +0.000 C 
BRANCH  18  19
ATOM     19  O   UNL     1       0.413   8.615  20.935  0.00  0.00    +0.000 OA
ATOM     20  H   UNL     1      -0.389   8.513  20.389  0.00  0.00    +0.000 HD
ENDBRANCH  18  19
BRANCH  18  21
ATOM     21  C   UNL     1       0.968   9.553  18.756  0.00  0.00    +0.000 C 
BRANCH  21  22
ATOM     22  N   UNL     1       0.798  10.993  18.989  0.00  0.00    +0.000 NA
ATOM     23  H   UNL     1       1.241  11.225  19.883  0.00  0.00    +0.000 HD
BRANCH  22  25
ATOM     24  C   UNL     1      -1.187  11.625  20.374  0.00  0.00    +0.000 C 
ATOM     25  C   UNL     1      -0.595  11.471  18.962  0.00  0.00    +0.000 C 
ATOM     26  C   UNL     1      -1.480  10.540  18.117  0.00  0.00    +0.000 C 
ATOM     27  C   UNL     1      -0.586  12.861  18.294  0.00  0.00    +0.000 C 
ENDBRANCH  22  25
ENDBRANCH  21  22
ENDBRANCH  18  21
ENDBRANCH  17  18
ENDBRANCH  16  17
ENDBRANCH   1  16
TORSDOF 8
ENDMDL
MODEL 8
REMARK VINA RESULT:      -7.1      3.847      6.837
REMARK  Name = 
REMARK  11 active torsions:
REMARK  status: ('A' for Active; 'I' for Inactive)
REMARK    1  A    between atoms: C_1  and  C_2
REMARK    2  A    between atoms: C_2  and  C_3
REMARK    3  A    between atoms: C_2  and  C_4
REMARK    4  A    between atoms: C_2  and  N_5
REMARK    5  A    between atoms: N_5  and  C_6
REMARK    6  A    between atoms: C_6  and  C_7
REMARK    7  A    between atoms: C_7  and  O_8
REMARK    8  A    between atoms: C_7  and  C_9
REMARK    9  A    between atoms: C_9  and  O_10
REMARK   10  A    between atoms: O_10  and  C_11
REMARK   11  A    between atoms: C_17  and  O_18
REMARK                            x       y       z     vdW  Elec       q    Type
REMARK                         _______ _______ _______ _____ _____    ______ ____
ROOT
ATOM      1  C   UNL     1       3.121   6.359  17.878  0.00  0.00    +0.000 A 
ATOM      2  C   UNL     1       4.389   6.775  17.439  0.00  0.00    +0.000 A 
ATOM      3  C   UNL     1       5.342   5.852  16.970  0.00  0.00    +0.000 A 
ATOM      4  C   UNL     1       5.035   4.496  16.920  0.00  0.00    +0.000 A 
ATOM      5  C   UNL     1       3.783   4.115  17.355  0.00  0.00    +0.000 A 
ATOM      6  C   UNL     1       2.842   5.008  17.829  0.00  0.00    +0.000 A 
ATOM      7  C   UNL     1       1.795   3.920  18.025  0.00  0.00    +0.000 C 
ATOM      8  C   UNL     1       1.231   3.683  19.428  0.00  0.00    +0.000 C 
ATOM      9  C   UNL     1       2.221   3.820  20.579  0.00  0.00    +0.000 C 
ATOM     10  C   UNL     1       3.060   2.575  20.835  0.00  0.00    +0.000 C 
ATOM     11  C   UNL     1       4.079   2.260  19.747  0.00  0.00    +0.000 C 
ATOM     12  C   UNL     1       3.467   1.800  18.425  0.00  0.00    +0.000 C 
ATOM     13  C   UNL     1       2.907   2.907  17.534  0.00  0.00    +0.000 C 
ENDROOT
BRANCH   7  14
ATOM     14  O   UNL     1       0.673   4.006  17.106  0.00  0.00    +0.000 OA
ATOM     15  H   UNL     1       1.048   3.845  16.224  0.00  0.00    +0.000 HD
ENDBRANCH   7  14
BRANCH   1  16
ATOM     16  O   UNL     1       2.280   7.368  18.245  0.00  0.00    +0.000 OA
BRANCH  16  17
ATOM     17  C   UNL     1       2.682   8.689  17.872  0.00  0.00    +0.000 C 
BRANCH  17  18
ATOM     18  C   UNL     1       1.456   9.611  17.831  0.00  0.00    +0.000 C 
BRANCH  18  19
ATOM     19  O   UNL     1       1.897  10.978  17.815  0.00  0.00    +0.000 OA
ATOM     20  H   UNL     1       2.278  11.151  18.696  0.00  0.00    +0.000 HD
ENDBRANCH  18  19
BRANCH  18  21
ATOM     21  C   UNL     1       0.546   9.368  19.047  0.00  0.00    +0.000 C 
BRANCH  21  22
ATOM     22  N   UNL     1       1.260   9.637  20.303  0.00  0.00    +0.000 NA
ATOM     23  H   UNL     1       2.266   9.604  20.110  0.00  0.00    +0.000 HD
BRANCH  22  25
ATOM     24  C   UNL     1       1.457   9.257  22.767  0.00  0.00    +0.000 C 
ATOM     25  C   UNL     1       0.919   8.741  21.422  0.00  0.00    +0.000 C 
ATOM     26  C   UNL     1       1.431   7.315  21.159  0.00  0.00    +0.000 C 
ATOM     27  C   UNL     1      -0.620   8.690  21.509  0.00  0.00    +0.000 C 
ENDBRANCH  22  25
ENDBRANCH  21  22
ENDBRANCH  18  21
ENDBRANCH  17  18
ENDBRANCH  16  17
ENDBRANCH   1  16
TORSDOF 8
ENDMDL
MODEL 9
REMARK VINA RESULT:      -7.1      4.196      7.316
REMARK  Name = 
REMARK  11 active torsions:
REMARK  status: ('A' for Active; 'I' for Inactive)
REMARK    1  A    between atoms: C_1  and  C_2
REMARK    2  A    between atoms: C_2  and  C_3
REMARK    3  A    between atoms: C_2  and  C_4
REMARK    4  A    between atoms: C_2  and  N_5
REMARK    5  A    between atoms: N_5  and  C_6
REMARK    6  A    between atoms: C_6  and  C_7
REMARK    7  A    between atoms: C_7  and  O_8
REMARK    8  A    between atoms: C_7  and  C_9
REMARK    9  A    between atoms: C_9  and  O_10
REMARK   10  A    between atoms: O_10  and  C_11
REMARK   11  A    between atoms: C_17  and  O_18
REMARK                            x       y       z     vdW  Elec       q    Type
REMARK                         _______ _______ _______ _____ _____    ______ ____
ROOT
ATOM      1  C   UNL     1       3.083   6.523  18.034  0.00  0.00    +0.000 A 
ATOM      2  C   UNL     1       4.347   6.961  17.605  0.00  0.00    +0.000 A 
ATOM      3  C   UNL     1       5.313   6.057  17.127  0.00  0.00    +0.000 A 
ATOM      4  C   UNL     1       5.024   4.698  17.057  0.00  0.00    +0.000 A 
ATOM      5  C   UNL     1       3.776   4.295  17.483  0.00  0.00    +0.000 A 
ATOM      6  C   UNL     1       2.822   5.169  17.966  0.00  0.00    +0.000 A 
ATOM      7  C   UNL     1       1.788   4.066  18.143  0.00  0.00    +0.000 C 
ATOM      8  C   UNL     1       1.223   3.802  19.541  0.00  0.00    +0.000 C 
ATOM      9  C   UNL     1       2.208   3.936  20.697  0.00  0.00    +0.000 C 
ATOM     10  C   UNL     1       3.062   2.699  20.939  0.00  0.00    +0.000 C 
ATOM     11  C   UNL     1       4.088   2.412  19.851  0.00  0.00    +0.000 C 
ATOM     12  C   UNL     1       3.486   1.962  18.520  0.00  0.00    +0.000 C 
ATOM     13  C   UNL     1       2.915   3.073  17.643  0.00  0.00    +0.000 C 
ENDROOT
BRANCH   7  14
ATOM     14  O   UNL     1       0.668   4.149  17.222  0.00  0.00    +0.000 OA
ATOM     15  H   UNL     1       0.488   3.233  16.950  0.00  0.00    +0.000 HD
ENDBRANCH   7  14
BRANCH   1  16
ATOM     16  O   UNL     1       2.228   7.516  18.411  0.00  0.00    +0.000 OA
BRANCH  16  17
ATOM     17  C   UNL     1       2.324   8.741  17.680  0.00  0.00    +0.000 C 
BRANCH  17  18
ATOM     18  C   UNL     1       1.443   9.809  18.339  0.00  0.00    +0.000 C 
BRANCH  18  19
ATOM     19  O   UNL     1       0.150   9.803  17.715  0.00  0.00    +0.000 OA
ATOM     20  H   UNL     1      -0.376   9.128  18.183  0.00  0.00    +0.000 HD
ENDBRANCH  18  19
BRANCH  18  21
ATOM     21  C   UNL     1       2.081  11.203  18.208  0.00  0.00    +0.000 C 
BRANCH  21  22
ATOM     22  N   UNL     1       1.064  12.259  18.296  0.00  0.00    +0.000 NA
ATOM     23  H   UNL     1       0.696  12.426  17.354  0.00  0.00    +0.000 HD
BRANCH  22  25
ATOM     24  C   UNL     1       0.434  14.609  18.879  0.00  0.00    +0.000 C 
ATOM     25  C   UNL     1       1.521  13.521  18.903  0.00  0.00    +0.000 C 
ATOM     26  C   UNL     1       2.797  14.032  18.211  0.00  0.00    +0.000 C 
ATOM     27  C   UNL     1       1.863  13.219  20.376  0.00  0.00    +0.000 C 
ENDBRANCH  22  25
ENDBRANCH  21  22
ENDBRANCH  18  21
ENDBRANCH  17  18
ENDBRANCH  16  17
ENDBRANCH   1  16
TORSDOF 8
ENDMDL
