MODEL 1
REMARK VINA RESULT:      -7.0      0.000      0.000
REMARK  Name = 
REMARK  3 active torsions:
REMARK  status: ('A' for Active; 'I' for Inactive)
REMARK    1  A    between atoms: N_3  and  C_4
REMARK    2  A    between atoms: N_11  and  C_12
REMARK    3  A    between atoms: C_22  and  C_23
REMARK                            x       y       z     vdW  Elec       q    Type
REMARK                         _______ _______ _______ _____ _____    ______ ____
ROOT
ATOM      1  O   UNL     1       0.550  12.183  18.490  0.00  0.00    +0.000 OA
ATOM      2  C   UNL     1      -0.017  12.126  19.583  0.00  0.00    +0.000 C 
ATOM      3  N   UNL     1      -1.127  11.310  19.777  0.00  0.00    +0.000 N 
ATOM      4  C   UNL     1      -1.560  10.916  21.095  0.00  0.00    +0.000 C 
ATOM      5  N   UNL     1      -1.458  12.039  22.024  0.00  0.00    +0.000 NA
ATOM      6  C   UNL     1      -0.056  12.456  22.013  0.00  0.00    +0.000 C 
ATOM      7  N   UNL     1       0.364  12.870  20.699  0.00  0.00    +0.000 N 
ATOM      8  C   UNL     1       0.996  14.072  20.412  0.00  0.00    +0.000 A 
ATOM      9  N   UNL     1       0.892  14.717  19.276  0.00  0.00    +0.000 NA
ATOM     10  C   UNL     1       1.359  16.009  19.391  0.00  0.00    +0.000 A 
ATOM     11  C   UNL     1       1.972  16.277  20.599  0.00  0.00    +0.000 A 
ATOM     12  S   UNL     1       1.871  14.902  21.627  0.00  0.00    +0.000 S 
ENDROOT
BRANCH   3  13
ATOM     13  C   UNL     1      -1.956  10.989  18.672  0.00  0.00    +0.000 A 
ATOM     14  C   UNL     1      -3.148  11.674  18.441  0.00  0.00    +0.000 A 
ATOM     15  C   UNL     1      -3.895  11.404  17.292  0.00  0.00    +0.000 A 
ATOM     16  C   UNL     1      -3.431  10.482  16.354  0.00  0.00    +0.000 A 
ATOM     17  C   UNL     1      -2.244   9.793  16.581  0.00  0.00    +0.000 A 
ATOM     18  C   UNL     1      -1.525  10.030  17.746  0.00  0.00    +0.000 A 
ENDBRANCH   3  13
BRANCH   5  19
ATOM     19  C   UNL     1      -2.466  13.110  21.799  0.00  0.00    +0.000 C 
ATOM     20  C   UNL     1      -3.867  12.698  22.324  0.00  0.00    +0.000 C 
ATOM     21  C   UNL     1      -3.892  12.519  23.844  0.00  0.00    +0.000 C 
ATOM     22  C   UNL     1      -3.412  13.764  24.585  0.00  0.00    +0.000 C 
ATOM     23  C   UNL     1      -2.117  14.343  24.019  0.00  0.00    +0.000 C 
ATOM     24  C   UNL     1      -2.146  14.456  22.495  0.00  0.00    +0.000 C 
ENDBRANCH   5  19
BRANCH  10  25
ATOM     25  C   UNL     1       1.096  16.972  18.326  0.00  0.00    +0.000 A 
ATOM     26  C   UNL     1       2.120  17.276  17.410  0.00  0.00    +0.000 A 
ATOM     27  C   UNL     1       1.878  18.098  16.308  0.00  0.00    +0.000 A 
ATOM     28  C   UNL     1       0.609  18.631  16.107  0.00  0.00    +0.000 A 
ATOM     29  C   UNL     1      -0.413  18.355  17.014  0.00  0.00    +0.000 A 
ATOM     30  C   UNL     1      -0.169  17.533  18.118  0.00  0.00    +0.000 A 
ENDBRANCH  10  25
TORSDOF 3
ENDMDL
MODEL 2
REMARK VINA RESULT:      -6.9      2.494      3.717
REMARK  Name = 
REMARK  3 active torsions:
REMARK  status: ('A' for Active; 'I' for Inactive)
REMARK    1  A    between atoms: N_3  and  C_4
REMARK    2  A    between atoms: N_11  and  C_12
REMARK    3  A    between atoms: C_22  and  C_23
REMARK                            x       y       z     vdW  Elec       q    Type
REMARK                         _______ _______ _______ _____ _____    ______ ____
ROOT
ATOM      1  O   UNL     1       0.276  13.837  22.622  0.00  0.00    +0.000 OA
ATOM      2  C   UNL     1      -0.954  13.880  22.686  0.00  0.00    +0.000 C 
ATOM      3  N   UNL     1      -1.712  12.716  22.775  0.00  0.00    +0.000 N 
ATOM      4  C   UNL     1      -3.076  12.730  23.244  0.00  0.00    +0.000 C 
ATOM      5  N   UNL     1      -3.790  13.885  22.704  0.00  0.00    +0.000 NA
ATOM      6  C   UNL     1      -3.050  15.068  23.141  0.00  0.00    +0.000 C 
ATOM      7  N   UNL     1      -1.697  15.059  22.651  0.00  0.00    +0.000 N 
ATOM      8  C   UNL     1      -1.093  16.109  21.972  0.00  0.00    +0.000 A 
ATOM      9  N   UNL     1      -0.154  15.972  21.068  0.00  0.00    +0.000 NA
ATOM     10  C   UNL     1       0.021  17.135  20.350  0.00  0.00    +0.000 A 
ATOM     11  C   UNL     1      -0.694  18.209  20.841  0.00  0.00    +0.000 A 
ATOM     12  S   UNL     1      -1.665  17.710  22.169  0.00  0.00    +0.000 S 
ENDROOT
BRANCH   3  13
ATOM     13  C   UNL     1      -1.197  11.508  22.238  0.00  0.00    +0.000 A 
ATOM     14  C   UNL     1      -0.956  11.370  20.872  0.00  0.00    +0.000 A 
ATOM     15  C   UNL     1      -0.358  10.206  20.385  0.00  0.00    +0.000 A 
ATOM     16  C   UNL     1       0.037   9.199  21.265  0.00  0.00    +0.000 A 
ATOM     17  C   UNL     1      -0.203   9.330  22.629  0.00  0.00    +0.000 A 
ATOM     18  C   UNL     1      -0.838  10.469  23.107  0.00  0.00    +0.000 A 
ENDBRANCH   3  13
BRANCH   5  19
ATOM     19  C   UNL     1      -4.084  13.793  21.248  0.00  0.00    +0.000 C 
ATOM     20  C   UNL     1      -4.934  12.538  20.913  0.00  0.00    +0.000 C 
ATOM     21  C   UNL     1      -6.329  12.593  21.542  0.00  0.00    +0.000 C 
ATOM     22  C   UNL     1      -7.096  13.853  21.148  0.00  0.00    +0.000 C 
ATOM     23  C   UNL     1      -6.271  15.130  21.283  0.00  0.00    +0.000 C 
ATOM     24  C   UNL     1      -4.877  14.992  20.671  0.00  0.00    +0.000 C 
ENDBRANCH   5  19
BRANCH  10  25
ATOM     25  C   UNL     1       0.827  17.119  19.132  0.00  0.00    +0.000 A 
ATOM     26  C   UNL     1       0.489  17.987  18.077  0.00  0.00    +0.000 A 
ATOM     27  C   UNL     1       1.298  18.091  16.944  0.00  0.00    +0.000 A 
ATOM     28  C   UNL     1       2.455  17.325  16.848  0.00  0.00    +0.000 A 
ATOM     29  C   UNL     1       2.796  16.446  17.875  0.00  0.00    +0.000 A 
ATOM     30  C   UNL     1       1.983  16.342  19.008  0.00  0.00    +0.000 A 
ENDBRANCH  10  25
TORSDOF 3
ENDMDL
MODEL 3
REMARK VINA RESULT:      -6.7      1.853      2.478
REMARK  Name = 
REMARK  3 active torsions:
REMARK  status: ('A' for Active; 'I' for Inactive)
REMARK    1  A    between atoms: N_3  and  C_4
REMARK    2  A    between atoms: N_11  and  C_12
REMARK    3  A    between atoms: C_22  and  C_23
REMARK                            x       y       z     vdW  Elec       q    Type
REMARK                         _______ _______ _______ _____ _____    ______ ____
ROOT
ATOM      1  O   UNL     1       1.282  13.675  21.144  0.00  0.00    +0.000 OA
ATOM      2  C   UNL     1       0.262  13.622  21.833  0.00  0.00    +0.000 C 
ATOM      3  N   UNL     1      -0.468  12.443  21.950  0.00  0.00    +0.000 N 
ATOM      4  C   UNL     1      -1.403  12.231  23.027  0.00  0.00    +0.000 C 
ATOM      5  N   UNL     1      -2.165  13.451  23.291  0.00  0.00    +0.000 NA
ATOM      6  C   UNL     1      -1.184  14.485  23.615  0.00  0.00    +0.000 C 
ATOM      7  N   UNL     1      -0.268  14.709  22.527  0.00  0.00    +0.000 N 
ATOM      8  C   UNL     1       0.022  15.950  21.978  0.00  0.00    +0.000 A 
ATOM      9  N   UNL     1       0.361  16.153  20.728  0.00  0.00    +0.000 NA
ATOM     10  C   UNL     1       0.276  17.488  20.398  0.00  0.00    +0.000 A 
ATOM     11  C   UNL     1       0.021  18.315  21.473  0.00  0.00    +0.000 A 
ATOM     12  S   UNL     1      -0.201  17.377  22.897  0.00  0.00    +0.000 S 
ENDROOT
BRANCH   3  13
ATOM     13  C   UNL     1      -0.423  11.491  20.900  0.00  0.00    +0.000 A 
ATOM     14  C   UNL     1      -1.258  11.601  19.789  0.00  0.00    +0.000 A 
ATOM     15  C   UNL     1      -1.124  10.705  18.726  0.00  0.00    +0.000 A 
ATOM     16  C   UNL     1      -0.131   9.726  18.754  0.00  0.00    +0.000 A 
ATOM     17  C   UNL     1       0.703   9.610  19.862  0.00  0.00    +0.000 A 
ATOM     18  C   UNL     1       0.540  10.473  20.937  0.00  0.00    +0.000 A 
ENDBRANCH   3  13
BRANCH   5  19
ATOM     19  C   UNL     1      -3.157  13.790  22.235  0.00  0.00    +0.000 C 
ATOM     20  C   UNL     1      -4.344  12.790  22.221  0.00  0.00    +0.000 C 
ATOM     21  C   UNL     1      -5.176  12.854  23.504  0.00  0.00    +0.000 C 
ATOM     22  C   UNL     1      -5.692  14.261  23.795  0.00  0.00    +0.000 C 
ATOM     23  C   UNL     1      -4.619  15.338  23.661  0.00  0.00    +0.000 C 
ATOM     24  C   UNL     1      -3.801  15.191  22.378  0.00  0.00    +0.000 C 
ENDBRANCH   5  19
BRANCH  10  25
ATOM     25  C   UNL     1       0.356  17.893  18.997  0.00  0.00    +0.000 A 
ATOM     26  C   UNL     1       1.566  17.713  18.301  0.00  0.00    +0.000 A 
ATOM     27  C   UNL     1       1.654  17.975  16.933  0.00  0.00    +0.000 A 
ATOM     28  C   UNL     1       0.535  18.425  16.241  0.00  0.00    +0.000 A 
ATOM     29  C   UNL     1      -0.667  18.627  16.918  0.00  0.00    +0.000 A 
ATOM     30  C   UNL     1      -0.753  18.366  18.289  0.00  0.00    +0.000 A 
ENDBRANCH  10  25
TORSDOF 3
ENDMDL
MODEL 4
REMARK VINA RESULT:      -6.7      6.772      9.534
REMARK  Name = 
REMARK  3 active torsions:
REMARK  status: ('A' for Active; 'I' for Inactive)
REMARK    1  A    between atoms: N_3  and  C_4
REMARK    2  A    between atoms: N_11  and  C_12
REMARK    3  A    between atoms: C_22  and  C_23
REMARK                            x       y       z     vdW  Elec       q    Type
REMARK                         _______ _______ _______ _____ _____    ______ ____
ROOT
ATOM      1  O   UNL     1       8.037  15.491  22.674  0.00  0.00    +0.000 OA
ATOM      2  C   UNL     1       6.960  15.703  22.116  0.00  0.00    +0.000 C 
ATOM      3  N   UNL     1       5.756  15.335  22.710  0.00  0.00    +0.000 N 
ATOM      4  C   UNL     1       4.498  15.907  22.297  0.00  0.00    +0.000 C 
ATOM      5  N   UNL     1       4.447  16.036  20.842  0.00  0.00    +0.000 NA
ATOM      6  C   UNL     1       5.580  16.879  20.464  0.00  0.00    +0.000 C 
ATOM      7  N   UNL     1       6.834  16.292  20.858  0.00  0.00    +0.000 N 
ATOM      8  C   UNL     1       7.921  16.104  20.014  0.00  0.00    +0.000 A 
ATOM      9  N   UNL     1       8.800  15.139  20.133  0.00  0.00    +0.000 NA
ATOM     10  C   UNL     1       9.562  15.016  18.992  0.00  0.00    +0.000 A 
ATOM     11  C   UNL     1       9.350  16.018  18.066  0.00  0.00    +0.000 A 
ATOM     12  S   UNL     1       8.108  17.071  18.615  0.00  0.00    +0.000 S 
ENDROOT
BRANCH   3  13
ATOM     13  C   UNL     1       5.735  14.254  23.627  0.00  0.00    +0.000 A 
ATOM     14  C   UNL     1       5.975  12.947  23.207  0.00  0.00    +0.000 A 
ATOM     15  C   UNL     1       6.045  11.915  24.147  0.00  0.00    +0.000 A 
ATOM     16  C   UNL     1       5.918  12.195  25.507  0.00  0.00    +0.000 A 
ATOM     17  C   UNL     1       5.676  13.498  25.932  0.00  0.00    +0.000 A 
ATOM     18  C   UNL     1       5.562  14.515  24.993  0.00  0.00    +0.000 A 
ENDBRANCH   3  13
BRANCH   5  19
ATOM     19  C   UNL     1       4.319  14.741  20.121  0.00  0.00    +0.000 C 
ATOM     20  C   UNL     1       3.067  13.949  20.581  0.00  0.00    +0.000 C 
ATOM     21  C   UNL     1       1.761  14.666  20.230  0.00  0.00    +0.000 C 
ATOM     22  C   UNL     1       1.651  14.980  18.740  0.00  0.00    +0.000 C 
ATOM     23  C   UNL     1       2.915  15.609  18.160  0.00  0.00    +0.000 C 
ATOM     24  C   UNL     1       4.183  14.867  18.583  0.00  0.00    +0.000 C 
ENDBRANCH   5  19
BRANCH  10  25
ATOM     25  C   UNL     1      10.415  13.843  18.815  0.00  0.00    +0.000 A 
ATOM     26  C   UNL     1      11.334  13.508  19.825  0.00  0.00    +0.000 A 
ATOM     27  C   UNL     1      12.084  12.332  19.753  0.00  0.00    +0.000 A 
ATOM     28  C   UNL     1      11.928  11.477  18.668  0.00  0.00    +0.000 A 
ATOM     29  C   UNL     1      11.036  11.803  17.648  0.00  0.00    +0.000 A 
ATOM     30  C   UNL     1      10.286  12.981  17.721  0.00  0.00    +0.000 A 
ENDBRANCH  10  25
TORSDOF 3
ENDMDL
MODEL 5
REMARK VINA RESULT:      -6.6      6.003      9.531
REMARK  Name = 
REMARK  3 active torsions:
REMARK  status: ('A' for Active; 'I' for Inactive)
REMARK    1  A    between atoms: N_3  and  C_4
REMARK    2  A    between atoms: N_11  and  C_12
REMARK    3  A    between atoms: C_22  and  C_23
REMARK                            x       y       z     vdW  Elec       q    Type
REMARK                         _______ _______ _______ _____ _____    ______ ____
ROOT
ATOM      1  O   UNL     1       6.762  13.665  17.205  0.00  0.00    +0.000 OA
ATOM      2  C   UNL     1       7.082  14.591  17.952  0.00  0.00    +0.000 C 
ATOM      3  N   UNL     1       8.345  14.643  18.534  0.00  0.00    +0.000 N 
ATOM      4  C   UNL     1       8.887  15.868  19.069  0.00  0.00    +0.000 C 
ATOM      5  N   UNL     1       7.854  16.615  19.783  0.00  0.00    +0.000 NA
ATOM      6  C   UNL     1       6.786  16.867  18.816  0.00  0.00    +0.000 C 
ATOM      7  N   UNL     1       6.233  15.641  18.304  0.00  0.00    +0.000 N 
ATOM      8  C   UNL     1       4.880  15.330  18.278  0.00  0.00    +0.000 A 
ATOM      9  N   UNL     1       4.391  14.117  18.361  0.00  0.00    +0.000 NA
ATOM     10  C   UNL     1       3.039  14.142  18.628  0.00  0.00    +0.000 A 
ATOM     11  C   UNL     1       2.483  15.405  18.583  0.00  0.00    +0.000 A 
ATOM     12  S   UNL     1       3.706  16.576  18.289  0.00  0.00    +0.000 S 
ENDROOT
BRANCH   3  13
ATOM     13  C   UNL     1       9.055  13.437  18.762  0.00  0.00    +0.000 A 
ATOM     14  C   UNL     1       9.849  12.867  17.768  0.00  0.00    +0.000 A 
ATOM     15  C   UNL     1      10.614  11.733  18.052  0.00  0.00    +0.000 A 
ATOM     16  C   UNL     1      10.618  11.194  19.338  0.00  0.00    +0.000 A 
ATOM     17  C   UNL     1       9.826  11.756  20.333  0.00  0.00    +0.000 A 
ATOM     18  C   UNL     1       9.032  12.857  20.038  0.00  0.00    +0.000 A 
ENDBRANCH   3  13
BRANCH   5  19
ATOM     19  C   UNL     1       7.442  16.003  21.075  0.00  0.00    +0.000 C 
ATOM     20  C   UNL     1       8.623  15.937  22.080  0.00  0.00    +0.000 C 
ATOM     21  C   UNL     1       9.110  17.327  22.500  0.00  0.00    +0.000 C 
ATOM     22  C   UNL     1       7.990  18.187  23.079  0.00  0.00    +0.000 C 
ATOM     23  C   UNL     1       6.718  18.171  22.235  0.00  0.00    +0.000 C 
ATOM     24  C   UNL     1       6.312  16.757  21.818  0.00  0.00    +0.000 C 
ENDBRANCH   5  19
BRANCH  10  25
ATOM     25  C   UNL     1       2.356  12.911  19.017  0.00  0.00    +0.000 A 
ATOM     26  C   UNL     1       1.708  12.854  20.265  0.00  0.00    +0.000 A 
ATOM     27  C   UNL     1       0.944  11.743  20.627  0.00  0.00    +0.000 A 
ATOM     28  C   UNL     1       0.820  10.672  19.749  0.00  0.00    +0.000 A 
ATOM     29  C   UNL     1       1.470  10.704  18.517  0.00  0.00    +0.000 A 
ATOM     30  C   UNL     1       2.236  11.816  18.156  0.00  0.00    +0.000 A 
ENDBRANCH  10  25
TORSDOF 3
ENDMDL
MODEL 6
REMARK VINA RESULT:      -6.6      2.628      3.895
REMARK  Name = 
REMARK  3 active torsions:
REMARK  status: ('A' for Active; 'I' for Inactive)
REMARK    1  A    between atoms: N_3  and  C_4
REMARK    2  A    between atoms: N_11  and  C_12
REMARK    3  A    between atoms: C_22  and  C_23
REMARK                            x       y       z     vdW  Elec       q    Type
REMARK                         _______ _______ _______ _____ _____    ______ ____
ROOT
ATOM      1  O   UNL     1      -0.205  14.203  22.829  0.00  0.00    +0.000 OA
ATOM      2  C   UNL     1      -1.426  14.056  22.891  0.00  0.00    +0.000 C 
ATOM      3  N   UNL     1      -1.999  12.788  22.919  0.00  0.00    +0.000 N 
ATOM      4  C   UNL     1      -3.347  12.572  23.384  0.00  0.00    +0.000 C 
ATOM      5  N   UNL     1      -4.231  13.631  22.900  0.00  0.00    +0.000 NA
ATOM      6  C   UNL     1      -3.677  14.889  23.399  0.00  0.00    +0.000 C 
ATOM      7  N   UNL     1      -2.340  15.110  22.913  0.00  0.00    +0.000 N 
ATOM      8  C   UNL     1      -1.905  16.272  22.290  0.00  0.00    +0.000 A 
ATOM      9  N   UNL     1      -0.960  16.324  21.383  0.00  0.00    +0.000 NA
ATOM     10  C   UNL     1      -0.966  17.535  20.726  0.00  0.00    +0.000 A 
ATOM     11  C   UNL     1      -1.833  18.462  21.268  0.00  0.00    +0.000 A 
ATOM     12  S   UNL     1      -2.712  17.756  22.566  0.00  0.00    +0.000 S 
ENDROOT
BRANCH   3  13
ATOM     13  C   UNL     1      -1.310  11.701  22.323  0.00  0.00    +0.000 A 
ATOM     14  C   UNL     1      -0.883  10.613  23.083  0.00  0.00    +0.000 A 
ATOM     15  C   UNL     1      -0.294   9.514  22.455  0.00  0.00    +0.000 A 
ATOM     16  C   UNL     1      -0.170   9.481  21.066  0.00  0.00    +0.000 A 
ATOM     17  C   UNL     1      -0.593  10.565  20.303  0.00  0.00    +0.000 A 
ATOM     18  C   UNL     1      -1.137  11.677  20.932  0.00  0.00    +0.000 A 
ENDBRANCH   3  13
BRANCH   5  19
ATOM     19  C   UNL     1      -4.515  13.569  21.441  0.00  0.00    +0.000 C 
ATOM     20  C   UNL     1      -5.403  12.348  21.081  0.00  0.00    +0.000 C 
ATOM     21  C   UNL     1      -6.801  12.442  21.698  0.00  0.00    +0.000 C 
ATOM     22  C   UNL     1      -7.522  13.733  21.315  0.00  0.00    +0.000 C 
ATOM     23  C   UNL     1      -6.655  14.979  21.475  0.00  0.00    +0.000 C 
ATOM     24  C   UNL     1      -5.261  14.802  20.873  0.00  0.00    +0.000 C 
ENDBRANCH   5  19
BRANCH  10  25
ATOM     25  C   UNL     1      -0.173  17.703  19.511  0.00  0.00    +0.000 A 
ATOM     26  C   UNL     1       1.170  17.282  19.508  0.00  0.00    +0.000 A 
ATOM     27  C   UNL     1       1.930  17.313  18.337  0.00  0.00    +0.000 A 
ATOM     28  C   UNL     1       1.360  17.769  17.153  0.00  0.00    +0.000 A 
ATOM     29  C   UNL     1       0.037  18.208  17.143  0.00  0.00    +0.000 A 
ATOM     30  C   UNL     1      -0.723  18.177  18.316  0.00  0.00    +0.000 A 
ENDBRANCH  10  25
TORSDOF 3
ENDMDL
MODEL 7
REMARK VINA RESULT:      -6.5      6.534      9.127
REMARK  Name = 
REMARK  3 active torsions:
REMARK  status: ('A' for Active; 'I' for Inactive)
REMARK    1  A    between atoms: N_3  and  C_4
REMARK    2  A    between atoms: N_11  and  C_12
REMARK    3  A    between atoms: C_22  and  C_23
REMARK                            x       y       z     vdW  Elec       q    Type
REMARK                         _______ _______ _______ _____ _____    ______ ____
ROOT
ATOM      1  O   UNL     1       7.970  15.257  22.540  0.00  0.00    +0.000 OA
ATOM      2  C   UNL     1       6.818  15.462  22.154  0.00  0.00    +0.000 C 
ATOM      3  N   UNL     1       5.723  15.030  22.897  0.00  0.00    +0.000 N 
ATOM      4  C   UNL     1       4.405  15.582  22.699  0.00  0.00    +0.000 C 
ATOM      5  N   UNL     1       4.140  15.775  21.274  0.00  0.00    +0.000 NA
ATOM      6  C   UNL     1       5.185  16.669  20.779  0.00  0.00    +0.000 C 
ATOM      7  N   UNL     1       6.497  16.103  20.958  0.00  0.00    +0.000 N 
ATOM      8  C   UNL     1       7.453  15.986  19.958  0.00  0.00    +0.000 A 
ATOM      9  N   UNL     1       8.363  15.044  19.901  0.00  0.00    +0.000 NA
ATOM     10  C   UNL     1       8.953  14.996  18.657  0.00  0.00    +0.000 A 
ATOM     11  C   UNL     1       8.586  16.032  17.822  0.00  0.00    +0.000 A 
ATOM     12  S   UNL     1       7.412  17.022  18.596  0.00  0.00    +0.000 S 
ENDROOT
BRANCH   3  13
ATOM     13  C   UNL     1       5.862  13.908  23.753  0.00  0.00    +0.000 A 
ATOM     14  C   UNL     1       5.672  14.022  25.129  0.00  0.00    +0.000 A 
ATOM     15  C   UNL     1       5.718  12.882  25.935  0.00  0.00    +0.000 A 
ATOM     16  C   UNL     1       5.913  11.626  25.362  0.00  0.00    +0.000 A 
ATOM     17  C   UNL     1       6.105  11.506  23.990  0.00  0.00    +0.000 A 
ATOM     18  C   UNL     1       6.103  12.645  23.195  0.00  0.00    +0.000 A 
ENDBRANCH   3  13
BRANCH   5  19
ATOM     19  C   UNL     1       3.939  14.511  20.516  0.00  0.00    +0.000 C 
ATOM     20  C   UNL     1       2.659  13.763  20.975  0.00  0.00    +0.000 C 
ATOM     21  C   UNL     1       1.382  14.551  20.671  0.00  0.00    +0.000 C 
ATOM     22  C   UNL     1       1.261  14.917  19.194  0.00  0.00    +0.000 C 
ATOM     23  C   UNL     1       2.543  15.505  18.610  0.00  0.00    +0.000 C 
ATOM     24  C   UNL     1       3.782  14.692  18.986  0.00  0.00    +0.000 C 
ENDBRANCH   5  19
BRANCH  10  25
ATOM     25  C   UNL     1       9.798  13.860  18.301  0.00  0.00    +0.000 A 
ATOM     26  C   UNL     1      11.084  14.099  17.783  0.00  0.00    +0.000 A 
ATOM     27  C   UNL     1      11.970  13.048  17.540  0.00  0.00    +0.000 A 
ATOM     28  C   UNL     1      11.580  11.740  17.809  0.00  0.00    +0.000 A 
ATOM     29  C   UNL     1      10.304  11.482  18.305  0.00  0.00    +0.000 A 
ATOM     30  C   UNL     1       9.418  12.536  18.546  0.00  0.00    +0.000 A 
ENDBRANCH  10  25
TORSDOF 3
ENDMDL
MODEL 8
REMARK VINA RESULT:      -6.5      6.374      9.684
REMARK  Name = 
REMARK  3 active torsions:
REMARK  status: ('A' for Active; 'I' for Inactive)
REMARK    1  A    between atoms: N_3  and  C_4
REMARK    2  A    between atoms: N_11  and  C_12
REMARK    3  A    between atoms: C_22  and  C_23
REMARK                            x       y       z     vdW  Elec       q    Type
REMARK                         _______ _______ _______ _____ _____    ______ ____
ROOT
ATOM      1  O   UNL     1       6.938  14.391  17.367  0.00  0.00    +0.000 OA
ATOM      2  C   UNL     1       7.386  15.025  18.324  0.00  0.00    +0.000 C 
ATOM      3  N   UNL     1       8.686  14.823  18.777  0.00  0.00    +0.000 N 
ATOM      4  C   UNL     1       9.364  15.793  19.602  0.00  0.00    +0.000 C 
ATOM      5  N   UNL     1       8.448  16.347  20.598  0.00  0.00    +0.000 NA
ATOM      6  C   UNL     1       7.341  16.943  19.851  0.00  0.00    +0.000 C 
ATOM      7  N   UNL     1       6.654  15.966  19.048  0.00  0.00    +0.000 N 
ATOM      8  C   UNL     1       5.281  15.758  19.055  0.00  0.00    +0.000 A 
ATOM      9  N   UNL     1       4.699  14.608  18.816  0.00  0.00    +0.000 NA
ATOM     10  C   UNL     1       3.376  14.630  19.200  0.00  0.00    +0.000 A 
ATOM     11  C   UNL     1       2.925  15.877  19.585  0.00  0.00    +0.000 A 
ATOM     12  S   UNL     1       4.219  17.008  19.543  0.00  0.00    +0.000 S 
ENDROOT
BRANCH   3  13
ATOM     13  C   UNL     1       9.307  13.565  18.569  0.00  0.00    +0.000 A 
ATOM     14  C   UNL     1      10.256  13.386  17.565  0.00  0.00    +0.000 A 
ATOM     15  C   UNL     1      10.922  12.164  17.446  0.00  0.00    +0.000 A 
ATOM     16  C   UNL     1      10.671  11.136  18.355  0.00  0.00    +0.000 A 
ATOM     17  C   UNL     1       9.722  11.309  19.358  0.00  0.00    +0.000 A 
ATOM     18  C   UNL     1       9.029  12.509  19.448  0.00  0.00    +0.000 A 
ENDBRANCH   3  13
BRANCH   5  19
ATOM     19  C   UNL     1       8.077  15.396  21.680  0.00  0.00    +0.000 C 
ATOM     20  C   UNL     1       9.329  14.835  22.405  0.00  0.00    +0.000 C 
ATOM     21  C   UNL     1      10.104  15.921  23.155  0.00  0.00    +0.000 C 
ATOM     22  C   UNL     1       9.230  16.679  24.151  0.00  0.00    +0.000 C 
ATOM     23  C   UNL     1       7.891  17.121  23.566  0.00  0.00    +0.000 C 
ATOM     24  C   UNL     1       7.191  16.000  22.797  0.00  0.00    +0.000 C 
ENDBRANCH   5  19
BRANCH  10  25
ATOM     25  C   UNL     1       2.621  13.382  19.264  0.00  0.00    +0.000 A 
ATOM     26  C   UNL     1       1.825  13.121  20.395  0.00  0.00    +0.000 A 
ATOM     27  C   UNL     1       0.995  11.999  20.447  0.00  0.00    +0.000 A 
ATOM     28  C   UNL     1       0.952  11.119  19.371  0.00  0.00    +0.000 A 
ATOM     29  C   UNL     1       1.748  11.351  18.251  0.00  0.00    +0.000 A 
ATOM     30  C   UNL     1       2.580  12.474  18.200  0.00  0.00    +0.000 A 
ENDBRANCH  10  25
TORSDOF 3
ENDMDL
MODEL 9
REMARK VINA RESULT:      -6.4      2.448      6.964
REMARK  Name = 
REMARK  3 active torsions:
REMARK  status: ('A' for Active; 'I' for Inactive)
REMARK    1  A    between atoms: N_3  and  C_4
REMARK    2  A    between atoms: N_11  and  C_12
REMARK    3  A    between atoms: C_22  and  C_23
REMARK                            x       y       z     vdW  Elec       q    Type
REMARK                         _______ _______ _______ _____ _____    ______ ____
ROOT
ATOM      1  O   UNL     1      -1.725  14.075  21.232  0.00  0.00    +0.000 OA
ATOM      2  C   UNL     1      -0.539  14.349  21.039  0.00  0.00    +0.000 C 
ATOM      3  N   UNL     1      -0.096  15.668  21.032  0.00  0.00    +0.000 N 
ATOM      4  C   UNL     1       1.296  16.004  21.209  0.00  0.00    +0.000 C 
ATOM      5  N   UNL     1       2.145  15.069  20.473  0.00  0.00    +0.000 NA
ATOM      6  C   UNL     1       1.835  13.737  20.991  0.00  0.00    +0.000 C 
ATOM      7  N   UNL     1       0.451  13.398  20.790  0.00  0.00    +0.000 N 
ATOM      8  C   UNL     1      -0.001  12.228  20.195  0.00  0.00    +0.000 A 
ATOM      9  N   UNL     1      -1.114  12.119  19.512  0.00  0.00    +0.000 NA
ATOM     10  C   UNL     1      -1.140  10.948  18.785  0.00  0.00    +0.000 A 
ATOM     11  C   UNL     1      -0.091  10.094  19.061  0.00  0.00    +0.000 A 
ATOM     12  S   UNL     1       0.983  10.827  20.186  0.00  0.00    +0.000 S 
ENDROOT
BRANCH   3  13
ATOM     13  C   UNL     1      -0.998  16.702  20.677  0.00  0.00    +0.000 A 
ATOM     14  C   UNL     1      -1.275  16.993  19.342  0.00  0.00    +0.000 A 
ATOM     15  C   UNL     1      -2.240  17.950  19.023  0.00  0.00    +0.000 A 
ATOM     16  C   UNL     1      -2.958  18.587  20.034  0.00  0.00    +0.000 A 
ATOM     17  C   UNL     1      -2.685  18.303  21.369  0.00  0.00    +0.000 A 
ATOM     18  C   UNL     1      -1.693  17.383  21.685  0.00  0.00    +0.000 A 
ENDBRANCH   3  13
BRANCH   5  19
ATOM     19  C   UNL     1       2.092  15.231  18.995  0.00  0.00    +0.000 C 
ATOM     20  C   UNL     1       2.634  16.616  18.550  0.00  0.00    +0.000 C 
ATOM     21  C   UNL     1       4.124  16.786  18.859  0.00  0.00    +0.000 C 
ATOM     22  C   UNL     1       4.976  15.678  18.245  0.00  0.00    +0.000 C 
ATOM     23  C   UNL     1       4.417  14.279  18.489  0.00  0.00    +0.000 C 
ATOM     24  C   UNL     1       2.918  14.191  18.200  0.00  0.00    +0.000 C 
ENDBRANCH   5  19
BRANCH  10  25
ATOM     25  C   UNL     1      -2.163  10.756  17.761  0.00  0.00    +0.000 A 
ATOM     26  C   UNL     1      -3.316  11.562  17.786  0.00  0.00    +0.000 A 
ATOM     27  C   UNL     1      -4.263  11.495  16.762  0.00  0.00    +0.000 A 
ATOM     28  C   UNL     1      -4.072  10.617  15.700  0.00  0.00    +0.000 A 
ATOM     29  C   UNL     1      -2.946   9.797  15.669  0.00  0.00    +0.000 A 
ATOM     30  C   UNL     1      -1.999   9.864  16.696  0.00  0.00    +0.000 A 
ENDBRANCH  10  25
TORSDOF 3
ENDMDL
