MODEL 1
REMARK VINA RESULT:      -7.9      0.000      0.000
REMARK  Name = 
REMARK  9 active torsions:
REMARK  status: ('A' for Active; 'I' for Inactive)
REMARK    1  A    between atoms: C_1  and  C_2
REMARK    2  A    between atoms: C_2  and  C_4
REMARK    3  A    between atoms: C_4  and  O_5
REMARK    4  A    between atoms: O_5  and  C_6
REMARK    5  A    between atoms: C_10  and  C_11
REMARK    6  A    between atoms: C_11  and  C_12
REMARK    7  A    between atoms: C_11  and  N_13
REMARK    8  A    between atoms: C_16  and  C_17
REMARK    9  A    between atoms: C_27  and  C_28
REMARK                            x       y       z     vdW  Elec       q    Type
REMARK                         _______ _______ _______ _____ _____    ______ ____
ROOT
ATOM      1  N   UNL     1       0.846  11.068  18.190  0.00  0.00    +0.000 N 
ATOM      2  C   UNL     1       1.128  10.022  19.089  0.00  0.00    +0.000 A 
ATOM      3  C   UNL     1       1.785   8.911  18.598  0.00  0.00    +0.000 A 
ATOM      4  C   UNL     1       1.983   7.840  19.455  0.00  0.00    +0.000 A 
ATOM      5  N   UNL     1       1.638   7.918  20.758  0.00  0.00    +0.000 NA
ATOM      6  C   UNL     1       1.035   9.048  21.162  0.00  0.00    +0.000 A 
ATOM      7  C   UNL     1       0.686   9.183  22.611  0.00  0.00    +0.000 C 
ATOM      8  N   UNL     1       0.740  10.090  20.367  0.00  0.00    +0.000 NA
ATOM      9  H   UNL     1       1.724  11.398  17.798  0.00  0.00    +0.000 HD
ENDROOT
BRANCH   4  10
ATOM     10  C   UNL     1       2.515   6.533  18.998  0.00  0.00    +0.000 A 
ATOM     11  C   UNL     1       3.431   6.450  17.934  0.00  0.00    +0.000 A 
ATOM     12  C   UNL     1       3.910   5.224  17.452  0.00  0.00    +0.000 A 
ATOM     13  C   UNL     1       3.464   4.025  18.032  0.00  0.00    +0.000 A 
ATOM     14  N   UNL     1       3.839   2.750  17.642  0.00  0.00    +0.000 NA
ATOM     15  C   UNL     1       3.218   1.867  18.387  0.00  0.00    +0.000 A 
ATOM     16  S   UNL     1       2.173   2.489  19.592  0.00  0.00    +0.000 S 
ATOM     17  C   UNL     1       2.557   4.094  19.086  0.00  0.00    +0.000 A 
ATOM     18  C   UNL     1       2.077   5.324  19.581  0.00  0.00    +0.000 A 
ENDBRANCH   4  10
BRANCH   1  19
ATOM     19  C   UNL     1       0.039  12.172  18.718  0.00  0.00    +0.000 C 
ATOM     20  C   UNL     1      -1.276  12.290  17.940  0.00  0.00    +0.000 C 
BRANCH  19  25
ATOM     21  C   UNL     1       1.101  15.867  18.921  0.00  0.00    +0.000 A 
ATOM     22  C   UNL     1       2.417  15.779  18.466  0.00  0.00    +0.000 A 
ATOM     23  C   UNL     1       2.944  14.555  18.059  0.00  0.00    +0.000 A 
ATOM     24  C   UNL     1       2.161  13.405  18.130  0.00  0.00    +0.000 A 
ATOM     25  C   UNL     1       0.848  13.461  18.627  0.00  0.00    +0.000 A 
ATOM     26  C   UNL     1       0.325  14.709  19.020  0.00  0.00    +0.000 A 
BRANCH  21  27
ATOM     27  O   UNL     1       0.695  17.128  19.264  0.00  0.00    +0.000 OA
BRANCH  27  28
ATOM     28  C   UNL     1       1.086  18.168  18.378  0.00  0.00    +0.000 C 
BRANCH  28  30
ATOM     29  C   UNL     1      -1.432  18.540  17.918  0.00  0.00    +0.000 C 
ATOM     30  C   UNL     1      -0.034  18.400  17.376  0.00  0.00    +0.000 C 
ATOM     31  O   UNL     1       0.181  18.416  16.162  0.00  0.00    +0.000 OA
ENDBRANCH  28  30
ENDBRANCH  27  28
ENDBRANCH  21  27
ENDBRANCH  19  25
ENDBRANCH   1  19
TORSDOF 6
ENDMDL
MODEL 2
REMARK VINA RESULT:      -7.9      6.108     11.068
REMARK  Name = 
REMARK  9 active torsions:
REMARK  status: ('A' for Active; 'I' for Inactive)
REMARK    1  A    between atoms: C_1  and  C_2
REMARK    2  A    between atoms: C_2  and  C_4
REMARK    3  A    between atoms: C_4  and  O_5
REMARK    4  A    between atoms: O_5  and  C_6
REMARK    5  A    between atoms: C_10  and  C_11
REMARK    6  A    between atoms: C_11  and  C_12
REMARK    7  A    between atoms: C_11  and  N_13
REMARK    8  A    between atoms: C_16  and  C_17
REMARK    9  A    between atoms: C_27  and  C_28
REMARK                            x       y       z     vdW  Elec       q    Type
REMARK                         _______ _______ _______ _____ _____    ______ ____
ROOT
ATOM      1  N   UNL     1       5.153   5.593  16.448  0.00  0.00    +0.000 N 
ATOM      2  C   UNL     1       4.326   5.449  17.578  0.00  0.00    +0.000 A 
ATOM      3  C   UNL     1       3.513   6.511  17.921  0.00  0.00    +0.000 A 
ATOM      4  C   UNL     1       2.767   6.411  19.084  0.00  0.00    +0.000 A 
ATOM      5  N   UNL     1       2.753   5.270  19.806  0.00  0.00    +0.000 NA
ATOM      6  C   UNL     1       3.546   4.272  19.384  0.00  0.00    +0.000 A 
ATOM      7  C   UNL     1       3.514   2.978  20.135  0.00  0.00    +0.000 C 
ATOM      8  N   UNL     1       4.355   4.332  18.313  0.00  0.00    +0.000 NA
ATOM      9  H   UNL     1       4.562   5.780  15.641  0.00  0.00    +0.000 HD
ENDROOT
BRANCH   4  10
ATOM     10  C   UNL     1       1.997   7.548  19.646  0.00  0.00    +0.000 A 
ATOM     11  C   UNL     1       1.432   7.481  20.932  0.00  0.00    +0.000 A 
ATOM     12  C   UNL     1       0.659   8.522  21.465  0.00  0.00    +0.000 A 
ATOM     13  C   UNL     1       0.422   9.676  20.701  0.00  0.00    +0.000 A 
ATOM     14  N   UNL     1      -0.337  10.765  21.096  0.00  0.00    +0.000 NA
ATOM     15  C   UNL     1      -0.360  11.652  20.130  0.00  0.00    +0.000 A 
ATOM     16  S   UNL     1       0.518  11.258  18.713  0.00  0.00    +0.000 S 
ATOM     17  C   UNL     1       0.977   9.754  19.426  0.00  0.00    +0.000 A 
ATOM     18  C   UNL     1       1.761   8.714  18.886  0.00  0.00    +0.000 A 
ENDBRANCH   4  10
BRANCH   1  19
ATOM     19  C   UNL     1       6.090   4.496  16.190  0.00  0.00    +0.000 C 
ATOM     20  C   UNL     1       7.307   4.606  17.114  0.00  0.00    +0.000 C 
BRANCH  19  25
ATOM     21  C   UNL     1       6.217   3.921  12.385  0.00  0.00    +0.000 A 
ATOM     22  C   UNL     1       7.321   4.705  12.046  0.00  0.00    +0.000 A 
ATOM     23  C   UNL     1       8.041   5.375  13.032  0.00  0.00    +0.000 A 
ATOM     24  C   UNL     1       7.642   5.285  14.363  0.00  0.00    +0.000 A 
ATOM     25  C   UNL     1       6.508   4.539  14.724  0.00  0.00    +0.000 A 
ATOM     26  C   UNL     1       5.799   3.854  13.717  0.00  0.00    +0.000 A 
BRANCH  21  27
ATOM     27  O   UNL     1       5.613   3.293  11.330  0.00  0.00    +0.000 OA
BRANCH  27  28
ATOM     28  C   UNL     1       5.198   1.953  11.561  0.00  0.00    +0.000 C 
BRANCH  28  30
ATOM     29  C   UNL     1       6.090  -0.462  11.305  0.00  0.00    +0.000 C 
ATOM     30  C   UNL     1       6.332   1.019  11.171  0.00  0.00    +0.000 C 
ATOM     31  O   UNL     1       7.430   1.452  10.812  0.00  0.00    +0.000 OA
ENDBRANCH  28  30
ENDBRANCH  27  28
ENDBRANCH  21  27
ENDBRANCH  19  25
ENDBRANCH   1  19
TORSDOF 6
ENDMDL
MODEL 3
REMARK VINA RESULT:      -7.8      1.809      3.043
REMARK  Name = 
REMARK  9 active torsions:
REMARK  status: ('A' for Active; 'I' for Inactive)
REMARK    1  A    between atoms: C_1  and  C_2
REMARK    2  A    between atoms: C_2  and  C_4
REMARK    3  A    between atoms: C_4  and  O_5
REMARK    4  A    between atoms: O_5  and  C_6
REMARK    5  A    between atoms: C_10  and  C_11
REMARK    6  A    between atoms: C_11  and  C_12
REMARK    7  A    between atoms: C_11  and  N_13
REMARK    8  A    between atoms: C_16  and  C_17
REMARK    9  A    between atoms: C_27  and  C_28
REMARK                            x       y       z     vdW  Elec       q    Type
REMARK                         _______ _______ _______ _____ _____    ______ ____
ROOT
ATOM      1  N   UNL     1       0.834  10.994  18.122  0.00  0.00    +0.000 N 
ATOM      2  C   UNL     1       1.140   9.961  19.028  0.00  0.00    +0.000 A 
ATOM      3  C   UNL     1       1.802   8.852  18.541  0.00  0.00    +0.000 A 
ATOM      4  C   UNL     1       2.023   7.793  19.407  0.00  0.00    +0.000 A 
ATOM      5  N   UNL     1       1.696   7.883  20.714  0.00  0.00    +0.000 NA
ATOM      6  C   UNL     1       1.087   9.011  21.113  0.00  0.00    +0.000 A 
ATOM      7  C   UNL     1       0.757   9.159  22.566  0.00  0.00    +0.000 C 
ATOM      8  N   UNL     1       0.770  10.040  20.311  0.00  0.00    +0.000 NA
ATOM      9  H   UNL     1       1.704  11.329  17.713  0.00  0.00    +0.000 HD
ENDROOT
BRANCH   4  10
ATOM     10  C   UNL     1       2.562   6.486  18.957  0.00  0.00    +0.000 A 
ATOM     11  C   UNL     1       3.510   6.406  17.921  0.00  0.00    +0.000 A 
ATOM     12  C   UNL     1       3.997   5.181  17.445  0.00  0.00    +0.000 A 
ATOM     13  C   UNL     1       3.528   3.980  18.003  0.00  0.00    +0.000 A 
ATOM     14  N   UNL     1       3.908   2.706  17.615  0.00  0.00    +0.000 NA
ATOM     15  C   UNL     1       3.261   1.821  18.335  0.00  0.00    +0.000 A 
ATOM     16  S   UNL     1       2.183   2.441  19.513  0.00  0.00    +0.000 S 
ATOM     17  C   UNL     1       2.589   4.047  19.030  0.00  0.00    +0.000 A 
ATOM     18  C   UNL     1       2.101   5.275  19.518  0.00  0.00    +0.000 A 
ENDBRANCH   4  10
BRANCH   1  19
ATOM     19  C   UNL     1       0.024  12.096  18.648  0.00  0.00    +0.000 C 
ATOM     20  C   UNL     1      -1.281  12.223  17.856  0.00  0.00    +0.000 C 
BRANCH  19  25
ATOM     21  C   UNL     1       2.903  14.602  18.149  0.00  0.00    +0.000 A 
ATOM     22  C   UNL     1       2.249  15.802  18.433  0.00  0.00    +0.000 A 
ATOM     23  C   UNL     1       0.911  15.802  18.821  0.00  0.00    +0.000 A 
ATOM     24  C   UNL     1       0.212  14.600  18.901  0.00  0.00    +0.000 A 
ATOM     25  C   UNL     1       0.837  13.384  18.577  0.00  0.00    +0.000 A 
ATOM     26  C   UNL     1       2.195  13.398  18.202  0.00  0.00    +0.000 A 
BRANCH  21  27
ATOM     27  O   UNL     1       4.221  14.734  17.807  0.00  0.00    +0.000 OA
BRANCH  27  28
ATOM     28  C   UNL     1       4.965  15.686  18.557  0.00  0.00    +0.000 C 
BRANCH  28  30
ATOM     29  C   UNL     1       7.176  14.637  17.720  0.00  0.00    +0.000 C 
ATOM     30  C   UNL     1       6.328  15.095  18.878  0.00  0.00    +0.000 C 
ATOM     31  O   UNL     1       6.706  14.940  20.041  0.00  0.00    +0.000 OA
ENDBRANCH  28  30
ENDBRANCH  27  28
ENDBRANCH  21  27
ENDBRANCH  19  25
ENDBRANCH   1  19
TORSDOF 6
ENDMDL
MODEL 4
REMARK VINA RESULT:      -7.7      5.846     10.505
REMARK  Name = 
REMARK  9 active torsions:
REMARK  status: ('A' for Active; 'I' for Inactive)
REMARK    1  A    between atoms: C_1  and  C_2
REMARK    2  A    between atoms: C_2  and  C_4
REMARK    3  A    between atoms: C_4  and  O_5
REMARK    4  A    between atoms: O_5  and  C_6
REMARK    5  A    between atoms: C_10  and  C_11
REMARK    6  A    between atoms: C_11  and  C_12
REMARK    7  A    between atoms: C_11  and  N_13
REMARK    8  A    between atoms: C_16  and  C_17
REMARK    9  A    between atoms: C_27  and  C_28
REMARK                            x       y       z     vdW  Elec       q    Type
REMARK                         _______ _______ _______ _____ _____    ______ ____
ROOT
ATOM      1  N   UNL     1       5.654   5.742  16.843  0.00  0.00    +0.000 N 
ATOM      2  C   UNL     1       4.423   5.610  17.514  0.00  0.00    +0.000 A 
ATOM      3  C   UNL     1       3.799   6.762  17.948  0.00  0.00    +0.000 A 
ATOM      4  C   UNL     1       2.636   6.632  18.690  0.00  0.00    +0.000 A 
ATOM      5  N   UNL     1       2.070   5.423  18.892  0.00  0.00    +0.000 NA
ATOM      6  C   UNL     1       2.724   4.355  18.406  0.00  0.00    +0.000 A 
ATOM      7  C   UNL     1       2.097   3.007  18.571  0.00  0.00    +0.000 C 
ATOM      8  N   UNL     1       3.895   4.403  17.750  0.00  0.00    +0.000 NA
ATOM      9  H   UNL     1       5.509   6.323  16.021  0.00  0.00    +0.000 HD
ENDROOT
BRANCH   4  10
ATOM     10  C   UNL     1       1.976   7.781  19.357  0.00  0.00    +0.000 A 
ATOM     11  C   UNL     1       1.600   7.720  20.711  0.00  0.00    +0.000 A 
ATOM     12  C   UNL     1       0.931   8.772  21.351  0.00  0.00    +0.000 A 
ATOM     13  C   UNL     1       0.607   9.933  20.630  0.00  0.00    +0.000 A 
ATOM     14  N   UNL     1      -0.066  11.034  21.130  0.00  0.00    +0.000 NA
ATOM     15  C   UNL     1      -0.213  11.925  20.178  0.00  0.00    +0.000 A 
ATOM     16  S   UNL     1       0.445  11.519  18.650  0.00  0.00    +0.000 S 
ATOM     17  C   UNL     1       0.974  10.005  19.288  0.00  0.00    +0.000 A 
ATOM     18  C   UNL     1       1.653   8.954  18.640  0.00  0.00    +0.000 A 
ENDBRANCH   4  10
BRANCH   1  19
ATOM     19  C   UNL     1       6.344   4.493  16.509  0.00  0.00    +0.000 C 
ATOM     20  C   UNL     1       7.690   4.417  17.238  0.00  0.00    +0.000 C 
BRANCH  19  25
ATOM     21  C   UNL     1       5.898   3.630  12.783  0.00  0.00    +0.000 A 
ATOM     22  C   UNL     1       6.928   4.385  12.222  0.00  0.00    +0.000 A 
ATOM     23  C   UNL     1       7.782   5.129  13.033  0.00  0.00    +0.000 A 
ATOM     24  C   UNL     1       7.592   5.141  14.412  0.00  0.00    +0.000 A 
ATOM     25  C   UNL     1       6.534   4.425  14.997  0.00  0.00    +0.000 A 
ATOM     26  C   UNL     1       5.689   3.664  14.165  0.00  0.00    +0.000 A 
BRANCH  21  27
ATOM     27  O   UNL     1       5.148   2.922  11.884  0.00  0.00    +0.000 OA
BRANCH  27  28
ATOM     28  C   UNL     1       4.851   3.588  10.664  0.00  0.00    +0.000 C 
BRANCH  28  30
ATOM     29  C   UNL     1       2.744   4.434   9.425  0.00  0.00    +0.000 C 
ATOM     30  C   UNL     1       3.363   3.451  10.384  0.00  0.00    +0.000 C 
ATOM     31  O   UNL     1       2.674   2.606  10.960  0.00  0.00    +0.000 OA
ENDBRANCH  28  30
ENDBRANCH  27  28
ENDBRANCH  21  27
ENDBRANCH  19  25
ENDBRANCH   1  19
TORSDOF 6
ENDMDL
MODEL 5
REMARK VINA RESULT:      -7.6      2.116      3.212
REMARK  Name = 
REMARK  9 active torsions:
REMARK  status: ('A' for Active; 'I' for Inactive)
REMARK    1  A    between atoms: C_1  and  C_2
REMARK    2  A    between atoms: C_2  and  C_4
REMARK    3  A    between atoms: C_4  and  O_5
REMARK    4  A    between atoms: O_5  and  C_6
REMARK    5  A    between atoms: C_10  and  C_11
REMARK    6  A    between atoms: C_11  and  C_12
REMARK    7  A    between atoms: C_11  and  N_13
REMARK    8  A    between atoms: C_16  and  C_17
REMARK    9  A    between atoms: C_27  and  C_28
REMARK                            x       y       z     vdW  Elec       q    Type
REMARK                         _______ _______ _______ _____ _____    ______ ____
ROOT
ATOM      1  N   UNL     1       0.851  11.279  18.069  0.00  0.00    +0.000 N 
ATOM      2  C   UNL     1       1.204  10.124  18.793  0.00  0.00    +0.000 A 
ATOM      3  C   UNL     1       1.954   9.162  18.146  0.00  0.00    +0.000 A 
ATOM      4  C   UNL     1       2.225   7.984  18.823  0.00  0.00    +0.000 A 
ATOM      5  N   UNL     1       1.859   7.821  20.112  0.00  0.00    +0.000 NA
ATOM      6  C   UNL     1       1.163   8.820  20.678  0.00  0.00    +0.000 A 
ATOM      7  C   UNL     1       0.787   8.690  22.121  0.00  0.00    +0.000 C 
ATOM      8  N   UNL     1       0.797   9.953  20.056  0.00  0.00    +0.000 NA
ATOM      9  H   UNL     1       1.706  11.735  17.758  0.00  0.00    +0.000 HD
ENDROOT
BRANCH   4  10
ATOM     10  C   UNL     1       2.865   6.813  18.174  0.00  0.00    +0.000 A 
ATOM     11  C   UNL     1       2.285   5.533  18.244  0.00  0.00    +0.000 A 
ATOM     12  C   UNL     1       2.895   4.403  17.682  0.00  0.00    +0.000 A 
ATOM     13  C   UNL     1       4.132   4.530  17.030  0.00  0.00    +0.000 A 
ATOM     14  N   UNL     1       4.851   3.498  16.451  0.00  0.00    +0.000 NA
ATOM     15  C   UNL     1       5.967   3.972  15.950  0.00  0.00    +0.000 A 
ATOM     16  S   UNL     1       6.222   5.657  16.121  0.00  0.00    +0.000 S 
ATOM     17  C   UNL     1       4.716   5.793  16.954  0.00  0.00    +0.000 A 
ATOM     18  C   UNL     1       4.105   6.934  17.511  0.00  0.00    +0.000 A 
ENDBRANCH   4  10
BRANCH   1  19
ATOM     19  C   UNL     1      -0.047  12.217  18.748  0.00  0.00    +0.000 C 
ATOM     20  C   UNL     1      -1.427  12.208  18.084  0.00  0.00    +0.000 C 
BRANCH  19  25
ATOM     21  C   UNL     1       2.465  15.114  18.401  0.00  0.00    +0.000 A 
ATOM     22  C   UNL     1       1.624  16.207  18.613  0.00  0.00    +0.000 A 
ATOM     23  C   UNL     1       0.276  16.014  18.905  0.00  0.00    +0.000 A 
ATOM     24  C   UNL     1      -0.244  14.724  18.962  0.00  0.00    +0.000 A 
ATOM     25  C   UNL     1       0.573  13.610  18.708  0.00  0.00    +0.000 A 
ATOM     26  C   UNL     1       1.938  13.819  18.429  0.00  0.00    +0.000 A 
BRANCH  21  27
ATOM     27  O   UNL     1       3.772  15.434  18.150  0.00  0.00    +0.000 OA
BRANCH  27  28
ATOM     28  C   UNL     1       4.672  15.262  19.236  0.00  0.00    +0.000 C 
BRANCH  28  30
ATOM     29  C   UNL     1       7.077  16.088  19.710  0.00  0.00    +0.000 C 
ATOM     30  C   UNL     1       5.690  16.391  19.207  0.00  0.00    +0.000 C 
ATOM     31  O   UNL     1       5.382  17.527  18.841  0.00  0.00    +0.000 OA
ENDBRANCH  28  30
ENDBRANCH  27  28
ENDBRANCH  21  27
ENDBRANCH  19  25
ENDBRANCH   1  19
TORSDOF 6
ENDMDL
MODEL 6
REMARK VINA RESULT:      -7.6      6.033      9.832
REMARK  Name = 
REMARK  9 active torsions:
REMARK  status: ('A' for Active; 'I' for Inactive)
REMARK    1  A    between atoms: C_1  and  C_2
REMARK    2  A    between atoms: C_2  and  C_4
REMARK    3  A    between atoms: C_4  and  O_5
REMARK    4  A    between atoms: O_5  and  C_6
REMARK    5  A    between atoms: C_10  and  C_11
REMARK    6  A    between atoms: C_11  and  C_12
REMARK    7  A    between atoms: C_11  and  N_13
REMARK    8  A    between atoms: C_16  and  C_17
REMARK    9  A    between atoms: C_27  and  C_28
REMARK                            x       y       z     vdW  Elec       q    Type
REMARK                         _______ _______ _______ _____ _____    ______ ____
ROOT
ATOM      1  N   UNL     1       6.124   6.503  16.048  0.00  0.00    +0.000 N 
ATOM      2  C   UNL     1       6.927   6.899  17.134  0.00  0.00    +0.000 A 
ATOM      3  C   UNL     1       7.293   8.228  17.213  0.00  0.00    +0.000 A 
ATOM      4  C   UNL     1       8.159   8.605  18.228  0.00  0.00    +0.000 A 
ATOM      5  N   UNL     1       8.550   7.724  19.173  0.00  0.00    +0.000 NA
ATOM      6  C   UNL     1       8.120   6.459  19.042  0.00  0.00    +0.000 A 
ATOM      7  C   UNL     1       8.496   5.471  20.101  0.00  0.00    +0.000 C 
ATOM      8  N   UNL     1       7.347   6.009  18.039  0.00  0.00    +0.000 NA
ATOM      9  H   UNL     1       5.262   7.043  16.073  0.00  0.00    +0.000 HD
ENDROOT
BRANCH   4  10
ATOM     10  C   UNL     1       8.760   9.960  18.310  0.00  0.00    +0.000 A 
ATOM     11  C   UNL     1       8.204  11.047  17.612  0.00  0.00    +0.000 A 
ATOM     12  C   UNL     1       8.781  12.324  17.634  0.00  0.00    +0.000 A 
ATOM     13  C   UNL     1       9.961  12.544  18.363  0.00  0.00    +0.000 A 
ATOM     14  N   UNL     1      10.644  13.744  18.453  0.00  0.00    +0.000 NA
ATOM     15  C   UNL     1      11.711  13.584  19.200  0.00  0.00    +0.000 A 
ATOM     16  S   UNL     1      11.957  12.017  19.846  0.00  0.00    +0.000 S 
ATOM     17  C   UNL     1      10.521  11.474  19.057  0.00  0.00    +0.000 A 
ATOM     18  C   UNL     1       9.942  10.189  19.046  0.00  0.00    +0.000 A 
ENDBRANCH   4  10
BRANCH   1  19
ATOM     19  C   UNL     1       5.860   5.066  15.930  0.00  0.00    +0.000 C 
ATOM     20  C   UNL     1       5.725   4.669  14.457  0.00  0.00    +0.000 C 
BRANCH  19  25
ATOM     21  C   UNL     1       2.645   5.375  18.024  0.00  0.00    +0.000 A 
ATOM     22  C   UNL     1       2.251   4.038  18.085  0.00  0.00    +0.000 A 
ATOM     23  C   UNL     1       3.031   3.045  17.497  0.00  0.00    +0.000 A 
ATOM     24  C   UNL     1       4.198   3.389  16.821  0.00  0.00    +0.000 A 
ATOM     25  C   UNL     1       4.592   4.733  16.708  0.00  0.00    +0.000 A 
ATOM     26  C   UNL     1       3.801   5.725  17.322  0.00  0.00    +0.000 A 
BRANCH  21  27
ATOM     27  O   UNL     1       1.809   6.250  18.664  0.00  0.00    +0.000 OA
BRANCH  27  28
ATOM     28  C   UNL     1       2.428   7.396  19.233  0.00  0.00    +0.000 C 
BRANCH  28  30
ATOM     29  C   UNL     1       0.979   9.538  19.290  0.00  0.00    +0.000 C 
ATOM     30  C   UNL     1       1.907   8.634  18.521  0.00  0.00    +0.000 C 
ATOM     31  O   UNL     1       2.183   8.864  17.341  0.00  0.00    +0.000 OA
ENDBRANCH  28  30
ENDBRANCH  27  28
ENDBRANCH  21  27
ENDBRANCH  19  25
ENDBRANCH   1  19
TORSDOF 6
ENDMDL
MODEL 7
REMARK VINA RESULT:      -7.6      2.188      3.384
REMARK  Name = 
REMARK  9 active torsions:
REMARK  status: ('A' for Active; 'I' for Inactive)
REMARK    1  A    between atoms: C_1  and  C_2
REMARK    2  A    between atoms: C_2  and  C_4
REMARK    3  A    between atoms: C_4  and  O_5
REMARK    4  A    between atoms: O_5  and  C_6
REMARK    5  A    between atoms: C_10  and  C_11
REMARK    6  A    between atoms: C_11  and  C_12
REMARK    7  A    between atoms: C_11  and  N_13
REMARK    8  A    between atoms: C_16  and  C_17
REMARK    9  A    between atoms: C_27  and  C_28
REMARK                            x       y       z     vdW  Elec       q    Type
REMARK                         _______ _______ _______ _____ _____    ______ ____
ROOT
ATOM      1  N   UNL     1       0.833  11.267  18.090  0.00  0.00    +0.000 N 
ATOM      2  C   UNL     1       1.180  10.101  18.796  0.00  0.00    +0.000 A 
ATOM      3  C   UNL     1       1.953   9.160  18.147  0.00  0.00    +0.000 A 
ATOM      4  C   UNL     1       2.220   7.969  18.804  0.00  0.00    +0.000 A 
ATOM      5  N   UNL     1       1.826   7.775  20.080  0.00  0.00    +0.000 NA
ATOM      6  C   UNL     1       1.107   8.755  20.652  0.00  0.00    +0.000 A 
ATOM      7  C   UNL     1       0.698   8.590  22.082  0.00  0.00    +0.000 C 
ATOM      8  N   UNL     1       0.745   9.898  20.045  0.00  0.00    +0.000 NA
ATOM      9  H   UNL     1       1.690  11.738  17.809  0.00  0.00    +0.000 HD
ENDROOT
BRANCH   4  10
ATOM     10  C   UNL     1       2.886   6.819  18.145  0.00  0.00    +0.000 A 
ATOM     11  C   UNL     1       2.320   5.531  18.179  0.00  0.00    +0.000 A 
ATOM     12  C   UNL     1       2.953   4.420  17.607  0.00  0.00    +0.000 A 
ATOM     13  C   UNL     1       4.201   4.574  16.982  0.00  0.00    +0.000 A 
ATOM     14  N   UNL     1       4.943   3.561  16.397  0.00  0.00    +0.000 NA
ATOM     15  C   UNL     1       6.063   4.058  15.927  0.00  0.00    +0.000 A 
ATOM     16  S   UNL     1       6.295   5.742  16.136  0.00  0.00    +0.000 S 
ATOM     17  C   UNL     1       4.772   5.844  16.942  0.00  0.00    +0.000 A 
ATOM     18  C   UNL     1       4.137   6.967  17.508  0.00  0.00    +0.000 A 
ENDBRANCH   4  10
BRANCH   1  19
ATOM     19  C   UNL     1      -0.089  12.182  18.768  0.00  0.00    +0.000 C 
ATOM     20  C   UNL     1      -1.419  12.256  18.010  0.00  0.00    +0.000 C 
BRANCH  19  25
ATOM     21  C   UNL     1       2.486  15.003  19.256  0.00  0.00    +0.000 A 
ATOM     22  C   UNL     1       1.694  16.120  18.988  0.00  0.00    +0.000 A 
ATOM     23  C   UNL     1       0.340  15.972  18.695  0.00  0.00    +0.000 A 
ATOM     24  C   UNL     1      -0.224  14.700  18.644  0.00  0.00    +0.000 A 
ATOM     25  C   UNL     1       0.563  13.557  18.866  0.00  0.00    +0.000 A 
ATOM     26  C   UNL     1       1.928  13.724  19.176  0.00  0.00    +0.000 A 
BRANCH  21  27
ATOM     27  O   UNL     1       3.791  15.282  19.556  0.00  0.00    +0.000 OA
BRANCH  27  28
ATOM     28  C   UNL     1       4.010  15.996  20.765  0.00  0.00    +0.000 C 
BRANCH  28  30
ATOM     29  C   UNL     1       5.233  14.160  22.115  0.00  0.00    +0.000 C 
ATOM     30  C   UNL     1       4.004  15.009  21.921  0.00  0.00    +0.000 C 
ATOM     31  O   UNL     1       3.012  14.863  22.640  0.00  0.00    +0.000 OA
ENDBRANCH  28  30
ENDBRANCH  27  28
ENDBRANCH  21  27
ENDBRANCH  19  25
ENDBRANCH   1  19
TORSDOF 6
ENDMDL
MODEL 8
REMARK VINA RESULT:      -7.6      4.784     10.036
REMARK  Name = 
REMARK  9 active torsions:
REMARK  status: ('A' for Active; 'I' for Inactive)
REMARK    1  A    between atoms: C_1  and  C_2
REMARK    2  A    between atoms: C_2  and  C_4
REMARK    3  A    between atoms: C_4  and  O_5
REMARK    4  A    between atoms: O_5  and  C_6
REMARK    5  A    between atoms: C_10  and  C_11
REMARK    6  A    between atoms: C_11  and  C_12
REMARK    7  A    between atoms: C_11  and  N_13
REMARK    8  A    between atoms: C_16  and  C_17
REMARK    9  A    between atoms: C_27  and  C_28
REMARK                            x       y       z     vdW  Elec       q    Type
REMARK                         _______ _______ _______ _____ _____    ______ ____
ROOT
ATOM      1  N   UNL     1       2.390   9.111  18.640  0.00  0.00    +0.000 N 
ATOM      2  C   UNL     1       1.421  10.127  18.535  0.00  0.00    +0.000 A 
ATOM      3  C   UNL     1       1.862  11.433  18.468  0.00  0.00    +0.000 A 
ATOM      4  C   UNL     1       0.911  12.442  18.458  0.00  0.00    +0.000 A 
ATOM      5  N   UNL     1      -0.407  12.155  18.408  0.00  0.00    +0.000 NA
ATOM      6  C   UNL     1      -0.750  10.857  18.442  0.00  0.00    +0.000 A 
ATOM      7  C   UNL     1      -2.202  10.508  18.338  0.00  0.00    +0.000 C 
ATOM      8  N   UNL     1       0.115   9.835  18.534  0.00  0.00    +0.000 NA
ATOM      9  H   UNL     1       3.005   9.171  17.832  0.00  0.00    +0.000 HD
ENDROOT
BRANCH   4  10
ATOM     10  C   UNL     1       1.263  13.879  18.566  0.00  0.00    +0.000 A 
ATOM     11  C   UNL     1       2.575  14.328  18.332  0.00  0.00    +0.000 A 
ATOM     12  C   UNL     1       2.943  15.673  18.476  0.00  0.00    +0.000 A 
ATOM     13  C   UNL     1       1.985  16.619  18.876  0.00  0.00    +0.000 A 
ATOM     14  N   UNL     1       2.217  17.969  19.076  0.00  0.00    +0.000 NA
ATOM     15  C   UNL     1       1.106  18.549  19.463  0.00  0.00    +0.000 A 
ATOM     16  S   UNL     1      -0.271  17.539  19.598  0.00  0.00    +0.000 S 
ATOM     17  C   UNL     1       0.682  16.186  19.111  0.00  0.00    +0.000 A 
ATOM     18  C   UNL     1       0.304  14.837  18.961  0.00  0.00    +0.000 A 
ENDBRANCH   4  10
BRANCH   1  19
ATOM     19  C   UNL     1       1.880   7.751  18.834  0.00  0.00    +0.000 C 
ATOM     20  C   UNL     1       1.786   7.425  20.328  0.00  0.00    +0.000 C 
BRANCH  19  25
ATOM     21  C   UNL     1       4.806   6.253  16.829  0.00  0.00    +0.000 A 
ATOM     22  C   UNL     1       4.464   4.901  16.852  0.00  0.00    +0.000 A 
ATOM     23  C   UNL     1       3.287   4.480  17.466  0.00  0.00    +0.000 A 
ATOM     24  C   UNL     1       2.457   5.410  18.086  0.00  0.00    +0.000 A 
ATOM     25  C   UNL     1       2.803   6.772  18.115  0.00  0.00    +0.000 A 
ATOM     26  C   UNL     1       3.989   7.185  17.476  0.00  0.00    +0.000 A 
BRANCH  21  27
ATOM     27  O   UNL     1       5.971   6.541  16.172  0.00  0.00    +0.000 OA
BRANCH  27  28
ATOM     28  C   UNL     1       7.148   5.949  16.706  0.00  0.00    +0.000 C 
BRANCH  28  30
ATOM     29  C   UNL     1       7.847   8.243  17.674  0.00  0.00    +0.000 C 
ATOM     30  C   UNL     1       7.609   6.772  17.897  0.00  0.00    +0.000 C 
ATOM     31  O   UNL     1       7.836   6.251  18.992  0.00  0.00    +0.000 OA
ENDBRANCH  28  30
ENDBRANCH  27  28
ENDBRANCH  21  27
ENDBRANCH  19  25
ENDBRANCH   1  19
TORSDOF 6
ENDMDL
MODEL 9
REMARK VINA RESULT:      -7.5      4.917     10.303
REMARK  Name = 
REMARK  9 active torsions:
REMARK  status: ('A' for Active; 'I' for Inactive)
REMARK    1  A    between atoms: C_1  and  C_2
REMARK    2  A    between atoms: C_2  and  C_4
REMARK    3  A    between atoms: C_4  and  O_5
REMARK    4  A    between atoms: O_5  and  C_6
REMARK    5  A    between atoms: C_10  and  C_11
REMARK    6  A    between atoms: C_11  and  C_12
REMARK    7  A    between atoms: C_11  and  N_13
REMARK    8  A    between atoms: C_16  and  C_17
REMARK    9  A    between atoms: C_27  and  C_28
REMARK                            x       y       z     vdW  Elec       q    Type
REMARK                         _______ _______ _______ _____ _____    ______ ____
ROOT
ATOM      1  N   UNL     1       2.420   8.815  18.628  0.00  0.00    +0.000 N 
ATOM      2  C   UNL     1       1.474   9.851  18.516  0.00  0.00    +0.000 A 
ATOM      3  C   UNL     1       1.945  11.144  18.411  0.00  0.00    +0.000 A 
ATOM      4  C   UNL     1       1.019  12.175  18.394  0.00  0.00    +0.000 A 
ATOM      5  N   UNL     1      -0.307  11.920  18.375  0.00  0.00    +0.000 NA
ATOM      6  C   UNL     1      -0.680  10.632  18.445  0.00  0.00    +0.000 A 
ATOM      7  C   UNL     1      -2.141  10.315  18.376  0.00  0.00    +0.000 C 
ATOM      8  N   UNL     1       0.162   9.591  18.545  0.00  0.00    +0.000 NA
ATOM      9  H   UNL     1       3.021   8.841  17.807  0.00  0.00    +0.000 HD
ENDROOT
BRANCH   4  10
ATOM     10  C   UNL     1       1.407  13.606  18.462  0.00  0.00    +0.000 A 
ATOM     11  C   UNL     1       2.709  14.025  18.133  0.00  0.00    +0.000 A 
ATOM     12  C   UNL     1       3.114  15.362  18.237  0.00  0.00    +0.000 A 
ATOM     13  C   UNL     1       2.206  16.332  18.692  0.00  0.00    +0.000 A 
ATOM     14  N   UNL     1       2.478  17.679  18.860  0.00  0.00    +0.000 NA
ATOM     15  C   UNL     1       1.409  18.286  19.316  0.00  0.00    +0.000 A 
ATOM     16  S   UNL     1       0.024  17.308  19.557  0.00  0.00    +0.000 S 
ATOM     17  C   UNL     1       0.913  15.929  19.021  0.00  0.00    +0.000 A 
ATOM     18  C   UNL     1       0.497  14.587  18.912  0.00  0.00    +0.000 A 
ENDBRANCH   4  10
BRANCH   1  19
ATOM     19  C   UNL     1       1.882   7.472  18.862  0.00  0.00    +0.000 C 
ATOM     20  C   UNL     1       1.811   7.182  20.365  0.00  0.00    +0.000 C 
BRANCH  19  25
ATOM     21  C   UNL     1       4.785   5.838  16.932  0.00  0.00    +0.000 A 
ATOM     22  C   UNL     1       4.346   4.514  16.886  0.00  0.00    +0.000 A 
ATOM     23  C   UNL     1       3.115   4.158  17.431  0.00  0.00    +0.000 A 
ATOM     24  C   UNL     1       2.325   5.124  18.049  0.00  0.00    +0.000 A 
ATOM     25  C   UNL     1       2.765   6.455  18.147  0.00  0.00    +0.000 A 
ATOM     26  C   UNL     1       4.006   6.803  17.578  0.00  0.00    +0.000 A 
BRANCH  21  27
ATOM     27  O   UNL     1       5.997   6.063  16.338  0.00  0.00    +0.000 OA
BRANCH  27  28
ATOM     28  C   UNL     1       6.757   4.905  16.022  0.00  0.00    +0.000 C 
BRANCH  28  30
ATOM     29  C   UNL     1       6.228   3.913  13.693  0.00  0.00    +0.000 C 
ATOM     30  C   UNL     1       7.019   4.889  14.524  0.00  0.00    +0.000 C 
ATOM     31  O   UNL     1       7.885   5.603  14.014  0.00  0.00    +0.000 OA
ENDBRANCH  28  30
ENDBRANCH  27  28
ENDBRANCH  21  27
ENDBRANCH  19  25
ENDBRANCH   1  19
TORSDOF 6
ENDMDL
