MODEL 1
REMARK VINA RESULT:      -8.2      0.000      0.000
REMARK  Name = 
REMARK  2 active torsions:
REMARK  status: ('A' for Active; 'I' for Inactive)
REMARK    1  A    between atoms: C_1  and  N_2
REMARK    2  A    between atoms: N_7  and  C_8
REMARK                            x       y       z     vdW  Elec       q    Type
REMARK                         _______ _______ _______ _____ _____    ______ ____
ROOT
ATOM      1  C   UNL     1      -1.046  11.278  20.883  0.00  0.00    +0.000 C 
ATOM      2  N   UNL     1      -0.098  10.193  20.919  0.00  0.00    +0.000 N 
ATOM      3  N   UNL     1       0.074   9.462  22.045  0.00  0.00    +0.000 NA
ATOM      4  C   UNL     1       0.969   8.538  21.674  0.00  0.00    +0.000 A 
ATOM      5  C   UNL     1       1.374   8.668  20.328  0.00  0.00    +0.000 A 
ATOM      6  C   UNL     1       2.205   8.007  19.409  0.00  0.00    +0.000 A 
ATOM      7  N   UNL     1       2.943   6.853  19.722  0.00  0.00    +0.000 N 
ATOM      8  N   UNL     1       2.287   8.540  18.157  0.00  0.00    +0.000 NA
ATOM      9  C   UNL     1       1.568   9.635  17.850  0.00  0.00    +0.000 A 
ATOM     10  N   UNL     1       0.720  10.309  18.640  0.00  0.00    +0.000 NA
ATOM     11  C   UNL     1       0.672   9.770  19.870  0.00  0.00    +0.000 A 
ATOM     12  H   UNL     1       2.841   6.547  20.682  0.00  0.00    +0.000 HD
ENDROOT
BRANCH   7  13
ATOM     13  C   UNL     1       3.203   5.751  18.860  0.00  0.00    +0.000 A 
ATOM     14  C   UNL     1       4.215   5.831  17.887  0.00  0.00    +0.000 A 
ATOM     15  C   UNL     1       4.450   4.788  16.999  0.00  0.00    +0.000 A 
ATOM     16  C   UNL     1       3.677   3.634  17.068  0.00  0.00    +0.000 A 
ATOM     17  C   UNL     1       2.674   3.502  18.037  0.00  0.00    +0.000 A 
ATOM     18  C   UNL     1       1.925   2.317  18.108  0.00  0.00    +0.000 A 
ATOM     19  C   UNL     1       0.939   2.149  19.077  0.00  0.00    +0.000 A 
ATOM     20  C   UNL     1       0.691   3.165  19.990  0.00  0.00    +0.000 A 
ATOM     21  C   UNL     1       1.422   4.356  19.929  0.00  0.00    +0.000 A 
ATOM     22  C   UNL     1       2.425   4.559  18.952  0.00  0.00    +0.000 A 
ENDBRANCH   7  13
TORSDOF 1
ENDMDL
MODEL 2
REMARK VINA RESULT:      -8.2      0.851      2.499
REMARK  Name = 
REMARK  2 active torsions:
REMARK  status: ('A' for Active; 'I' for Inactive)
REMARK    1  A    between atoms: C_1  and  N_2
REMARK    2  A    between atoms: N_7  and  C_8
REMARK                            x       y       z     vdW  Elec       q    Type
REMARK                         _______ _______ _______ _____ _____    ______ ____
ROOT
ATOM      1  C   UNL     1      -0.462  12.116  21.564  0.00  0.00    +0.000 C 
ATOM      2  N   UNL     1       0.233  10.855  21.643  0.00  0.00    +0.000 N 
ATOM      3  N   UNL     1       0.463  10.267  22.840  0.00  0.00    +0.000 NA
ATOM      4  C   UNL     1       1.062   9.117  22.504  0.00  0.00    +0.000 A 
ATOM      5  C   UNL     1       1.220   8.962  21.109  0.00  0.00    +0.000 A 
ATOM      6  C   UNL     1       1.706   8.006  20.204  0.00  0.00    +0.000 A 
ATOM      7  N   UNL     1       2.237   6.766  20.597  0.00  0.00    +0.000 N 
ATOM      8  N   UNL     1       1.655   8.327  18.880  0.00  0.00    +0.000 NA
ATOM      9  C   UNL     1       1.131   9.507  18.500  0.00  0.00    +0.000 A 
ATOM     10  N   UNL     1       0.606  10.462  19.281  0.00  0.00    +0.000 NA
ATOM     11  C   UNL     1       0.685  10.124  20.579  0.00  0.00    +0.000 A 
ATOM     12  H   UNL     1       2.259   6.627  21.600  0.00  0.00    +0.000 HD
ENDROOT
BRANCH   7  13
ATOM     13  C   UNL     1       2.096   5.525  19.914  0.00  0.00    +0.000 A 
ATOM     14  C   UNL     1       1.102   4.609  20.298  0.00  0.00    +0.000 A 
ATOM     15  C   UNL     1       0.982   3.369  19.681  0.00  0.00    +0.000 A 
ATOM     16  C   UNL     1       1.855   3.019  18.657  0.00  0.00    +0.000 A 
ATOM     17  C   UNL     1       2.846   3.911  18.227  0.00  0.00    +0.000 A 
ATOM     18  C   UNL     1       3.699   3.548  17.172  0.00  0.00    +0.000 A 
ATOM     19  C   UNL     1       4.676   4.425  16.707  0.00  0.00    +0.000 A 
ATOM     20  C   UNL     1       4.811   5.678  17.290  0.00  0.00    +0.000 A 
ATOM     21  C   UNL     1       3.976   6.052  18.348  0.00  0.00    +0.000 A 
ATOM     22  C   UNL     1       2.978   5.181  18.847  0.00  0.00    +0.000 A 
ENDBRANCH   7  13
TORSDOF 1
ENDMDL
MODEL 3
REMARK VINA RESULT:      -8.2      0.803      2.658
REMARK  Name = 
REMARK  2 active torsions:
REMARK  status: ('A' for Active; 'I' for Inactive)
REMARK    1  A    between atoms: C_1  and  N_2
REMARK    2  A    between atoms: N_7  and  C_8
REMARK                            x       y       z     vdW  Elec       q    Type
REMARK                         _______ _______ _______ _____ _____    ______ ____
ROOT
ATOM      1  C   UNL     1      -0.656  11.429  21.386  0.00  0.00    +0.000 C 
ATOM      2  N   UNL     1       0.221  10.287  21.308  0.00  0.00    +0.000 N 
ATOM      3  N   UNL     1       0.590   9.621  22.426  0.00  0.00    +0.000 NA
ATOM      4  C   UNL     1       1.337   8.617  21.950  0.00  0.00    +0.000 A 
ATOM      5  C   UNL     1       1.453   8.632  20.543  0.00  0.00    +0.000 A 
ATOM      6  C   UNL     1       2.035   7.859  19.525  0.00  0.00    +0.000 A 
ATOM      7  N   UNL     1       2.761   6.681  19.766  0.00  0.00    +0.000 N 
ATOM      8  N   UNL     1       1.876   8.303  18.247  0.00  0.00    +0.000 NA
ATOM      9  C   UNL     1       1.166   9.421  18.012  0.00  0.00    +0.000 A 
ATOM     10  N   UNL     1       0.541  10.200  18.907  0.00  0.00    +0.000 NA
ATOM     11  C   UNL     1       0.728   9.746  20.158  0.00  0.00    +0.000 A 
ATOM     12  H   UNL     1       2.849   6.444  20.747  0.00  0.00    +0.000 HD
ENDROOT
BRANCH   7  13
ATOM     13  C   UNL     1       2.775   5.510  18.956  0.00  0.00    +0.000 A 
ATOM     14  C   UNL     1       1.784   4.526  19.111  0.00  0.00    +0.000 A 
ATOM     15  C   UNL     1       1.809   3.350  18.370  0.00  0.00    +0.000 A 
ATOM     16  C   UNL     1       2.829   3.134  17.450  0.00  0.00    +0.000 A 
ATOM     17  C   UNL     1       3.824   4.099  17.248  0.00  0.00    +0.000 A 
ATOM     18  C   UNL     1       4.829   3.873  16.293  0.00  0.00    +0.000 A 
ATOM     19  C   UNL     1       5.816   4.827  16.053  0.00  0.00    +0.000 A 
ATOM     20  C   UNL     1       5.810   6.019  16.764  0.00  0.00    +0.000 A 
ATOM     21  C   UNL     1       4.821   6.256  17.725  0.00  0.00    +0.000 A 
ATOM     22  C   UNL     1       3.809   5.305  17.996  0.00  0.00    +0.000 A 
ENDBRANCH   7  13
TORSDOF 1
ENDMDL
MODEL 4
REMARK VINA RESULT:      -8.0      2.078      6.632
REMARK  Name = 
REMARK  2 active torsions:
REMARK  status: ('A' for Active; 'I' for Inactive)
REMARK    1  A    between atoms: C_1  and  N_2
REMARK    2  A    between atoms: N_7  and  C_8
REMARK                            x       y       z     vdW  Elec       q    Type
REMARK                         _______ _______ _______ _____ _____    ______ ____
ROOT
ATOM      1  C   UNL     1       4.070   1.444  19.093  0.00  0.00    +0.000 C 
ATOM      2  N   UNL     1       4.044   2.869  19.310  0.00  0.00    +0.000 N 
ATOM      3  N   UNL     1       5.141   3.624  19.071  0.00  0.00    +0.000 NA
ATOM      4  C   UNL     1       4.716   4.868  19.327  0.00  0.00    +0.000 A 
ATOM      5  C   UNL     1       3.363   4.919  19.730  0.00  0.00    +0.000 A 
ATOM      6  C   UNL     1       2.401   5.883  20.070  0.00  0.00    +0.000 A 
ATOM      7  N   UNL     1       2.656   7.265  20.075  0.00  0.00    +0.000 N 
ATOM      8  N   UNL     1       1.165   5.425  20.416  0.00  0.00    +0.000 NA
ATOM      9  C   UNL     1       0.913   4.104  20.395  0.00  0.00    +0.000 A 
ATOM     10  N   UNL     1       1.748   3.114  20.047  0.00  0.00    +0.000 NA
ATOM     11  C   UNL     1       2.961   3.594  19.726  0.00  0.00    +0.000 A 
ATOM     12  H   UNL     1       3.608   7.508  19.830  0.00  0.00    +0.000 HD
ENDROOT
BRANCH   7  13
ATOM     13  C   UNL     1       1.753   8.298  19.697  0.00  0.00    +0.000 A 
ATOM     14  C   UNL     1       1.604   8.654  18.346  0.00  0.00    +0.000 A 
ATOM     15  C   UNL     1       0.768   9.696  17.959  0.00  0.00    +0.000 A 
ATOM     16  C   UNL     1       0.057  10.405  18.921  0.00  0.00    +0.000 A 
ATOM     17  C   UNL     1       0.158  10.068  20.277  0.00  0.00    +0.000 A 
ATOM     18  C   UNL     1      -0.592  10.778  21.229  0.00  0.00    +0.000 A 
ATOM     19  C   UNL     1      -0.530  10.447  22.581  0.00  0.00    +0.000 A 
ATOM     20  C   UNL     1       0.281   9.401  22.998  0.00  0.00    +0.000 A 
ATOM     21  C   UNL     1       1.042   8.689  22.064  0.00  0.00    +0.000 A 
ATOM     22  C   UNL     1       1.006   9.004  20.685  0.00  0.00    +0.000 A 
ENDBRANCH   7  13
TORSDOF 1
ENDMDL
MODEL 5
REMARK VINA RESULT:      -7.7      1.066      1.126
REMARK  Name = 
REMARK  2 active torsions:
REMARK  status: ('A' for Active; 'I' for Inactive)
REMARK    1  A    between atoms: C_1  and  N_2
REMARK    2  A    between atoms: N_7  and  C_8
REMARK                            x       y       z     vdW  Elec       q    Type
REMARK                         _______ _______ _______ _____ _____    ______ ____
ROOT
ATOM      1  C   UNL     1      -1.523  11.397  22.274  0.00  0.00    +0.000 C 
ATOM      2  N   UNL     1      -0.445  10.460  22.075  0.00  0.00    +0.000 N 
ATOM      3  N   UNL     1       0.124   9.827  23.126  0.00  0.00    +0.000 NA
ATOM      4  C   UNL     1       1.020   9.019  22.547  0.00  0.00    +0.000 A 
ATOM      5  C   UNL     1       1.034   9.127  21.139  0.00  0.00    +0.000 A 
ATOM      6  C   UNL     1       1.686   8.538  20.044  0.00  0.00    +0.000 A 
ATOM      7  N   UNL     1       2.646   7.519  20.169  0.00  0.00    +0.000 N 
ATOM      8  N   UNL     1       1.356   9.004  18.806  0.00  0.00    +0.000 NA
ATOM      9  C   UNL     1       0.425   9.968  18.683  0.00  0.00    +0.000 A 
ATOM     10  N   UNL     1      -0.279  10.559  19.659  0.00  0.00    +0.000 NA
ATOM     11  C   UNL     1       0.079  10.091  20.866  0.00  0.00    +0.000 A 
ATOM     12  H   UNL     1       2.845   7.257  21.127  0.00  0.00    +0.000 HD
ENDROOT
BRANCH   7  13
ATOM     13  C   UNL     1       2.835   6.417  19.289  0.00  0.00    +0.000 A 
ATOM     14  C   UNL     1       3.519   6.587  18.073  0.00  0.00    +0.000 A 
ATOM     15  C   UNL     1       3.668   5.538  17.173  0.00  0.00    +0.000 A 
ATOM     16  C   UNL     1       3.137   4.288  17.474  0.00  0.00    +0.000 A 
ATOM     17  C   UNL     1       2.469   4.069  18.685  0.00  0.00    +0.000 A 
ATOM     18  C   UNL     1       1.965   2.792  18.982  0.00  0.00    +0.000 A 
ATOM     19  C   UNL     1       1.319   2.540  20.189  0.00  0.00    +0.000 A 
ATOM     20  C   UNL     1       1.169   3.561  21.117  0.00  0.00    +0.000 A 
ATOM     21  C   UNL     1       1.656   4.842  20.834  0.00  0.00    +0.000 A 
ATOM     22  C   UNL     1       2.311   5.131  19.614  0.00  0.00    +0.000 A 
ENDBRANCH   7  13
TORSDOF 1
ENDMDL
MODEL 6
REMARK VINA RESULT:      -7.7      4.013      5.546
REMARK  Name = 
REMARK  2 active torsions:
REMARK  status: ('A' for Active; 'I' for Inactive)
REMARK    1  A    between atoms: C_1  and  N_2
REMARK    2  A    between atoms: N_7  and  C_8
REMARK                            x       y       z     vdW  Elec       q    Type
REMARK                         _______ _______ _______ _____ _____    ______ ____
ROOT
ATOM      1  C   UNL     1       8.278   8.944  17.562  0.00  0.00    +0.000 C 
ATOM      2  N   UNL     1       7.840   7.636  17.982  0.00  0.00    +0.000 N 
ATOM      3  N   UNL     1       8.410   7.026  19.047  0.00  0.00    +0.000 NA
ATOM      4  C   UNL     1       7.713   5.888  19.154  0.00  0.00    +0.000 A 
ATOM      5  C   UNL     1       6.706   5.760  18.172  0.00  0.00    +0.000 A 
ATOM      6  C   UNL     1       5.685   4.863  17.821  0.00  0.00    +0.000 A 
ATOM      7  N   UNL     1       5.416   3.679  18.528  0.00  0.00    +0.000 N 
ATOM      8  N   UNL     1       4.934   5.181  16.729  0.00  0.00    +0.000 NA
ATOM      9  C   UNL     1       5.178   6.323  16.061  0.00  0.00    +0.000 A 
ATOM     10  N   UNL     1       6.097   7.258  16.341  0.00  0.00    +0.000 NA
ATOM     11  C   UNL     1       6.830   6.910  17.412  0.00  0.00    +0.000 A 
ATOM     12  H   UNL     1       6.041   3.514  19.307  0.00  0.00    +0.000 HD
ENDROOT
BRANCH   7  13
ATOM     13  C   UNL     1       4.136   3.105  18.770  0.00  0.00    +0.000 A 
ATOM     14  C   UNL     1       3.856   1.791  18.360  0.00  0.00    +0.000 A 
ATOM     15  C   UNL     1       2.596   1.229  18.537  0.00  0.00    +0.000 A 
ATOM     16  C   UNL     1       1.586   1.974  19.136  0.00  0.00    +0.000 A 
ATOM     17  C   UNL     1       1.829   3.279  19.581  0.00  0.00    +0.000 A 
ATOM     18  C   UNL     1       0.802   4.003  20.210  0.00  0.00    +0.000 A 
ATOM     19  C   UNL     1       1.023   5.294  20.685  0.00  0.00    +0.000 A 
ATOM     20  C   UNL     1       2.274   5.877  20.539  0.00  0.00    +0.000 A 
ATOM     21  C   UNL     1       3.306   5.174  19.907  0.00  0.00    +0.000 A 
ATOM     22  C   UNL     1       3.111   3.864  19.408  0.00  0.00    +0.000 A 
ENDBRANCH   7  13
TORSDOF 1
ENDMDL
MODEL 7
REMARK VINA RESULT:      -7.4      1.224      2.584
REMARK  Name = 
REMARK  2 active torsions:
REMARK  status: ('A' for Active; 'I' for Inactive)
REMARK    1  A    between atoms: C_1  and  N_2
REMARK    2  A    between atoms: N_7  and  C_8
REMARK                            x       y       z     vdW  Elec       q    Type
REMARK                         _______ _______ _______ _____ _____    ______ ____
ROOT
ATOM      1  C   UNL     1      -0.427  12.241  19.625  0.00  0.00    +0.000 C 
ATOM      2  N   UNL     1       0.135  11.036  20.183  0.00  0.00    +0.000 N 
ATOM      3  N   UNL     1      -0.030  10.739  21.492  0.00  0.00    +0.000 NA
ATOM      4  C   UNL     1       0.568   9.547  21.612  0.00  0.00    +0.000 A 
ATOM      5  C   UNL     1       1.115   9.078  20.397  0.00  0.00    +0.000 A 
ATOM      6  C   UNL     1       1.783   7.943  19.912  0.00  0.00    +0.000 A 
ATOM      7  N   UNL     1       2.098   6.829  20.709  0.00  0.00    +0.000 N 
ATOM      8  N   UNL     1       2.139   7.952  18.597  0.00  0.00    +0.000 NA
ATOM      9  C   UNL     1       1.823   9.010  17.828  0.00  0.00    +0.000 A 
ATOM     10  N   UNL     1       1.154  10.115  18.186  0.00  0.00    +0.000 NA
ATOM     11  C   UNL     1       0.830  10.084  19.490  0.00  0.00    +0.000 A 
ATOM     12  H   UNL     1       1.819   6.924  21.678  0.00  0.00    +0.000 HD
ENDROOT
BRANCH   7  13
ATOM     13  C   UNL     1       2.085   5.464  20.306  0.00  0.00    +0.000 A 
ATOM     14  C   UNL     1       0.945   4.670  20.518  0.00  0.00    +0.000 A 
ATOM     15  C   UNL     1       0.930   3.321  20.182  0.00  0.00    +0.000 A 
ATOM     16  C   UNL     1       2.059   2.735  19.620  0.00  0.00    +0.000 A 
ATOM     17  C   UNL     1       3.208   3.495  19.370  0.00  0.00    +0.000 A 
ATOM     18  C   UNL     1       4.328   2.891  18.774  0.00  0.00    +0.000 A 
ATOM     19  C   UNL     1       5.475   3.629  18.491  0.00  0.00    +0.000 A 
ATOM     20  C   UNL     1       5.516   4.982  18.798  0.00  0.00    +0.000 A 
ATOM     21  C   UNL     1       4.414   5.598  19.400  0.00  0.00    +0.000 A 
ATOM     22  C   UNL     1       3.237   4.875  19.706  0.00  0.00    +0.000 A 
ENDBRANCH   7  13
TORSDOF 1
ENDMDL
MODEL 8
REMARK VINA RESULT:      -7.4      3.914      7.000
REMARK  Name = 
REMARK  2 active torsions:
REMARK  status: ('A' for Active; 'I' for Inactive)
REMARK    1  A    between atoms: C_1  and  N_2
REMARK    2  A    between atoms: N_7  and  C_8
REMARK                            x       y       z     vdW  Elec       q    Type
REMARK                         _______ _______ _______ _____ _____    ______ ____
ROOT
ATOM      1  C   UNL     1       8.542   5.196  12.911  0.00  0.00    +0.000 C 
ATOM      2  N   UNL     1       7.274   4.837  13.497  0.00  0.00    +0.000 N 
ATOM      3  N   UNL     1       6.381   4.090  12.807  0.00  0.00    +0.000 NA
ATOM      4  C   UNL     1       5.383   3.923  13.684  0.00  0.00    +0.000 A 
ATOM      5  C   UNL     1       5.623   4.555  14.924  0.00  0.00    +0.000 A 
ATOM      6  C   UNL     1       5.002   4.689  16.175  0.00  0.00    +0.000 A 
ATOM      7  N   UNL     1       3.769   4.096  16.496  0.00  0.00    +0.000 N 
ATOM      8  N   UNL     1       5.648   5.445  17.107  0.00  0.00    +0.000 NA
ATOM      9  C   UNL     1       6.837   6.000  16.808  0.00  0.00    +0.000 A 
ATOM     10  N   UNL     1       7.527   5.896  15.662  0.00  0.00    +0.000 NA
ATOM     11  C   UNL     1       6.858   5.158  14.760  0.00  0.00    +0.000 A 
ATOM     12  H   UNL     1       3.351   3.576  15.734  0.00  0.00    +0.000 HD
ENDROOT
BRANCH   7  13
ATOM     13  C   UNL     1       3.391   3.548  17.755  0.00  0.00    +0.000 A 
ATOM     14  C   UNL     1       3.563   2.178  18.015  0.00  0.00    +0.000 A 
ATOM     15  C   UNL     1       3.150   1.612  19.216  0.00  0.00    +0.000 A 
ATOM     16  C   UNL     1       2.558   2.409  20.189  0.00  0.00    +0.000 A 
ATOM     17  C   UNL     1       2.389   3.784  19.980  0.00  0.00    +0.000 A 
ATOM     18  C   UNL     1       1.815   4.576  20.988  0.00  0.00    +0.000 A 
ATOM     19  C   UNL     1       1.658   5.950  20.817  0.00  0.00    +0.000 A 
ATOM     20  C   UNL     1       2.075   6.549  19.636  0.00  0.00    +0.000 A 
ATOM     21  C   UNL     1       2.641   5.773  18.619  0.00  0.00    +0.000 A 
ATOM     22  C   UNL     1       2.808   4.375  18.759  0.00  0.00    +0.000 A 
ENDBRANCH   7  13
TORSDOF 1
ENDMDL
MODEL 9
REMARK VINA RESULT:      -7.4      1.256      2.231
REMARK  Name = 
REMARK  2 active torsions:
REMARK  status: ('A' for Active; 'I' for Inactive)
REMARK    1  A    between atoms: C_1  and  N_2
REMARK    2  A    between atoms: N_7  and  C_8
REMARK                            x       y       z     vdW  Elec       q    Type
REMARK                         _______ _______ _______ _____ _____    ______ ____
ROOT
ATOM      1  C   UNL     1       0.398  12.196  21.070  0.00  0.00    +0.000 C 
ATOM      2  N   UNL     1       0.779  11.238  20.063  0.00  0.00    +0.000 N 
ATOM      3  N   UNL     1       0.907  11.610  18.768  0.00  0.00    +0.000 NA
ATOM      4  C   UNL     1       1.320  10.486  18.168  0.00  0.00    +0.000 A 
ATOM      5  C   UNL     1       1.455   9.399  19.060  0.00  0.00    +0.000 A 
ATOM      6  C   UNL     1       1.868   8.058  19.031  0.00  0.00    +0.000 A 
ATOM      7  N   UNL     1       2.319   7.411  17.869  0.00  0.00    +0.000 N 
ATOM      8  N   UNL     1       1.812   7.370  20.207  0.00  0.00    +0.000 NA
ATOM      9  C   UNL     1       1.397   7.993  21.325  0.00  0.00    +0.000 A 
ATOM     10  N   UNL     1       1.024   9.273  21.461  0.00  0.00    +0.000 NA
ATOM     11  C   UNL     1       1.075   9.921  20.285  0.00  0.00    +0.000 A 
ATOM     12  H   UNL     1       2.300   7.992  17.040  0.00  0.00    +0.000 HD
ENDROOT
BRANCH   7  13
ATOM     13  C   UNL     1       3.353   6.436  17.785  0.00  0.00    +0.000 A 
ATOM     14  C   UNL     1       4.693   6.832  17.628  0.00  0.00    +0.000 A 
ATOM     15  C   UNL     1       5.712   5.898  17.489  0.00  0.00    +0.000 A 
ATOM     16  C   UNL     1       5.413   4.540  17.508  0.00  0.00    +0.000 A 
ATOM     17  C   UNL     1       4.095   4.101  17.685  0.00  0.00    +0.000 A 
ATOM     18  C   UNL     1       3.818   2.725  17.730  0.00  0.00    +0.000 A 
ATOM     19  C   UNL     1       2.520   2.261  17.931  0.00  0.00    +0.000 A 
ATOM     20  C   UNL     1       1.482   3.168  18.091  0.00  0.00    +0.000 A 
ATOM     21  C   UNL     1       1.738   4.543  18.039  0.00  0.00    +0.000 A 
ATOM     22  C   UNL     1       3.044   5.045  17.831  0.00  0.00    +0.000 A 
ENDBRANCH   7  13
TORSDOF 1
ENDMDL
