MODEL 1
REMARK VINA RESULT:      -7.3      0.000      0.000
REMARK  Name = 
REMARK  8 active torsions:
REMARK  status: ('A' for Active; 'I' for Inactive)
REMARK    1  A    between atoms: C_1  and  C_2
REMARK    2  A    between atoms: C_2  and  C_4
REMARK    3  A    between atoms: C_7  and  N_8
REMARK    4  A    between atoms: C_9  and  C_11
REMARK    5  A    between atoms: C_11  and  S_12
REMARK    6  A    between atoms: S_12  and  C_13
REMARK    7  A    between atoms: C_13  and  N_15
REMARK    8  A    between atoms: N_15  and  C_16
REMARK                            x       y       z     vdW  Elec       q    Type
REMARK                         _______ _______ _______ _____ _____    ______ ____
ROOT
ATOM      1  N   UNL     1       2.803   5.587  20.248  0.00  0.00    +0.000 N 
ATOM      2  C   UNL     1       2.073   4.400  20.316  0.00  0.00    +0.000 C 
ATOM      3  O   UNL     1       0.851   4.314  20.219  0.00  0.00    +0.000 OA
ATOM      4  H   UNL     1       3.801   5.537  20.421  0.00  0.00    +0.000 HD
ENDROOT
BRANCH   1   8
ATOM      5  C   UNL     1       1.244   9.397  19.215  0.00  0.00    +0.000 A 
ATOM      6  C   UNL     1       1.076   8.902  20.507  0.00  0.00    +0.000 A 
ATOM      7  C   UNL     1       1.596   7.653  20.863  0.00  0.00    +0.000 A 
ATOM      8  C   UNL     1       2.298   6.873  19.941  0.00  0.00    +0.000 A 
ATOM      9  C   UNL     1       2.486   7.381  18.651  0.00  0.00    +0.000 A 
ATOM     10  C   UNL     1       1.962   8.636  18.285  0.00  0.00    +0.000 A 
BRANCH   5  12
ATOM     11  C   UNL     1      -0.834  10.877  18.812  0.00  0.00    +0.000 C 
ATOM     12  C   UNL     1       0.667  10.715  18.813  0.00  0.00    +0.000 C 
ATOM     13  O   UNL     1       1.412  11.636  18.491  0.00  0.00    +0.000 OA
ENDBRANCH   5  12
ENDBRANCH   1   8
BRANCH   2  14
ATOM     14  C   UNL     1       2.929   3.171  20.601  0.00  0.00    +0.000 C 
BRANCH  14  15
ATOM     15  S   UNL     1       4.519   3.249  19.696  0.00  0.00    +0.000 S 
BRANCH  15  16
ATOM     16  C   UNL     1       3.924   3.240  18.053  0.00  0.00    +0.000 C 
ATOM     17  S   UNL     1       2.672   2.281  17.517  0.00  0.00    +0.000 S 
BRANCH  16  18
ATOM     18  N   UNL     1       4.633   4.141  17.306  0.00  0.00    +0.000 N 
ATOM     19  H   UNL     1       4.298   5.102  17.328  0.00  0.00    +0.000 HD
BRANCH  18  20
ATOM     20  C   UNL     1       5.708   3.832  16.362  0.00  0.00    +0.000 C 
ATOM     21  C   UNL     1       5.481   4.509  15.026  0.00  0.00    +0.000 C 
ATOM     22  C   UNL     1       6.871   4.804  14.534  0.00  0.00    +0.000 C 
ATOM     23  O   UNL     1       7.683   4.958  15.696  0.00  0.00    +0.000 OA
ATOM     24  C   UNL     1       7.042   4.429  16.780  0.00  0.00    +0.000 C 
ATOM     25  O   UNL     1       7.491   4.450  17.915  0.00  0.00    +0.000 OA
ENDBRANCH  18  20
ENDBRANCH  16  18
ENDBRANCH  15  16
ENDBRANCH  14  15
ENDBRANCH   2  14
TORSDOF 7
ENDMDL
MODEL 2
REMARK VINA RESULT:      -7.1      1.150      1.598
REMARK  Name = 
REMARK  8 active torsions:
REMARK  status: ('A' for Active; 'I' for Inactive)
REMARK    1  A    between atoms: C_1  and  C_2
REMARK    2  A    between atoms: C_2  and  C_4
REMARK    3  A    between atoms: C_7  and  N_8
REMARK    4  A    between atoms: C_9  and  C_11
REMARK    5  A    between atoms: C_11  and  S_12
REMARK    6  A    between atoms: S_12  and  C_13
REMARK    7  A    between atoms: C_13  and  N_15
REMARK    8  A    between atoms: N_15  and  C_16
REMARK                            x       y       z     vdW  Elec       q    Type
REMARK                         _______ _______ _______ _____ _____    ______ ____
ROOT
ATOM      1  N   UNL     1       2.785   5.586  20.508  0.00  0.00    +0.000 N 
ATOM      2  C   UNL     1       2.105   4.368  20.490  0.00  0.00    +0.000 C 
ATOM      3  O   UNL     1       0.916   4.225  20.215  0.00  0.00    +0.000 OA
ATOM      4  H   UNL     1       3.747   5.584  20.828  0.00  0.00    +0.000 HD
ENDROOT
BRANCH   1   8
ATOM      5  C   UNL     1       1.220   9.304  19.186  0.00  0.00    +0.000 A 
ATOM      6  C   UNL     1       0.996   8.879  20.495  0.00  0.00    +0.000 A 
ATOM      7  C   UNL     1       1.516   7.661  20.945  0.00  0.00    +0.000 A 
ATOM      8  C   UNL     1       2.275   6.844  20.105  0.00  0.00    +0.000 A 
ATOM      9  C   UNL     1       2.521   7.283  18.799  0.00  0.00    +0.000 A 
ATOM     10  C   UNL     1       1.996   8.506  18.337  0.00  0.00    +0.000 A 
BRANCH   5  12
ATOM     11  C   UNL     1      -0.822  10.630  18.325  0.00  0.00    +0.000 C 
ATOM     12  C   UNL     1       0.644  10.586  18.683  0.00  0.00    +0.000 C 
ATOM     13  O   UNL     1       1.362  11.576  18.566  0.00  0.00    +0.000 OA
ENDBRANCH   5  12
ENDBRANCH   1   8
BRANCH   2  14
ATOM     14  C   UNL     1       2.962   3.184  20.923  0.00  0.00    +0.000 C 
BRANCH  14  15
ATOM     15  S   UNL     1       3.202   2.003  19.544  0.00  0.00    +0.000 S 
BRANCH  15  16
ATOM     16  C   UNL     1       3.749   3.106  18.303  0.00  0.00    +0.000 C 
ATOM     17  S   UNL     1       2.833   3.566  16.990  0.00  0.00    +0.000 S 
BRANCH  16  18
ATOM     18  N   UNL     1       5.018   3.528  18.595  0.00  0.00    +0.000 N 
ATOM     19  H   UNL     1       5.548   2.940  19.235  0.00  0.00    +0.000 HD
BRANCH  18  20
ATOM     20  C   UNL     1       5.618   4.806  18.213  0.00  0.00    +0.000 C 
ATOM     21  C   UNL     1       6.535   5.332  19.299  0.00  0.00    +0.000 C 
ATOM     22  C   UNL     1       7.607   6.062  18.537  0.00  0.00    +0.000 C 
ATOM     23  O   UNL     1       7.698   5.427  17.264  0.00  0.00    +0.000 OA
ATOM     24  C   UNL     1       6.579   4.675  17.043  0.00  0.00    +0.000 C 
ATOM     25  O   UNL     1       6.401   3.996  16.044  0.00  0.00    +0.000 OA
ENDBRANCH  18  20
ENDBRANCH  16  18
ENDBRANCH  15  16
ENDBRANCH  14  15
ENDBRANCH   2  14
TORSDOF 7
ENDMDL
MODEL 3
REMARK VINA RESULT:      -7.1      0.854      1.325
REMARK  Name = 
REMARK  8 active torsions:
REMARK  status: ('A' for Active; 'I' for Inactive)
REMARK    1  A    between atoms: C_1  and  C_2
REMARK    2  A    between atoms: C_2  and  C_4
REMARK    3  A    between atoms: C_7  and  N_8
REMARK    4  A    between atoms: C_9  and  C_11
REMARK    5  A    between atoms: C_11  and  S_12
REMARK    6  A    between atoms: S_12  and  C_13
REMARK    7  A    between atoms: C_13  and  N_15
REMARK    8  A    between atoms: N_15  and  C_16
REMARK                            x       y       z     vdW  Elec       q    Type
REMARK                         _______ _______ _______ _____ _____    ______ ____
ROOT
ATOM      1  N   UNL     1       2.801   6.365  19.972  0.00  0.00    +0.000 N 
ATOM      2  C   UNL     1       2.247   5.107  20.205  0.00  0.00    +0.000 C 
ATOM      3  O   UNL     1       1.050   4.879  20.361  0.00  0.00    +0.000 OA
ATOM      4  H   UNL     1       3.813   6.436  19.938  0.00  0.00    +0.000 HD
ENDROOT
BRANCH   1   8
ATOM      5  C   UNL     1       0.733  10.033  19.436  0.00  0.00    +0.000 A 
ATOM      6  C   UNL     1       1.379   9.433  18.357  0.00  0.00    +0.000 A 
ATOM      7  C   UNL     1       2.054   8.218  18.518  0.00  0.00    +0.000 A 
ATOM      8  C   UNL     1       2.095   7.573  19.756  0.00  0.00    +0.000 A 
ATOM      9  C   UNL     1       1.425   8.164  20.834  0.00  0.00    +0.000 A 
ATOM     10  C   UNL     1       0.748   9.389  20.679  0.00  0.00    +0.000 A 
BRANCH   5  12
ATOM     11  C   UNL     1      -1.107  11.448  18.304  0.00  0.00    +0.000 C 
ATOM     12  C   UNL     1       0.035  11.345  19.285  0.00  0.00    +0.000 C 
ATOM     13  O   UNL     1       0.397  12.311  19.952  0.00  0.00    +0.000 OA
ENDBRANCH   5  12
ENDBRANCH   1   8
BRANCH   2  14
ATOM     14  C   UNL     1       3.283   3.995  20.327  0.00  0.00    +0.000 C 
BRANCH  14  15
ATOM     15  S   UNL     1       4.739   4.329  19.269  0.00  0.00    +0.000 S 
BRANCH  15  16
ATOM     16  C   UNL     1       4.134   3.738  17.739  0.00  0.00    +0.000 C 
ATOM     17  S   UNL     1       3.034   2.495  17.586  0.00  0.00    +0.000 S 
BRANCH  16  18
ATOM     18  N   UNL     1       4.690   4.459  16.718  0.00  0.00    +0.000 N 
ATOM     19  H   UNL     1       4.198   5.309  16.451  0.00  0.00    +0.000 HD
BRANCH  18  20
ATOM     20  C   UNL     1       5.813   4.049  15.875  0.00  0.00    +0.000 C 
ATOM     21  C   UNL     1       5.539   4.333  14.412  0.00  0.00    +0.000 C 
ATOM     22  C   UNL     1       6.897   4.654  13.850  0.00  0.00    +0.000 C 
ATOM     23  O   UNL     1       7.660   5.191  14.928  0.00  0.00    +0.000 OA
ATOM     24  C   UNL     1       7.061   4.883  16.116  0.00  0.00    +0.000 C 
ATOM     25  O   UNL     1       7.480   5.243  17.205  0.00  0.00    +0.000 OA
ENDBRANCH  18  20
ENDBRANCH  16  18
ENDBRANCH  15  16
ENDBRANCH  14  15
ENDBRANCH   2  14
TORSDOF 7
ENDMDL
MODEL 4
REMARK VINA RESULT:      -7.0      1.303      2.040
REMARK  Name = 
REMARK  8 active torsions:
REMARK  status: ('A' for Active; 'I' for Inactive)
REMARK    1  A    between atoms: C_1  and  C_2
REMARK    2  A    between atoms: C_2  and  C_4
REMARK    3  A    between atoms: C_7  and  N_8
REMARK    4  A    between atoms: C_9  and  C_11
REMARK    5  A    between atoms: C_11  and  S_12
REMARK    6  A    between atoms: S_12  and  C_13
REMARK    7  A    between atoms: C_13  and  N_15
REMARK    8  A    between atoms: N_15  and  C_16
REMARK                            x       y       z     vdW  Elec       q    Type
REMARK                         _______ _______ _______ _____ _____    ______ ____
ROOT
ATOM      1  N   UNL     1       2.713   5.807  20.582  0.00  0.00    +0.000 N 
ATOM      2  C   UNL     1       2.097   4.556  20.573  0.00  0.00    +0.000 C 
ATOM      3  O   UNL     1       0.938   4.340  20.230  0.00  0.00    +0.000 OA
ATOM      4  H   UNL     1       3.652   5.868  20.961  0.00  0.00    +0.000 HD
ENDROOT
BRANCH   1   8
ATOM      5  C   UNL     1       1.118   9.501  19.229  0.00  0.00    +0.000 A 
ATOM      6  C   UNL     1       1.868   8.707  18.363  0.00  0.00    +0.000 A 
ATOM      7  C   UNL     1       2.389   7.482  18.794  0.00  0.00    +0.000 A 
ATOM      8  C   UNL     1       2.169   7.020  20.093  0.00  0.00    +0.000 A 
ATOM      9  C   UNL     1       1.396   7.807  20.955  0.00  0.00    +0.000 A 
ATOM     10  C   UNL     1       0.873   9.043  20.529  0.00  0.00    +0.000 A 
BRANCH   5  12
ATOM     11  C   UNL     1       1.515  12.013  18.777  0.00  0.00    +0.000 C 
ATOM     12  C   UNL     1       0.583  10.825  18.792  0.00  0.00    +0.000 C 
ATOM     13  O   UNL     1      -0.594  10.930  18.458  0.00  0.00    +0.000 OA
ENDBRANCH   5  12
ENDBRANCH   1   8
BRANCH   2  14
ATOM     14  C   UNL     1       2.982   3.436  21.110  0.00  0.00    +0.000 C 
BRANCH  14  15
ATOM     15  S   UNL     1       3.278   2.158  19.832  0.00  0.00    +0.000 S 
BRANCH  15  16
ATOM     16  C   UNL     1       3.823   3.176  18.519  0.00  0.00    +0.000 C 
ATOM     17  S   UNL     1       2.901   3.555  17.185  0.00  0.00    +0.000 S 
BRANCH  16  18
ATOM     18  N   UNL     1       5.096   3.609  18.775  0.00  0.00    +0.000 N 
ATOM     19  H   UNL     1       5.640   3.041  19.422  0.00  0.00    +0.000 HD
BRANCH  18  20
ATOM     20  C   UNL     1       5.686   4.877  18.345  0.00  0.00    +0.000 C 
ATOM     21  C   UNL     1       6.617   5.439  19.400  0.00  0.00    +0.000 C 
ATOM     22  C   UNL     1       7.675   6.148  18.601  0.00  0.00    +0.000 C 
ATOM     23  O   UNL     1       7.749   5.475  17.347  0.00  0.00    +0.000 OA
ATOM     24  C   UNL     1       6.630   4.713  17.165  0.00  0.00    +0.000 C 
ATOM     25  O   UNL     1       6.439   4.003  16.191  0.00  0.00    +0.000 OA
ENDBRANCH  18  20
ENDBRANCH  16  18
ENDBRANCH  15  16
ENDBRANCH  14  15
ENDBRANCH   2  14
TORSDOF 7
ENDMDL
MODEL 5
REMARK VINA RESULT:      -6.8      1.057      1.631
REMARK  Name = 
REMARK  8 active torsions:
REMARK  status: ('A' for Active; 'I' for Inactive)
REMARK    1  A    between atoms: C_1  and  C_2
REMARK    2  A    between atoms: C_2  and  C_4
REMARK    3  A    between atoms: C_7  and  N_8
REMARK    4  A    between atoms: C_9  and  C_11
REMARK    5  A    between atoms: C_11  and  S_12
REMARK    6  A    between atoms: S_12  and  C_13
REMARK    7  A    between atoms: C_13  and  N_15
REMARK    8  A    between atoms: N_15  and  C_16
REMARK                            x       y       z     vdW  Elec       q    Type
REMARK                         _______ _______ _______ _____ _____    ______ ____
ROOT
ATOM      1  N   UNL     1       2.695   5.616  20.281  0.00  0.00    +0.000 N 
ATOM      2  C   UNL     1       1.982   4.422  20.386  0.00  0.00    +0.000 C 
ATOM      3  O   UNL     1       0.761   4.317  20.299  0.00  0.00    +0.000 OA
ATOM      4  H   UNL     1       3.695   5.584  20.449  0.00  0.00    +0.000 HD
ENDROOT
BRANCH   1   8
ATOM      5  C   UNL     1       1.170   9.473  19.377  0.00  0.00    +0.000 A 
ATOM      6  C   UNL     1       1.796   8.720  18.385  0.00  0.00    +0.000 A 
ATOM      7  C   UNL     1       2.292   7.443  18.668  0.00  0.00    +0.000 A 
ATOM      8  C   UNL     1       2.170   6.886  19.943  0.00  0.00    +0.000 A 
ATOM      9  C   UNL     1       1.520   7.632  20.932  0.00  0.00    +0.000 A 
ATOM     10  C   UNL     1       1.022   8.920  20.655  0.00  0.00    +0.000 A 
BRANCH   5  12
ATOM     11  C   UNL     1      -0.803  11.032  18.791  0.00  0.00    +0.000 C 
ATOM     12  C   UNL     1       0.664  10.849  19.097  0.00  0.00    +0.000 C 
ATOM     13  O   UNL     1       1.438  11.802  19.118  0.00  0.00    +0.000 OA
ENDBRANCH   5  12
ENDBRANCH   1   8
BRANCH   2  14
ATOM     14  C   UNL     1       2.857   3.213  20.700  0.00  0.00    +0.000 C 
BRANCH  14  15
ATOM     15  S   UNL     1       4.455   3.305  19.812  0.00  0.00    +0.000 S 
BRANCH  15  16
ATOM     16  C   UNL     1       3.927   2.858  18.206  0.00  0.00    +0.000 C 
ATOM     17  S   UNL     1       2.531   2.007  17.884  0.00  0.00    +0.000 S 
BRANCH  16  18
ATOM     18  N   UNL     1       4.822   3.327  17.284  0.00  0.00    +0.000 N 
ATOM     19  H   UNL     1       5.768   2.959  17.352  0.00  0.00    +0.000 HD
BRANCH  18  20
ATOM     20  C   UNL     1       4.598   4.413  16.330  0.00  0.00    +0.000 C 
ATOM     21  C   UNL     1       4.718   5.768  16.997  0.00  0.00    +0.000 C 
ATOM     22  C   UNL     1       5.275   6.651  15.914  0.00  0.00    +0.000 C 
ATOM     23  O   UNL     1       6.032   5.803  15.055  0.00  0.00    +0.000 OA
ATOM     24  C   UNL     1       5.689   4.499  15.274  0.00  0.00    +0.000 C 
ATOM     25  O   UNL     1       6.203   3.553  14.699  0.00  0.00    +0.000 OA
ENDBRANCH  18  20
ENDBRANCH  16  18
ENDBRANCH  15  16
ENDBRANCH  14  15
ENDBRANCH   2  14
TORSDOF 7
ENDMDL
MODEL 6
REMARK VINA RESULT:      -6.7      2.361      3.172
REMARK  Name = 
REMARK  8 active torsions:
REMARK  status: ('A' for Active; 'I' for Inactive)
REMARK    1  A    between atoms: C_1  and  C_2
REMARK    2  A    between atoms: C_2  and  C_4
REMARK    3  A    between atoms: C_7  and  N_8
REMARK    4  A    between atoms: C_9  and  C_11
REMARK    5  A    between atoms: C_11  and  S_12
REMARK    6  A    between atoms: S_12  and  C_13
REMARK    7  A    between atoms: C_13  and  N_15
REMARK    8  A    between atoms: N_15  and  C_16
REMARK                            x       y       z     vdW  Elec       q    Type
REMARK                         _______ _______ _______ _____ _____    ______ ____
ROOT
ATOM      1  N   UNL     1       2.878   6.303  18.239  0.00  0.00    +0.000 N 
ATOM      2  C   UNL     1       3.972   5.487  18.526  0.00  0.00    +0.000 C 
ATOM      3  O   UNL     1       4.657   5.553  19.544  0.00  0.00    +0.000 OA
ATOM      4  H   UNL     1       2.441   6.203  17.329  0.00  0.00    +0.000 HD
ENDROOT
BRANCH   1   8
ATOM      5  C   UNL     1       1.033   9.208  20.724  0.00  0.00    +0.000 A 
ATOM      6  C   UNL     1       1.321   7.941  21.228  0.00  0.00    +0.000 A 
ATOM      7  C   UNL     1       1.940   6.979  20.423  0.00  0.00    +0.000 A 
ATOM      8  C   UNL     1       2.289   7.260  19.100  0.00  0.00    +0.000 A 
ATOM      9  C   UNL     1       2.022   8.541  18.602  0.00  0.00    +0.000 A 
ATOM     10  C   UNL     1       1.396   9.512  19.406  0.00  0.00    +0.000 A 
BRANCH   5  12
ATOM     11  C   UNL     1      -0.774   9.791  22.474  0.00  0.00    +0.000 C 
ATOM     12  C   UNL     1       0.345  10.234  21.563  0.00  0.00    +0.000 C 
ATOM     13  O   UNL     1       0.693  11.410  21.500  0.00  0.00    +0.000 OA
ENDBRANCH   5  12
ENDBRANCH   1   8
BRANCH   2  14
ATOM     14  C   UNL     1       4.315   4.509  17.407  0.00  0.00    +0.000 C 
BRANCH  14  15
ATOM     15  S   UNL     1       6.120   4.217  17.315  0.00  0.00    +0.000 S 
BRANCH  15  16
ATOM     16  C   UNL     1       6.624   5.714  16.566  0.00  0.00    +0.000 C 
ATOM     17  S   UNL     1       7.257   7.010  17.400  0.00  0.00    +0.000 S 
BRANCH  16  18
ATOM     18  N   UNL     1       6.428   5.637  15.214  0.00  0.00    +0.000 N 
ATOM     19  H   UNL     1       5.820   6.345  14.809  0.00  0.00    +0.000 HD
BRANCH  18  20
ATOM     20  C   UNL     1       6.868   4.554  14.334  0.00  0.00    +0.000 C 
ATOM     21  C   UNL     1       5.694   3.901  13.633  0.00  0.00    +0.000 C 
ATOM     22  C   UNL     1       6.258   3.488  12.301  0.00  0.00    +0.000 C 
ATOM     23  O   UNL     1       7.314   4.402  12.012  0.00  0.00    +0.000 OA
ATOM     24  C   UNL     1       7.685   5.054  13.154  0.00  0.00    +0.000 C 
ATOM     25  O   UNL     1       8.546   5.918  13.196  0.00  0.00    +0.000 OA
ENDBRANCH  18  20
ENDBRANCH  16  18
ENDBRANCH  15  16
ENDBRANCH  14  15
ENDBRANCH   2  14
TORSDOF 7
ENDMDL
MODEL 7
REMARK VINA RESULT:      -6.6      2.521      4.064
REMARK  Name = 
REMARK  8 active torsions:
REMARK  status: ('A' for Active; 'I' for Inactive)
REMARK    1  A    between atoms: C_1  and  C_2
REMARK    2  A    between atoms: C_2  and  C_4
REMARK    3  A    between atoms: C_7  and  N_8
REMARK    4  A    between atoms: C_9  and  C_11
REMARK    5  A    between atoms: C_11  and  S_12
REMARK    6  A    between atoms: S_12  and  C_13
REMARK    7  A    between atoms: C_13  and  N_15
REMARK    8  A    between atoms: N_15  and  C_16
REMARK                            x       y       z     vdW  Elec       q    Type
REMARK                         _______ _______ _______ _____ _____    ______ ____
ROOT
ATOM      1  N   UNL     1       3.452   6.706  17.138  0.00  0.00    +0.000 N 
ATOM      2  C   UNL     1       4.803   6.885  16.838  0.00  0.00    +0.000 C 
ATOM      3  O   UNL     1       5.515   7.780  17.286  0.00  0.00    +0.000 OA
ATOM      4  H   UNL     1       2.952   5.976  16.643  0.00  0.00    +0.000 HD
ENDROOT
BRANCH   1   8
ATOM      5  C   UNL     1       1.272   8.865  20.071  0.00  0.00    +0.000 A 
ATOM      6  C   UNL     1       1.389   9.370  18.777  0.00  0.00    +0.000 A 
ATOM      7  C   UNL     1       2.095   8.663  17.799  0.00  0.00    +0.000 A 
ATOM      8  C   UNL     1       2.694   7.434  18.086  0.00  0.00    +0.000 A 
ATOM      9  C   UNL     1       2.556   6.916  19.379  0.00  0.00    +0.000 A 
ATOM     10  C   UNL     1       1.850   7.625  20.370  0.00  0.00    +0.000 A 
BRANCH   5  12
ATOM     11  C   UNL     1      -0.325  10.787  20.724  0.00  0.00    +0.000 C 
ATOM     12  C   UNL     1       0.548   9.625  21.133  0.00  0.00    +0.000 C 
ATOM     13  O   UNL     1       0.672   9.301  22.311  0.00  0.00    +0.000 OA
ENDBRANCH   5  12
ENDBRANCH   1   8
BRANCH   2  14
ATOM     14  C   UNL     1       5.339   5.888  15.817  0.00  0.00    +0.000 C 
BRANCH  14  15
ATOM     15  S   UNL     1       6.918   5.151  16.377  0.00  0.00    +0.000 S 
BRANCH  15  16
ATOM     16  C   UNL     1       6.458   4.659  17.991  0.00  0.00    +0.000 C 
ATOM     17  S   UNL     1       7.014   5.385  19.384  0.00  0.00    +0.000 S 
BRANCH  16  18
ATOM     18  N   UNL     1       5.576   3.616  17.915  0.00  0.00    +0.000 N 
ATOM     19  H   UNL     1       5.833   2.858  17.287  0.00  0.00    +0.000 HD
BRANCH  18  20
ATOM     20  C   UNL     1       4.241   3.562  18.513  0.00  0.00    +0.000 C 
ATOM     21  C   UNL     1       3.186   3.227  17.479  0.00  0.00    +0.000 C 
ATOM     22  C   UNL     1       2.165   2.439  18.253  0.00  0.00    +0.000 C 
ATOM     23  O   UNL     1       2.871   1.805  19.316  0.00  0.00    +0.000 OA
ATOM     24  C   UNL     1       4.084   2.408  19.490  0.00  0.00    +0.000 C 
ATOM     25  O   UNL     1       4.912   2.050  20.312  0.00  0.00    +0.000 OA
ENDBRANCH  18  20
ENDBRANCH  16  18
ENDBRANCH  15  16
ENDBRANCH  14  15
ENDBRANCH   2  14
TORSDOF 7
ENDMDL
MODEL 8
REMARK VINA RESULT:      -6.6      1.643      2.365
REMARK  Name = 
REMARK  8 active torsions:
REMARK  status: ('A' for Active; 'I' for Inactive)
REMARK    1  A    between atoms: C_1  and  C_2
REMARK    2  A    between atoms: C_2  and  C_4
REMARK    3  A    between atoms: C_7  and  N_8
REMARK    4  A    between atoms: C_9  and  C_11
REMARK    5  A    between atoms: C_11  and  S_12
REMARK    6  A    between atoms: S_12  and  C_13
REMARK    7  A    between atoms: C_13  and  N_15
REMARK    8  A    between atoms: N_15  and  C_16
REMARK                            x       y       z     vdW  Elec       q    Type
REMARK                         _______ _______ _______ _____ _____    ______ ____
ROOT
ATOM      1  N   UNL     1       2.935   5.630  17.908  0.00  0.00    +0.000 N 
ATOM      2  C   UNL     1       2.229   4.468  17.599  0.00  0.00    +0.000 C 
ATOM      3  O   UNL     1       1.066   4.239  17.921  0.00  0.00    +0.000 OA
ATOM      4  H   UNL     1       3.916   5.668  17.653  0.00  0.00    +0.000 HD
ENDROOT
BRANCH   1   8
ATOM      5  C   UNL     1       1.300   9.120  19.688  0.00  0.00    +0.000 A 
ATOM      6  C   UNL     1       1.618   8.017  20.479  0.00  0.00    +0.000 A 
ATOM      7  C   UNL     1       2.168   6.866  19.906  0.00  0.00    +0.000 A 
ATOM      8  C   UNL     1       2.419   6.791  18.534  0.00  0.00    +0.000 A 
ATOM      9  C   UNL     1       2.122   7.907  17.744  0.00  0.00    +0.000 A 
ATOM     10  C   UNL     1       1.564   9.067  18.314  0.00  0.00    +0.000 A 
BRANCH   5  12
ATOM     11  C   UNL     1      -0.332  10.178  21.387  0.00  0.00    +0.000 C 
ATOM     12  C   UNL     1       0.684  10.343  20.282  0.00  0.00    +0.000 C 
ATOM     13  O   UNL     1       1.005  11.454  19.868  0.00  0.00    +0.000 OA
ENDBRANCH   5  12
ENDBRANCH   1   8
BRANCH   2  14
ATOM     14  C   UNL     1       3.061   3.426  16.859  0.00  0.00    +0.000 C 
BRANCH  14  15
ATOM     15  S   UNL     1       3.524   2.042  17.965  0.00  0.00    +0.000 S 
BRANCH  15  16
ATOM     16  C   UNL     1       4.208   2.945  19.297  0.00  0.00    +0.000 C 
ATOM     17  S   UNL     1       3.423   3.223  20.739  0.00  0.00    +0.000 S 
BRANCH  16  18
ATOM     18  N   UNL     1       5.470   3.359  18.967  0.00  0.00    +0.000 N 
ATOM     19  H   UNL     1       6.221   2.700  19.157  0.00  0.00    +0.000 HD
BRANCH  18  20
ATOM     20  C   UNL     1       5.857   4.700  18.528  0.00  0.00    +0.000 C 
ATOM     21  C   UNL     1       6.839   5.335  19.491  0.00  0.00    +0.000 C 
ATOM     22  C   UNL     1       7.707   6.187  18.606  0.00  0.00    +0.000 C 
ATOM     23  O   UNL     1       7.704   5.566  17.324  0.00  0.00    +0.000 OA
ATOM     24  C   UNL     1       6.664   4.684  17.240  0.00  0.00    +0.000 C 
ATOM     25  O   UNL     1       6.439   3.986  16.264  0.00  0.00    +0.000 OA
ENDBRANCH  18  20
ENDBRANCH  16  18
ENDBRANCH  15  16
ENDBRANCH  14  15
ENDBRANCH   2  14
TORSDOF 7
ENDMDL
MODEL 9
REMARK VINA RESULT:      -6.6      2.190      6.430
REMARK  Name = 
REMARK  8 active torsions:
REMARK  status: ('A' for Active; 'I' for Inactive)
REMARK    1  A    between atoms: C_1  and  C_2
REMARK    2  A    between atoms: C_2  and  C_4
REMARK    3  A    between atoms: C_7  and  N_8
REMARK    4  A    between atoms: C_9  and  C_11
REMARK    5  A    between atoms: C_11  and  S_12
REMARK    6  A    between atoms: S_12  and  C_13
REMARK    7  A    between atoms: C_13  and  N_15
REMARK    8  A    between atoms: N_15  and  C_16
REMARK                            x       y       z     vdW  Elec       q    Type
REMARK                         _______ _______ _______ _____ _____    ______ ____
ROOT
ATOM      1  N   UNL     1       4.714   3.827  19.221  0.00  0.00    +0.000 N 
ATOM      2  C   UNL     1       4.078   2.663  19.653  0.00  0.00    +0.000 C 
ATOM      3  O   UNL     1       3.883   1.666  18.963  0.00  0.00    +0.000 OA
ATOM      4  H   UNL     1       4.746   4.613  19.862  0.00  0.00    +0.000 HD
ENDROOT
BRANCH   1   8
ATOM      5  C   UNL     1       6.509   4.503  15.434  0.00  0.00    +0.000 A 
ATOM      6  C   UNL     1       7.267   4.627  16.597  0.00  0.00    +0.000 A 
ATOM      7  C   UNL     1       6.690   4.396  17.850  0.00  0.00    +0.000 A 
ATOM      8  C   UNL     1       5.348   4.030  17.971  0.00  0.00    +0.000 A 
ATOM      9  C   UNL     1       4.593   3.881  16.802  0.00  0.00    +0.000 A 
ATOM     10  C   UNL     1       5.167   4.117  15.537  0.00  0.00    +0.000 A 
BRANCH   5  12
ATOM     11  C   UNL     1       6.608   3.987  12.905  0.00  0.00    +0.000 C 
ATOM     12  C   UNL     1       7.104   4.777  14.092  0.00  0.00    +0.000 C 
ATOM     13  O   UNL     1       7.979   5.631  13.973  0.00  0.00    +0.000 OA
ENDBRANCH   5  12
ENDBRANCH   1   8
BRANCH   2  14
ATOM     14  C   UNL     1       3.558   2.746  21.084  0.00  0.00    +0.000 C 
BRANCH  14  15
ATOM     15  S   UNL     1       1.731   2.851  21.118  0.00  0.00    +0.000 S 
BRANCH  15  16
ATOM     16  C   UNL     1       1.483   4.084  19.904  0.00  0.00    +0.000 C 
ATOM     17  S   UNL     1       1.119   3.767  18.309  0.00  0.00    +0.000 S 
BRANCH  16  18
ATOM     18  N   UNL     1       1.622   5.320  20.474  0.00  0.00    +0.000 N 
ATOM     19  H   UNL     1       1.033   5.508  21.282  0.00  0.00    +0.000 HD
BRANCH  18  20
ATOM     20  C   UNL     1       2.400   6.440  19.943  0.00  0.00    +0.000 C 
ATOM     21  C   UNL     1       2.384   6.453  18.428  0.00  0.00    +0.000 C 
ATOM     22  C   UNL     1       2.445   7.917  18.083  0.00  0.00    +0.000 C 
ATOM     23  O   UNL     1       1.842   8.610  19.173  0.00  0.00    +0.000 OA
ATOM     24  C   UNL     1       1.777   7.789  20.263  0.00  0.00    +0.000 C 
ATOM     25  O   UNL     1       1.279   8.111  21.330  0.00  0.00    +0.000 OA
ENDBRANCH  18  20
ENDBRANCH  16  18
ENDBRANCH  15  16
ENDBRANCH  14  15
ENDBRANCH   2  14
TORSDOF 7
ENDMDL
