MODEL 1
REMARK VINA RESULT:      -8.9      0.000      0.000
REMARK  Name = 
REMARK  5 active torsions:
REMARK  status: ('A' for Active; 'I' for Inactive)
REMARK    1  A    between atoms: C_1  and  N_2
REMARK    2  A    between atoms: N_8  and  C_9
REMARK    3  A    between atoms: C_9  and  C_10
REMARK    4  A    between atoms: C_12  and  C_13
REMARK    5  A    between atoms: C_16  and  C_17
REMARK                            x       y       z     vdW  Elec       q    Type
REMARK                         _______ _______ _______ _____ _____    ______ ____
ROOT
ATOM      1  C   UNL     1       7.628   6.562  17.846  0.00  0.00    +0.000 A 
ATOM      2  N   UNL     1       8.299   7.413  18.601  0.00  0.00    +0.000 NA
ATOM      3  C   UNL     1       7.972   8.623  18.027  0.00  0.00    +0.000 A 
ATOM      4  N   UNL     1       7.143   8.533  16.979  0.00  0.00    +0.000 NA
ATOM      5  O   UNL     1       6.908   7.170  16.861  0.00  0.00    +0.000 OA
ENDROOT
BRANCH   3   6
ATOM      6  C   UNL     1       8.492   9.987  18.463  0.00  0.00    +0.000 C 
ATOM      7  C   UNL     1       9.552  10.089  19.541  0.00  0.00    +0.000 C 
ATOM      8  C   UNL     1       9.712  11.367  20.266  0.00  0.00    +0.000 C 
ATOM      9  C   UNL     1      10.118  12.395  19.491  0.00  0.00    +0.000 C 
ATOM     10  C   UNL     1      10.307  11.875  18.074  0.00  0.00    +0.000 C 
ATOM     11  C   UNL     1       9.914  10.406  18.121  0.00  0.00    +0.000 C 
BRANCH   9  12
ATOM     12  C   UNL     1      10.331  13.806  19.870  0.00  0.00    +0.000 A 
ATOM     13  C   UNL     1      10.279  14.225  21.210  0.00  0.00    +0.000 A 
ATOM     14  C   UNL     1      10.473  15.567  21.564  0.00  0.00    +0.000 A 
ATOM     15  C   UNL     1      10.722  16.520  20.582  0.00  0.00    +0.000 A 
ATOM     16  C   UNL     1      10.774  16.132  19.249  0.00  0.00    +0.000 A 
ATOM     17  C   UNL     1      10.580  14.788  18.898  0.00  0.00    +0.000 A 
ENDBRANCH   9  12
ENDBRANCH   3   6
BRANCH   1  18
ATOM     18  C   UNL     1       7.603   5.073  17.833  0.00  0.00    +0.000 C 
BRANCH  18  26
ATOM     19  C   UNL     1       2.812   3.905  20.524  0.00  0.00    +0.000 C 
ATOM     20  N   UNL     1       2.973   3.769  19.098  0.00  0.00    +0.000 N 
ATOM     21  C   UNL     1       2.002   3.362  18.224  0.00  0.00    +0.000 A 
ATOM     22  N   UNL     1       2.446   3.335  16.985  0.00  0.00    +0.000 NA
ATOM     23  C   UNL     1       3.745   3.732  17.072  0.00  0.00    +0.000 A 
ATOM     24  N   UNL     1       4.636   3.857  16.008  0.00  0.00    +0.000 NA
ATOM     25  C   UNL     1       5.817   4.253  16.361  0.00  0.00    +0.000 A 
ATOM     26  N   UNL     1       6.254   4.561  17.640  0.00  0.00    +0.000 N 
ATOM     27  C   UNL     1       5.401   4.462  18.733  0.00  0.00    +0.000 A 
ATOM     28  O   UNL     1       5.725   4.753  19.881  0.00  0.00    +0.000 OA
ATOM     29  C   UNL     1       4.100   4.012  18.366  0.00  0.00    +0.000 A 
ENDBRANCH  18  26
ENDBRANCH   1  18
TORSDOF 4
ENDMDL
MODEL 2
REMARK VINA RESULT:      -8.7      1.431      1.991
REMARK  Name = 
REMARK  5 active torsions:
REMARK  status: ('A' for Active; 'I' for Inactive)
REMARK    1  A    between atoms: C_1  and  N_2
REMARK    2  A    between atoms: N_8  and  C_9
REMARK    3  A    between atoms: C_9  and  C_10
REMARK    4  A    between atoms: C_12  and  C_13
REMARK    5  A    between atoms: C_16  and  C_17
REMARK                            x       y       z     vdW  Elec       q    Type
REMARK                         _______ _______ _______ _____ _____    ______ ____
ROOT
ATOM      1  C   UNL     1       7.248   7.112  17.390  0.00  0.00    +0.000 A 
ATOM      2  N   UNL     1       7.360   8.391  17.079  0.00  0.00    +0.000 NA
ATOM      3  C   UNL     1       8.194   8.855  18.073  0.00  0.00    +0.000 A 
ATOM      4  N   UNL     1       8.583   7.920  18.950  0.00  0.00    +0.000 NA
ATOM      5  O   UNL     1       7.964   6.764  18.497  0.00  0.00    +0.000 OA
ENDROOT
BRANCH   3   6
ATOM      6  C   UNL     1       8.656  10.296  18.252  0.00  0.00    +0.000 C 
ATOM      7  C   UNL     1       9.651  10.645  19.341  0.00  0.00    +0.000 C 
ATOM      8  C   UNL     1       9.740  12.046  19.803  0.00  0.00    +0.000 C 
ATOM      9  C   UNL     1      10.164  12.914  18.860  0.00  0.00    +0.000 C 
ATOM     10  C   UNL     1      10.445  12.130  17.586  0.00  0.00    +0.000 C 
ATOM     11  C   UNL     1      10.085  10.687  17.906  0.00  0.00    +0.000 C 
BRANCH   9  12
ATOM     12  C   UNL     1      10.322  14.379  18.960  0.00  0.00    +0.000 A 
ATOM     13  C   UNL     1       9.635  15.255  18.103  0.00  0.00    +0.000 A 
ATOM     14  C   UNL     1       9.795  16.644  18.197  0.00  0.00    +0.000 A 
ATOM     15  C   UNL     1      10.648  17.186  19.152  0.00  0.00    +0.000 A 
ATOM     16  C   UNL     1      11.342  16.341  20.009  0.00  0.00    +0.000 A 
ATOM     17  C   UNL     1      11.179  14.952  19.914  0.00  0.00    +0.000 A 
ENDBRANCH   9  12
ENDBRANCH   3   6
BRANCH   1  18
ATOM     18  C   UNL     1       6.410   6.031  16.801  0.00  0.00    +0.000 C 
BRANCH  18  26
ATOM     19  C   UNL     1       3.955   2.530  20.444  0.00  0.00    +0.000 C 
ATOM     20  N   UNL     1       3.356   3.766  20.007  0.00  0.00    +0.000 N 
ATOM     21  C   UNL     1       2.145   4.253  20.420  0.00  0.00    +0.000 A 
ATOM     22  N   UNL     1       1.865   5.403  19.845  0.00  0.00    +0.000 NA
ATOM     23  C   UNL     1       2.928   5.656  19.034  0.00  0.00    +0.000 A 
ATOM     24  N   UNL     1       3.084   6.771  18.214  0.00  0.00    +0.000 NA
ATOM     25  C   UNL     1       4.191   6.773  17.541  0.00  0.00    +0.000 A 
ATOM     26  N   UNL     1       5.193   5.817  17.569  0.00  0.00    +0.000 N 
ATOM     27  C   UNL     1       5.090   4.691  18.379  0.00  0.00    +0.000 A 
ATOM     28  O   UNL     1       5.960   3.830  18.467  0.00  0.00    +0.000 OA
ATOM     29  C   UNL     1       3.870   4.664  19.115  0.00  0.00    +0.000 A 
ENDBRANCH  18  26
ENDBRANCH   1  18
TORSDOF 4
ENDMDL
MODEL 3
REMARK VINA RESULT:      -8.7      1.811      2.508
REMARK  Name = 
REMARK  5 active torsions:
REMARK  status: ('A' for Active; 'I' for Inactive)
REMARK    1  A    between atoms: C_1  and  N_2
REMARK    2  A    between atoms: N_8  and  C_9
REMARK    3  A    between atoms: C_9  and  C_10
REMARK    4  A    between atoms: C_12  and  C_13
REMARK    5  A    between atoms: C_16  and  C_17
REMARK                            x       y       z     vdW  Elec       q    Type
REMARK                         _______ _______ _______ _____ _____    ______ ____
ROOT
ATOM      1  C   UNL     1       6.816   6.253  17.415  0.00  0.00    +0.000 A 
ATOM      2  N   UNL     1       7.071   7.445  16.906  0.00  0.00    +0.000 NA
ATOM      3  C   UNL     1       8.015   7.935  17.783  0.00  0.00    +0.000 A 
ATOM      4  N   UNL     1       8.332   7.097  18.779  0.00  0.00    +0.000 NA
ATOM      5  O   UNL     1       7.546   5.980  18.534  0.00  0.00    +0.000 OA
ENDROOT
BRANCH   3   6
ATOM      6  C   UNL     1       8.665   9.311  17.720  0.00  0.00    +0.000 C 
ATOM      7  C   UNL     1       7.882  10.542  18.133  0.00  0.00    +0.000 C 
ATOM      8  C   UNL     1       8.327  11.866  17.650  0.00  0.00    +0.000 C 
ATOM      9  C   UNL     1       9.541  12.241  18.106  0.00  0.00    +0.000 C 
ATOM     10  C   UNL     1      10.063  11.144  19.023  0.00  0.00    +0.000 C 
ATOM     11  C   UNL     1       9.000  10.056  19.004  0.00  0.00    +0.000 C 
BRANCH   9  12
ATOM     12  C   UNL     1      10.305  13.464  17.792  0.00  0.00    +0.000 A 
ATOM     13  C   UNL     1       9.764  14.744  17.996  0.00  0.00    +0.000 A 
ATOM     14  C   UNL     1      10.490  15.903  17.688  0.00  0.00    +0.000 A 
ATOM     15  C   UNL     1      11.776  15.804  17.167  0.00  0.00    +0.000 A 
ATOM     16  C   UNL     1      12.333  14.549  16.953  0.00  0.00    +0.000 A 
ATOM     17  C   UNL     1      11.604  13.392  17.263  0.00  0.00    +0.000 A 
ENDBRANCH   9  12
ENDBRANCH   3   6
BRANCH   1  18
ATOM     18  C   UNL     1       5.816   5.218  17.033  0.00  0.00    +0.000 C 
BRANCH  18  26
ATOM     19  C   UNL     1       3.188   2.472  21.170  0.00  0.00    +0.000 C 
ATOM     20  N   UNL     1       2.738   3.738  20.648  0.00  0.00    +0.000 N 
ATOM     21  C   UNL     1       1.645   4.435  21.088  0.00  0.00    +0.000 A 
ATOM     22  N   UNL     1       1.485   5.557  20.417  0.00  0.00    +0.000 NA
ATOM     23  C   UNL     1       2.505   5.574  19.517  0.00  0.00    +0.000 A 
ATOM     24  N   UNL     1       2.751   6.573  18.578  0.00  0.00    +0.000 NA
ATOM     25  C   UNL     1       3.790   6.348  17.837  0.00  0.00    +0.000 A 
ATOM     26  N   UNL     1       4.646   5.259  17.898  0.00  0.00    +0.000 N 
ATOM     27  C   UNL     1       4.449   4.241  18.824  0.00  0.00    +0.000 A 
ATOM     28  O   UNL     1       5.193   3.272  18.942  0.00  0.00    +0.000 OA
ATOM     29  C   UNL     1       3.301   4.464  19.637  0.00  0.00    +0.000 A 
ENDBRANCH  18  26
ENDBRANCH   1  18
TORSDOF 4
ENDMDL
MODEL 4
REMARK VINA RESULT:      -8.6      6.558      9.785
REMARK  Name = 
REMARK  5 active torsions:
REMARK  status: ('A' for Active; 'I' for Inactive)
REMARK    1  A    between atoms: C_1  and  N_2
REMARK    2  A    between atoms: N_8  and  C_9
REMARK    3  A    between atoms: C_9  and  C_10
REMARK    4  A    between atoms: C_12  and  C_13
REMARK    5  A    between atoms: C_16  and  C_17
REMARK                            x       y       z     vdW  Elec       q    Type
REMARK                         _______ _______ _______ _____ _____    ______ ____
ROOT
ATOM      1  C   UNL     1       1.743   7.578  20.558  0.00  0.00    +0.000 A 
ATOM      2  N   UNL     1       2.495   7.717  19.482  0.00  0.00    +0.000 NA
ATOM      3  C   UNL     1       2.581   6.420  19.024  0.00  0.00    +0.000 A 
ATOM      4  N   UNL     1       1.918   5.525  19.768  0.00  0.00    +0.000 NA
ATOM      5  O   UNL     1       1.356   6.290  20.781  0.00  0.00    +0.000 OA
ENDROOT
BRANCH   3   6
ATOM      6  C   UNL     1       3.368   5.952  17.806  0.00  0.00    +0.000 C 
ATOM      7  C   UNL     1       4.666   6.639  17.430  0.00  0.00    +0.000 C 
ATOM      8  C   UNL     1       5.168   6.506  16.046  0.00  0.00    +0.000 C 
ATOM      9  C   UNL     1       5.503   5.244  15.699  0.00  0.00    +0.000 C 
ATOM     10  C   UNL     1       5.265   4.342  16.900  0.00  0.00    +0.000 C 
ATOM     11  C   UNL     1       4.705   5.248  17.987  0.00  0.00    +0.000 C 
BRANCH   9  12
ATOM     12  C   UNL     1       5.988   4.747  14.396  0.00  0.00    +0.000 A 
ATOM     13  C   UNL     1       5.267   3.796  13.655  0.00  0.00    +0.000 A 
ATOM     14  C   UNL     1       5.736   3.321  12.423  0.00  0.00    +0.000 A 
ATOM     15  C   UNL     1       6.941   3.787  11.907  0.00  0.00    +0.000 A 
ATOM     16  C   UNL     1       7.676   4.724  12.623  0.00  0.00    +0.000 A 
ATOM     17  C   UNL     1       7.202   5.199  13.854  0.00  0.00    +0.000 A 
ENDBRANCH   9  12
ENDBRANCH   3   6
BRANCH   1  18
ATOM     18  C   UNL     1       1.334   8.560  21.601  0.00  0.00    +0.000 C 
BRANCH  18  26
ATOM     19  C   UNL     1      -2.087  12.763  23.081  0.00  0.00    +0.000 C 
ATOM     20  N   UNL     1      -1.838  12.389  21.711  0.00  0.00    +0.000 N 
ATOM     21  C   UNL     1      -2.374  13.001  20.610  0.00  0.00    +0.000 A 
ATOM     22  N   UNL     1      -1.962  12.436  19.495  0.00  0.00    +0.000 NA
ATOM     23  C   UNL     1      -1.141  11.428  19.897  0.00  0.00    +0.000 A 
ATOM     24  N   UNL     1      -0.465  10.541  19.061  0.00  0.00    +0.000 NA
ATOM     25  C   UNL     1       0.254   9.671  19.697  0.00  0.00    +0.000 A 
ATOM     26  N   UNL     1       0.414   9.554  21.069  0.00  0.00    +0.000 N 
ATOM     27  C   UNL     1      -0.231  10.421  21.944  0.00  0.00    +0.000 A 
ATOM     28  O   UNL     1      -0.100  10.383  23.164  0.00  0.00    +0.000 OA
ATOM     29  C   UNL     1      -1.040  11.375  21.262  0.00  0.00    +0.000 A 
ENDBRANCH  18  26
ENDBRANCH   1  18
TORSDOF 4
ENDMDL
MODEL 5
REMARK VINA RESULT:      -8.4      1.363      1.817
REMARK  Name = 
REMARK  5 active torsions:
REMARK  status: ('A' for Active; 'I' for Inactive)
REMARK    1  A    between atoms: C_1  and  N_2
REMARK    2  A    between atoms: N_8  and  C_9
REMARK    3  A    between atoms: C_9  and  C_10
REMARK    4  A    between atoms: C_12  and  C_13
REMARK    5  A    between atoms: C_16  and  C_17
REMARK                            x       y       z     vdW  Elec       q    Type
REMARK                         _______ _______ _______ _____ _____    ______ ____
ROOT
ATOM      1  C   UNL     1       6.805   7.076  17.004  0.00  0.00    +0.000 A 
ATOM      2  N   UNL     1       6.921   8.392  17.011  0.00  0.00    +0.000 NA
ATOM      3  C   UNL     1       7.872   8.590  17.988  0.00  0.00    +0.000 A 
ATOM      4  N   UNL     1       8.326   7.465  18.556  0.00  0.00    +0.000 NA
ATOM      5  O   UNL     1       7.627   6.461  17.902  0.00  0.00    +0.000 OA
ENDROOT
BRANCH   3   6
ATOM      6  C   UNL     1       8.393   9.940  18.467  0.00  0.00    +0.000 C 
ATOM      7  C   UNL     1       9.600  10.008  19.382  0.00  0.00    +0.000 C 
ATOM      8  C   UNL     1       9.814  11.225  20.191  0.00  0.00    +0.000 C 
ATOM      9  C   UNL     1      10.053  12.338  19.464  0.00  0.00    +0.000 C 
ATOM     10  C   UNL     1      10.047  11.952  17.992  0.00  0.00    +0.000 C 
ATOM     11  C   UNL     1       9.728  10.465  17.960  0.00  0.00    +0.000 C 
BRANCH   9  12
ATOM     12  C   UNL     1      10.260  13.720  19.938  0.00  0.00    +0.000 A 
ATOM     13  C   UNL     1      10.033  14.083  21.276  0.00  0.00    +0.000 A 
ATOM     14  C   UNL     1      10.224  15.400  21.718  0.00  0.00    +0.000 A 
ATOM     15  C   UNL     1      10.646  16.382  20.829  0.00  0.00    +0.000 A 
ATOM     16  C   UNL     1      10.873  16.050  19.499  0.00  0.00    +0.000 A 
ATOM     17  C   UNL     1      10.683  14.732  19.060  0.00  0.00    +0.000 A 
ENDBRANCH   9  12
ENDBRANCH   3   6
BRANCH   1  18
ATOM     18  C   UNL     1       5.877   6.178  16.263  0.00  0.00    +0.000 C 
BRANCH  18  26
ATOM     19  C   UNL     1       3.213   1.671  18.299  0.00  0.00    +0.000 C 
ATOM     20  N   UNL     1       2.848   3.025  18.633  0.00  0.00    +0.000 N 
ATOM     21  C   UNL     1       1.839   3.390  19.482  0.00  0.00    +0.000 A 
ATOM     22  N   UNL     1       1.744   4.698  19.588  0.00  0.00    +0.000 NA
ATOM     23  C   UNL     1       2.722   5.185  18.775  0.00  0.00    +0.000 A 
ATOM     24  N   UNL     1       3.010   6.530  18.557  0.00  0.00    +0.000 NA
ATOM     25  C   UNL     1       3.991   6.727  17.735  0.00  0.00    +0.000 A 
ATOM     26  N   UNL     1       4.755   5.765  17.092  0.00  0.00    +0.000 N 
ATOM     27  C   UNL     1       4.513   4.409  17.284  0.00  0.00    +0.000 A 
ATOM     28  O   UNL     1       5.177   3.517  16.766  0.00  0.00    +0.000 OA
ATOM     29  C   UNL     1       3.425   4.174  18.173  0.00  0.00    +0.000 A 
ENDBRANCH  18  26
ENDBRANCH   1  18
TORSDOF 4
ENDMDL
MODEL 6
REMARK VINA RESULT:      -8.4      1.811      2.828
REMARK  Name = 
REMARK  5 active torsions:
REMARK  status: ('A' for Active; 'I' for Inactive)
REMARK    1  A    between atoms: C_1  and  N_2
REMARK    2  A    between atoms: N_8  and  C_9
REMARK    3  A    between atoms: C_9  and  C_10
REMARK    4  A    between atoms: C_12  and  C_13
REMARK    5  A    between atoms: C_16  and  C_17
REMARK                            x       y       z     vdW  Elec       q    Type
REMARK                         _______ _______ _______ _____ _____    ______ ____
ROOT
ATOM      1  C   UNL     1       6.147   6.052  16.986  0.00  0.00    +0.000 A 
ATOM      2  N   UNL     1       6.457   7.275  16.594  0.00  0.00    +0.000 NA
ATOM      3  C   UNL     1       7.533   7.570  17.403  0.00  0.00    +0.000 A 
ATOM      4  N   UNL     1       7.877   6.588  18.247  0.00  0.00    +0.000 NA
ATOM      5  O   UNL     1       6.966   5.580  17.969  0.00  0.00    +0.000 OA
ENDROOT
BRANCH   3   6
ATOM      6  C   UNL     1       8.301   8.886  17.425  0.00  0.00    +0.000 C 
ATOM      7  C   UNL     1       7.629  10.150  17.923  0.00  0.00    +0.000 C 
ATOM      8  C   UNL     1       8.187  11.459  17.525  0.00  0.00    +0.000 C 
ATOM      9  C   UNL     1       9.430  11.696  17.995  0.00  0.00    +0.000 C 
ATOM     10  C   UNL     1       9.856  10.501  18.834  0.00  0.00    +0.000 C 
ATOM     11  C   UNL     1       8.702   9.512  18.752  0.00  0.00    +0.000 C 
BRANCH   9  12
ATOM     12  C   UNL     1      10.297  12.867  17.756  0.00  0.00    +0.000 A 
ATOM     13  C   UNL     1       9.942  14.151  18.202  0.00  0.00    +0.000 A 
ATOM     14  C   UNL     1      10.765  15.261  17.964  0.00  0.00    +0.000 A 
ATOM     15  C   UNL     1      11.962  15.108  17.273  0.00  0.00    +0.000 A 
ATOM     16  C   UNL     1      12.333  13.849  16.817  0.00  0.00    +0.000 A 
ATOM     17  C   UNL     1      11.509  12.741  17.057  0.00  0.00    +0.000 A 
ENDBRANCH   9  12
ENDBRANCH   3   6
BRANCH   1  18
ATOM     18  C   UNL     1       5.017   5.159  16.608  0.00  0.00    +0.000 C 
BRANCH  18  26
ATOM     19  C   UNL     1       1.258   1.794  19.079  0.00  0.00    +0.000 C 
ATOM     20  N   UNL     1       1.510   3.148  19.505  0.00  0.00    +0.000 N 
ATOM     21  C   UNL     1       0.894   3.780  20.552  0.00  0.00    +0.000 A 
ATOM     22  N   UNL     1       1.330   5.013  20.696  0.00  0.00    +0.000 NA
ATOM     23  C   UNL     1       2.249   5.176  19.706  0.00  0.00    +0.000 A 
ATOM     24  N   UNL     1       2.985   6.332  19.456  0.00  0.00    +0.000 NA
ATOM     25  C   UNL     1       3.796   6.227  18.451  0.00  0.00    +0.000 A 
ATOM     26  N   UNL     1       3.997   5.117  17.646  0.00  0.00    +0.000 N 
ATOM     27  C   UNL     1       3.295   3.936  17.862  0.00  0.00    +0.000 A 
ATOM     28  O   UNL     1       3.457   2.915  17.201  0.00  0.00    +0.000 OA
ATOM     29  C   UNL     1       2.386   4.039  18.954  0.00  0.00    +0.000 A 
ENDBRANCH  18  26
ENDBRANCH   1  18
TORSDOF 4
ENDMDL
MODEL 7
REMARK VINA RESULT:      -8.3      6.044      9.731
REMARK  Name = 
REMARK  5 active torsions:
REMARK  status: ('A' for Active; 'I' for Inactive)
REMARK    1  A    between atoms: C_1  and  N_2
REMARK    2  A    between atoms: N_8  and  C_9
REMARK    3  A    between atoms: C_9  and  C_10
REMARK    4  A    between atoms: C_12  and  C_13
REMARK    5  A    between atoms: C_16  and  C_17
REMARK                            x       y       z     vdW  Elec       q    Type
REMARK                         _______ _______ _______ _____ _____    ______ ____
ROOT
ATOM      1  C   UNL     1       1.599   7.726  20.329  0.00  0.00    +0.000 A 
ATOM      2  N   UNL     1       2.238   7.827  19.177  0.00  0.00    +0.000 NA
ATOM      3  C   UNL     1       2.592   6.518  18.931  0.00  0.00    +0.000 A 
ATOM      4  N   UNL     1       2.194   5.651  19.871  0.00  0.00    +0.000 NA
ATOM      5  O   UNL     1       1.531   6.447  20.795  0.00  0.00    +0.000 OA
ENDROOT
BRANCH   3   6
ATOM      6  C   UNL     1       3.395   6.019  17.737  0.00  0.00    +0.000 C 
ATOM      7  C   UNL     1       4.690   6.706  17.350  0.00  0.00    +0.000 C 
ATOM      8  C   UNL     1       5.207   6.532  15.976  0.00  0.00    +0.000 C 
ATOM      9  C   UNL     1       5.556   5.264  15.673  0.00  0.00    +0.000 C 
ATOM     10  C   UNL     1       5.316   4.399  16.902  0.00  0.00    +0.000 C 
ATOM     11  C   UNL     1       4.736   5.334  17.953  0.00  0.00    +0.000 C 
BRANCH   9  12
ATOM     12  C   UNL     1       6.059   4.728  14.392  0.00  0.00    +0.000 A 
ATOM     13  C   UNL     1       7.289   5.141  13.853  0.00  0.00    +0.000 A 
ATOM     14  C   UNL     1       7.757   4.636  12.632  0.00  0.00    +0.000 A 
ATOM     15  C   UNL     1       7.002   3.707  11.924  0.00  0.00    +0.000 A 
ATOM     16  C   UNL     1       5.780   3.286  12.434  0.00  0.00    +0.000 A 
ATOM     17  C   UNL     1       5.315   3.792  13.657  0.00  0.00    +0.000 A 
ENDBRANCH   9  12
ENDBRANCH   3   6
BRANCH   1  18
ATOM     18  C   UNL     1       1.035   8.769  21.231  0.00  0.00    +0.000 C 
BRANCH  18  26
ATOM     19  C   UNL     1       1.400  14.297  20.298  0.00  0.00    +0.000 C 
ATOM     20  N   UNL     1       0.476  13.435  19.603  0.00  0.00    +0.000 N 
ATOM     21  C   UNL     1      -0.406  13.832  18.636  0.00  0.00    +0.000 A 
ATOM     22  N   UNL     1      -1.120  12.821  18.188  0.00  0.00    +0.000 NA
ATOM     23  C   UNL     1      -0.684  11.745  18.897  0.00  0.00    +0.000 A 
ATOM     24  N   UNL     1      -1.151  10.439  18.773  0.00  0.00    +0.000 NA
ATOM     25  C   UNL     1      -0.568   9.598  19.566  0.00  0.00    +0.000 A 
ATOM     26  N   UNL     1       0.442   9.864  20.478  0.00  0.00    +0.000 N 
ATOM     27  C   UNL     1       0.949  11.149  20.633  0.00  0.00    +0.000 A 
ATOM     28  O   UNL     1       1.863  11.435  21.401  0.00  0.00    +0.000 OA
ATOM     29  C   UNL     1       0.307  12.091  19.778  0.00  0.00    +0.000 A 
ENDBRANCH  18  26
ENDBRANCH   1  18
TORSDOF 4
ENDMDL
MODEL 8
REMARK VINA RESULT:      -8.2      2.101      3.180
REMARK  Name = 
REMARK  5 active torsions:
REMARK  status: ('A' for Active; 'I' for Inactive)
REMARK    1  A    between atoms: C_1  and  N_2
REMARK    2  A    between atoms: N_8  and  C_9
REMARK    3  A    between atoms: C_9  and  C_10
REMARK    4  A    between atoms: C_12  and  C_13
REMARK    5  A    between atoms: C_16  and  C_17
REMARK                            x       y       z     vdW  Elec       q    Type
REMARK                         _______ _______ _______ _____ _____    ______ ____
ROOT
ATOM      1  C   UNL     1       5.541   4.939  16.402  0.00  0.00    +0.000 A 
ATOM      2  N   UNL     1       5.745   6.210  16.698  0.00  0.00    +0.000 NA
ATOM      3  C   UNL     1       7.116   6.256  16.830  0.00  0.00    +0.000 A 
ATOM      4  N   UNL     1       7.732   5.085  16.624  0.00  0.00    +0.000 NA
ATOM      5  O   UNL     1       6.693   4.212  16.333  0.00  0.00    +0.000 OA
ENDROOT
BRANCH   3   6
ATOM      6  C   UNL     1       7.936   7.483  17.208  0.00  0.00    +0.000 C 
ATOM      7  C   UNL     1       7.241   8.771  17.602  0.00  0.00    +0.000 C 
ATOM      8  C   UNL     1       7.991  10.041  17.518  0.00  0.00    +0.000 C 
ATOM      9  C   UNL     1       9.044  10.118  18.360  0.00  0.00    +0.000 C 
ATOM     10  C   UNL     1       9.100   8.830  19.168  0.00  0.00    +0.000 C 
ATOM     11  C   UNL     1       7.957   7.972  18.649  0.00  0.00    +0.000 C 
BRANCH   9  12
ATOM     12  C   UNL     1      10.028  11.209  18.506  0.00  0.00    +0.000 A 
ATOM     13  C   UNL     1      10.816  11.342  19.661  0.00  0.00    +0.000 A 
ATOM     14  C   UNL     1      11.742  12.385  19.799  0.00  0.00    +0.000 A 
ATOM     15  C   UNL     1      11.900  13.319  18.780  0.00  0.00    +0.000 A 
ATOM     16  C   UNL     1      11.129  13.212  17.629  0.00  0.00    +0.000 A 
ATOM     17  C   UNL     1      10.204  12.167  17.494  0.00  0.00    +0.000 A 
ENDBRANCH   9  12
ENDBRANCH   3   6
BRANCH   1  18
ATOM     18  C   UNL     1       4.282   4.163  16.227  0.00  0.00    +0.000 C 
BRANCH  18  26
ATOM     19  C   UNL     1       1.435   5.837  20.772  0.00  0.00    +0.000 C 
ATOM     20  N   UNL     1       1.856   4.475  20.558  0.00  0.00    +0.000 N 
ATOM     21  C   UNL     1       1.614   3.426  21.403  0.00  0.00    +0.000 A 
ATOM     22  N   UNL     1       2.124   2.304  20.940  0.00  0.00    +0.000 NA
ATOM     23  C   UNL     1       2.716   2.649  19.765  0.00  0.00    +0.000 A 
ATOM     24  N   UNL     1       3.396   1.787  18.907  0.00  0.00    +0.000 NA
ATOM     25  C   UNL     1       3.868   2.368  17.850  0.00  0.00    +0.000 A 
ATOM     26  N   UNL     1       3.754   3.705  17.504  0.00  0.00    +0.000 N 
ATOM     27  C   UNL     1       3.077   4.604  18.321  0.00  0.00    +0.000 A 
ATOM     28  O   UNL     1       2.919   5.790  18.048  0.00  0.00    +0.000 OA
ATOM     29  C   UNL     1       2.564   3.985  19.498  0.00  0.00    +0.000 A 
ENDBRANCH  18  26
ENDBRANCH   1  18
TORSDOF 4
ENDMDL
MODEL 9
REMARK VINA RESULT:      -8.2      9.432     12.239
REMARK  Name = 
REMARK  5 active torsions:
REMARK  status: ('A' for Active; 'I' for Inactive)
REMARK    1  A    between atoms: C_1  and  N_2
REMARK    2  A    between atoms: N_8  and  C_9
REMARK    3  A    between atoms: C_9  and  C_10
REMARK    4  A    between atoms: C_12  and  C_13
REMARK    5  A    between atoms: C_16  and  C_17
REMARK                            x       y       z     vdW  Elec       q    Type
REMARK                         _______ _______ _______ _____ _____    ______ ____
ROOT
ATOM      1  C   UNL     1      -1.434  12.618  20.355  0.00  0.00    +0.000 A 
ATOM      2  N   UNL     1      -0.422  11.772  20.434  0.00  0.00    +0.000 NA
ATOM      3  C   UNL     1      -0.704  10.894  19.410  0.00  0.00    +0.000 A 
ATOM      4  N   UNL     1      -1.823  11.176  18.731  0.00  0.00    +0.000 NA
ATOM      5  O   UNL     1      -2.305  12.321  19.349  0.00  0.00    +0.000 OA
ENDROOT
BRANCH   3   6
ATOM      6  C   UNL     1       0.114   9.663  19.038  0.00  0.00    +0.000 C 
ATOM      7  C   UNL     1       1.511   9.821  18.472  0.00  0.00    +0.000 C 
ATOM      8  C   UNL     1       2.101   8.703  17.706  0.00  0.00    +0.000 C 
ATOM      9  C   UNL     1       2.306   7.583  18.431  0.00  0.00    +0.000 C 
ATOM     10  C   UNL     1       1.867   7.857  19.862  0.00  0.00    +0.000 C 
ATOM     11  C   UNL     1       1.337   9.283  19.860  0.00  0.00    +0.000 C 
BRANCH   9  12
ATOM     12  C   UNL     1       2.828   6.278  17.980  0.00  0.00    +0.000 A 
ATOM     13  C   UNL     1       2.043   5.113  18.028  0.00  0.00    +0.000 A 
ATOM     14  C   UNL     1       2.546   3.875  17.608  0.00  0.00    +0.000 A 
ATOM     15  C   UNL     1       3.849   3.775  17.130  0.00  0.00    +0.000 A 
ATOM     16  C   UNL     1       4.647   4.912  17.076  0.00  0.00    +0.000 A 
ATOM     17  C   UNL     1       4.140   6.149  17.497  0.00  0.00    +0.000 A 
ENDBRANCH   9  12
ENDBRANCH   3   6
BRANCH   1  18
ATOM     18  C   UNL     1      -1.824  13.762  21.225  0.00  0.00    +0.000 C 
BRANCH  18  26
ATOM     19  C   UNL     1      -7.313  14.637  22.040  0.00  0.00    +0.000 C 
ATOM     20  N   UNL     1      -6.527  13.733  22.842  0.00  0.00    +0.000 N 
ATOM     21  C   UNL     1      -7.000  12.971  23.876  0.00  0.00    +0.000 A 
ATOM     22  N   UNL     1      -6.046  12.246  24.419  0.00  0.00    +0.000 NA
ATOM     23  C   UNL     1      -4.925  12.559  23.713  0.00  0.00    +0.000 A 
ATOM     24  N   UNL     1      -3.651  12.038  23.927  0.00  0.00    +0.000 NA
ATOM     25  C   UNL     1      -2.755  12.502  23.115  0.00  0.00    +0.000 A 
ATOM     26  N   UNL     1      -2.941  13.419  22.092  0.00  0.00    +0.000 N 
ATOM     27  C   UNL     1      -4.195  13.961  21.833  0.00  0.00    +0.000 A 
ATOM     28  O   UNL     1      -4.422  14.751  20.922  0.00  0.00    +0.000 OA
ATOM     29  C   UNL     1      -5.191  13.473  22.727  0.00  0.00    +0.000 A 
ENDBRANCH  18  26
ENDBRANCH   1  18
TORSDOF 4
ENDMDL
