MODEL 1
REMARK VINA RESULT:      -7.4      0.000      0.000
REMARK  Name = 
REMARK  4 active torsions:
REMARK  status: ('A' for Active; 'I' for Inactive)
REMARK    1  A    between atoms: C_1  and  C_2
REMARK    2  A    between atoms: C_2  and  C_3
REMARK    3  A    between atoms: C_2  and  C_4
REMARK    4  A    between atoms: C_4  and  N_5
REMARK                            x       y       z     vdW  Elec       q    Type
REMARK                         _______ _______ _______ _____ _____    ______ ____
ROOT
ATOM      1  N   UNL     1       4.710   4.003  18.103  0.00  0.00    +0.000 N 
ATOM      2  C   UNL     1       4.913   4.429  19.396  0.00  0.00    +0.000 A 
ATOM      3  N   UNL     1       5.891   5.294  19.486  0.00  0.00    +0.000 NA
ATOM      4  C   UNL     1       6.356   5.434  18.199  0.00  0.00    +0.000 A 
ATOM      5  C   UNL     1       7.454   6.298  17.772  0.00  0.00    +0.000 A 
ATOM      6  O   UNL     1       8.085   7.041  18.517  0.00  0.00    +0.000 OA
ATOM      7  O   UNL     1       7.754   6.231  16.396  0.00  0.00    +0.000 OA
ATOM      8  C   UNL     1       7.057   5.385  15.486  0.00  0.00    +0.000 A 
ATOM      9  C   UNL     1       7.520   5.411  14.168  0.00  0.00    +0.000 A 
ATOM     10  C   UNL     1       6.895   4.604  13.226  0.00  0.00    +0.000 A 
ATOM     11  C   UNL     1       5.827   3.802  13.615  0.00  0.00    +0.000 A 
ATOM     12  F   UNL     1       5.227   3.025  12.705  0.00  0.00    +0.000 F 
ATOM     13  C   UNL     1       5.364   3.777  14.936  0.00  0.00    +0.000 A 
ATOM     14  C   UNL     1       5.981   4.570  15.900  0.00  0.00    +0.000 A 
ATOM     15  C   UNL     1       5.649   4.628  17.316  0.00  0.00    +0.000 A 
ENDROOT
BRANCH   1  16
ATOM     16  C   UNL     1       3.622   3.111  17.748  0.00  0.00    +0.000 C 
BRANCH  16  18
ATOM     17  C   UNL     1       1.462   4.470  17.659  0.00  0.00    +0.000 C 
ATOM     18  C   UNL     1       2.279   3.430  18.431  0.00  0.00    +0.000 C 
ATOM     19  C   UNL     1       1.457   2.147  18.577  0.00  0.00    +0.000 C 
ENDBRANCH  16  18
ENDBRANCH   1  16
TORSDOF 2
ENDMDL
MODEL 2
REMARK VINA RESULT:      -7.4      3.832      6.012
REMARK  Name = 
REMARK  4 active torsions:
REMARK  status: ('A' for Active; 'I' for Inactive)
REMARK    1  A    between atoms: C_1  and  C_2
REMARK    2  A    between atoms: C_2  and  C_3
REMARK    3  A    between atoms: C_2  and  C_4
REMARK    4  A    between atoms: C_4  and  N_5
REMARK                            x       y       z     vdW  Elec       q    Type
REMARK                         _______ _______ _______ _____ _____    ______ ____
ROOT
ATOM      1  N   UNL     1       3.748   3.653  17.805  0.00  0.00    +0.000 N 
ATOM      2  C   UNL     1       3.976   2.360  18.220  0.00  0.00    +0.000 A 
ATOM      3  N   UNL     1       3.519   2.137  19.427  0.00  0.00    +0.000 NA
ATOM      4  C   UNL     1       2.977   3.338  19.824  0.00  0.00    +0.000 A 
ATOM      5  C   UNL     1       2.335   3.607  21.108  0.00  0.00    +0.000 A 
ATOM      6  O   UNL     1       2.169   2.772  21.992  0.00  0.00    +0.000 OA
ATOM      7  O   UNL     1       1.891   4.935  21.277  0.00  0.00    +0.000 OA
ATOM      8  C   UNL     1       2.060   5.945  20.288  0.00  0.00    +0.000 A 
ATOM      9  C   UNL     1       1.603   7.216  20.644  0.00  0.00    +0.000 A 
ATOM     10  C   UNL     1       1.743   8.255  19.733  0.00  0.00    +0.000 A 
ATOM     11  C   UNL     1       2.323   8.003  18.494  0.00  0.00    +0.000 A 
ATOM     12  F   UNL     1       2.457   9.006  17.618  0.00  0.00    +0.000 F 
ATOM     13  C   UNL     1       2.780   6.728  18.138  0.00  0.00    +0.000 A 
ATOM     14  C   UNL     1       2.659   5.674  19.039  0.00  0.00    +0.000 A 
ATOM     15  C   UNL     1       3.119   4.307  18.840  0.00  0.00    +0.000 A 
ENDROOT
BRANCH   1  16
ATOM     16  C   UNL     1       4.087   4.103  16.469  0.00  0.00    +0.000 C 
BRANCH  16  18
ATOM     17  C   UNL     1       6.014   3.902  14.806  0.00  0.00    +0.000 C 
ATOM     18  C   UNL     1       5.593   4.308  16.221  0.00  0.00    +0.000 C 
ATOM     19  C   UNL     1       5.959   5.775  16.458  0.00  0.00    +0.000 C 
ENDBRANCH  16  18
ENDBRANCH   1  16
TORSDOF 2
ENDMDL
MODEL 3
REMARK VINA RESULT:      -7.4      0.839      1.117
REMARK  Name = 
REMARK  4 active torsions:
REMARK  status: ('A' for Active; 'I' for Inactive)
REMARK    1  A    between atoms: C_1  and  C_2
REMARK    2  A    between atoms: C_2  and  C_3
REMARK    3  A    between atoms: C_2  and  C_4
REMARK    4  A    between atoms: C_4  and  N_5
REMARK                            x       y       z     vdW  Elec       q    Type
REMARK                         _______ _______ _______ _____ _____    ______ ____
ROOT
ATOM      1  N   UNL     1       3.875   4.451  18.086  0.00  0.00    +0.000 N 
ATOM      2  C   UNL     1       4.029   4.706  19.430  0.00  0.00    +0.000 A 
ATOM      3  N   UNL     1       5.225   5.153  19.718  0.00  0.00    +0.000 NA
ATOM      4  C   UNL     1       5.888   5.183  18.512  0.00  0.00    +0.000 A 
ATOM      5  C   UNL     1       7.268   5.614  18.301  0.00  0.00    +0.000 A 
ATOM      6  O   UNL     1       8.007   6.038  19.184  0.00  0.00    +0.000 OA
ATOM      7  O   UNL     1       7.717   5.516  16.969  0.00  0.00    +0.000 OA
ATOM      8  C   UNL     1       6.905   5.028  15.906  0.00  0.00    +0.000 A 
ATOM      9  C   UNL     1       7.529   4.955  14.658  0.00  0.00    +0.000 A 
ATOM     10  C   UNL     1       6.802   4.480  13.575  0.00  0.00    +0.000 A 
ATOM     11  C   UNL     1       5.476   4.098  13.757  0.00  0.00    +0.000 A 
ATOM     12  F   UNL     1       4.778   3.639  12.712  0.00  0.00    +0.000 F 
ATOM     13  C   UNL     1       4.852   4.172  15.008  0.00  0.00    +0.000 A 
ATOM     14  C   UNL     1       5.564   4.637  16.110  0.00  0.00    +0.000 A 
ATOM     15  C   UNL     1       5.076   4.735  17.478  0.00  0.00    +0.000 A 
ENDROOT
BRANCH   1  16
ATOM     16  C   UNL     1       2.606   4.033  17.523  0.00  0.00    +0.000 C 
BRANCH  16  18
ATOM     17  C   UNL     1       3.465   1.713  18.154  0.00  0.00    +0.000 C 
ATOM     18  C   UNL     1       2.247   2.555  17.768  0.00  0.00    +0.000 C 
ATOM     19  C   UNL     1       1.192   2.458  18.874  0.00  0.00    +0.000 C 
ENDBRANCH  16  18
ENDBRANCH   1  16
TORSDOF 2
ENDMDL
MODEL 4
REMARK VINA RESULT:      -7.2      2.256      4.841
REMARK  Name = 
REMARK  4 active torsions:
REMARK  status: ('A' for Active; 'I' for Inactive)
REMARK    1  A    between atoms: C_1  and  C_2
REMARK    2  A    between atoms: C_2  and  C_3
REMARK    3  A    between atoms: C_2  and  C_4
REMARK    4  A    between atoms: C_4  and  N_5
REMARK                            x       y       z     vdW  Elec       q    Type
REMARK                         _______ _______ _______ _____ _____    ______ ____
ROOT
ATOM      1  N   UNL     1       5.985   4.325  14.776  0.00  0.00    +0.000 N 
ATOM      2  C   UNL     1       7.082   5.043  14.358  0.00  0.00    +0.000 A 
ATOM      3  N   UNL     1       7.610   5.752  15.323  0.00  0.00    +0.000 NA
ATOM      4  C   UNL     1       6.818   5.497  16.420  0.00  0.00    +0.000 A 
ATOM      5  C   UNL     1       6.997   6.057  17.757  0.00  0.00    +0.000 A 
ATOM      6  O   UNL     1       7.909   6.812  18.079  0.00  0.00    +0.000 OA
ATOM      7  O   UNL     1       6.025   5.658  18.697  0.00  0.00    +0.000 OA
ATOM      8  C   UNL     1       4.944   4.787  18.378  0.00  0.00    +0.000 A 
ATOM      9  C   UNL     1       4.048   4.537  19.420  0.00  0.00    +0.000 A 
ATOM     10  C   UNL     1       2.963   3.704  19.181  0.00  0.00    +0.000 A 
ATOM     11  C   UNL     1       2.801   3.138  17.920  0.00  0.00    +0.000 A 
ATOM     12  F   UNL     1       1.753   2.337  17.692  0.00  0.00    +0.000 F 
ATOM     13  C   UNL     1       3.700   3.390  16.877  0.00  0.00    +0.000 A 
ATOM     14  C   UNL     1       4.790   4.229  17.090  0.00  0.00    +0.000 A 
ATOM     15  C   UNL     1       5.786   4.623  16.105  0.00  0.00    +0.000 A 
ENDROOT
BRANCH   1  16
ATOM     16  C   UNL     1       5.292   3.400  13.901  0.00  0.00    +0.000 C 
BRANCH  16  18
ATOM     17  C   UNL     1       6.640   2.616  11.880  0.00  0.00    +0.000 C 
ATOM     18  C   UNL     1       5.582   3.591  12.401  0.00  0.00    +0.000 C 
ATOM     19  C   UNL     1       4.289   3.413  11.599  0.00  0.00    +0.000 C 
ENDBRANCH  16  18
ENDBRANCH   1  16
TORSDOF 2
ENDMDL
MODEL 5
REMARK VINA RESULT:      -7.0      2.934      3.589
REMARK  Name = 
REMARK  4 active torsions:
REMARK  status: ('A' for Active; 'I' for Inactive)
REMARK    1  A    between atoms: C_1  and  C_2
REMARK    2  A    between atoms: C_2  and  C_3
REMARK    3  A    between atoms: C_2  and  C_4
REMARK    4  A    between atoms: C_4  and  N_5
REMARK                            x       y       z     vdW  Elec       q    Type
REMARK                         _______ _______ _______ _____ _____    ______ ____
ROOT
ATOM      1  N   UNL     1       2.819   4.354  19.980  0.00  0.00    +0.000 N 
ATOM      2  C   UNL     1       1.966   4.931  20.892  0.00  0.00    +0.000 A 
ATOM      3  N   UNL     1       1.706   6.182  20.608  0.00  0.00    +0.000 NA
ATOM      4  C   UNL     1       2.429   6.440  19.465  0.00  0.00    +0.000 A 
ATOM      5  C   UNL     1       2.474   7.710  18.746  0.00  0.00    +0.000 A 
ATOM      6  O   UNL     1       1.836   8.710  19.060  0.00  0.00    +0.000 OA
ATOM      7  O   UNL     1       3.321   7.718  17.619  0.00  0.00    +0.000 OA
ATOM      8  C   UNL     1       4.086   6.588  17.211  0.00  0.00    +0.000 A 
ATOM      9  C   UNL     1       4.908   6.790  16.099  0.00  0.00    +0.000 A 
ATOM     10  C   UNL     1       5.691   5.736  15.648  0.00  0.00    +0.000 A 
ATOM     11  C   UNL     1       5.631   4.511  16.306  0.00  0.00    +0.000 A 
ATOM     12  F   UNL     1       6.388   3.497  15.870  0.00  0.00    +0.000 F 
ATOM     13  C   UNL     1       4.807   4.310  17.420  0.00  0.00    +0.000 A 
ATOM     14  C   UNL     1       4.020   5.355  17.895  0.00  0.00    +0.000 A 
ATOM     15  C   UNL     1       3.146   5.322  19.059  0.00  0.00    +0.000 A 
ENDROOT
BRANCH   1  16
ATOM     16  C   UNL     1       3.176   2.949  20.043  0.00  0.00    +0.000 C 
BRANCH  16  18
ATOM     17  C   UNL     1       0.838   2.567  19.091  0.00  0.00    +0.000 C 
ATOM     18  C   UNL     1       2.258   2.014  19.233  0.00  0.00    +0.000 C 
ATOM     19  C   UNL     1       2.855   1.785  17.842  0.00  0.00    +0.000 C 
ENDBRANCH  16  18
ENDBRANCH   1  16
TORSDOF 2
ENDMDL
MODEL 6
REMARK VINA RESULT:      -7.0      1.122      1.456
REMARK  Name = 
REMARK  4 active torsions:
REMARK  status: ('A' for Active; 'I' for Inactive)
REMARK    1  A    between atoms: C_1  and  C_2
REMARK    2  A    between atoms: C_2  and  C_3
REMARK    3  A    between atoms: C_2  and  C_4
REMARK    4  A    between atoms: C_4  and  N_5
REMARK                            x       y       z     vdW  Elec       q    Type
REMARK                         _______ _______ _______ _____ _____    ______ ____
ROOT
ATOM      1  N   UNL     1       3.992   3.254  18.366  0.00  0.00    +0.000 N 
ATOM      2  C   UNL     1       4.049   3.274  19.741  0.00  0.00    +0.000 A 
ATOM      3  N   UNL     1       5.084   3.940  20.186  0.00  0.00    +0.000 NA
ATOM      4  C   UNL     1       5.740   4.368  19.053  0.00  0.00    +0.000 A 
ATOM      5  C   UNL     1       6.966   5.160  19.019  0.00  0.00    +0.000 A 
ATOM      6  O   UNL     1       7.555   5.575  20.013  0.00  0.00    +0.000 OA
ATOM      7  O   UNL     1       7.451   5.437  17.724  0.00  0.00    +0.000 OA
ATOM      8  C   UNL     1       6.811   4.979  16.538  0.00  0.00    +0.000 A 
ATOM      9  C   UNL     1       7.457   5.306  15.343  0.00  0.00    +0.000 A 
ATOM     10  C   UNL     1       6.897   4.884  14.145  0.00  0.00    +0.000 A 
ATOM     11  C   UNL     1       5.711   4.157  14.164  0.00  0.00    +0.000 A 
ATOM     12  F   UNL     1       5.174   3.751  13.007  0.00  0.00    +0.000 F 
ATOM     13  C   UNL     1       5.065   3.830  15.362  0.00  0.00    +0.000 A 
ATOM     14  C   UNL     1       5.613   4.234  16.576  0.00  0.00    +0.000 A 
ATOM     15  C   UNL     1       5.090   3.941  17.902  0.00  0.00    +0.000 A 
ENDROOT
BRANCH   1  16
ATOM     16  C   UNL     1       2.883   2.651  17.651  0.00  0.00    +0.000 C 
BRANCH  16  18
ATOM     17  C   UNL     1       0.824   2.914  19.137  0.00  0.00    +0.000 C 
ATOM     18  C   UNL     1       1.528   3.354  17.851  0.00  0.00    +0.000 C 
ATOM     19  C   UNL     1       1.734   4.871  17.879  0.00  0.00    +0.000 C 
ENDBRANCH  16  18
ENDBRANCH   1  16
TORSDOF 2
ENDMDL
MODEL 7
REMARK VINA RESULT:      -6.9      2.282      4.940
REMARK  Name = 
REMARK  4 active torsions:
REMARK  status: ('A' for Active; 'I' for Inactive)
REMARK    1  A    between atoms: C_1  and  C_2
REMARK    2  A    between atoms: C_2  and  C_3
REMARK    3  A    between atoms: C_2  and  C_4
REMARK    4  A    between atoms: C_4  and  N_5
REMARK                            x       y       z     vdW  Elec       q    Type
REMARK                         _______ _______ _______ _____ _____    ______ ____
ROOT
ATOM      1  N   UNL     1       6.111   4.474  15.935  0.00  0.00    +0.000 N 
ATOM      2  C   UNL     1       7.479   4.619  15.982  0.00  0.00    +0.000 A 
ATOM      3  N   UNL     1       7.910   4.881  17.190  0.00  0.00    +0.000 NA
ATOM      4  C   UNL     1       6.775   4.919  17.967  0.00  0.00    +0.000 A 
ATOM      5  C   UNL     1       6.725   5.179  19.403  0.00  0.00    +0.000 A 
ATOM      6  O   UNL     1       7.711   5.366  20.111  0.00  0.00    +0.000 OA
ATOM      7  O   UNL     1       5.428   5.196  19.954  0.00  0.00    +0.000 OA
ATOM      8  C   UNL     1       4.250   4.989  19.181  0.00  0.00    +0.000 A 
ATOM      9  C   UNL     1       3.046   5.087  19.883  0.00  0.00    +0.000 A 
ATOM     10  C   UNL     1       1.855   4.907  19.193  0.00  0.00    +0.000 A 
ATOM     11  C   UNL     1       1.891   4.626  17.830  0.00  0.00    +0.000 A 
ATOM     12  F   UNL     1       0.741   4.453  17.167  0.00  0.00    +0.000 F 
ATOM     13  C   UNL     1       3.098   4.527  17.128  0.00  0.00    +0.000 A 
ATOM     14  C   UNL     1       4.305   4.714  17.797  0.00  0.00    +0.000 A 
ATOM     15  C   UNL     1       5.635   4.685  17.208  0.00  0.00    +0.000 A 
ENDROOT
BRANCH   1  16
ATOM     16  C   UNL     1       5.420   4.092  14.718  0.00  0.00    +0.000 C 
BRANCH  16  18
ATOM     17  C   UNL     1       5.573   3.193  12.334  0.00  0.00    +0.000 C 
ATOM     18  C   UNL     1       6.342   3.754  13.532  0.00  0.00    +0.000 C 
ATOM     19  C   UNL     1       7.107   5.009  13.100  0.00  0.00    +0.000 C 
ENDBRANCH  16  18
ENDBRANCH   1  16
TORSDOF 2
ENDMDL
MODEL 8
REMARK VINA RESULT:      -6.9      3.823      6.161
REMARK  Name = 
REMARK  4 active torsions:
REMARK  status: ('A' for Active; 'I' for Inactive)
REMARK    1  A    between atoms: C_1  and  C_2
REMARK    2  A    between atoms: C_2  and  C_3
REMARK    3  A    between atoms: C_2  and  C_4
REMARK    4  A    between atoms: C_4  and  N_5
REMARK                            x       y       z     vdW  Elec       q    Type
REMARK                         _______ _______ _______ _____ _____    ______ ____
ROOT
ATOM      1  N   UNL     1       3.900   6.565  17.712  0.00  0.00    +0.000 N 
ATOM      2  C   UNL     1       3.480   7.848  17.445  0.00  0.00    +0.000 A 
ATOM      3  N   UNL     1       2.615   8.283  18.326  0.00  0.00    +0.000 NA
ATOM      4  C   UNL     1       2.453   7.235  19.204  0.00  0.00    +0.000 A 
ATOM      5  C   UNL     1       1.581   7.224  20.376  0.00  0.00    +0.000 A 
ATOM      6  O   UNL     1       0.900   8.175  20.745  0.00  0.00    +0.000 OA
ATOM      7  O   UNL     1       1.573   6.009  21.092  0.00  0.00    +0.000 OA
ATOM      8  C   UNL     1       2.341   4.873  20.708  0.00  0.00    +0.000 A 
ATOM      9  C   UNL     1       2.174   3.739  21.506  0.00  0.00    +0.000 A 
ATOM     10  C   UNL     1       2.883   2.588  21.187  0.00  0.00    +0.000 A 
ATOM     11  C   UNL     1       3.742   2.598  20.092  0.00  0.00    +0.000 A 
ATOM     12  F   UNL     1       4.424   1.487  19.786  0.00  0.00    +0.000 F 
ATOM     13  C   UNL     1       3.908   3.735  19.293  0.00  0.00    +0.000 A 
ATOM     14  C   UNL     1       3.201   4.897  19.588  0.00  0.00    +0.000 A 
ATOM     15  C   UNL     1       3.230   6.143  18.838  0.00  0.00    +0.000 A 
ENDROOT
BRANCH   1  16
ATOM     16  C   UNL     1       4.924   5.910  16.921  0.00  0.00    +0.000 C 
BRANCH  16  18
ATOM     17  C   UNL     1       7.131   4.637  17.092  0.00  0.00    +0.000 C 
ATOM     18  C   UNL     1       6.304   5.821  17.599  0.00  0.00    +0.000 C 
ATOM     19  C   UNL     1       7.080   7.120  17.360  0.00  0.00    +0.000 C 
ENDBRANCH  16  18
ENDBRANCH   1  16
TORSDOF 2
ENDMDL
MODEL 9
REMARK VINA RESULT:      -6.8      3.535      5.357
REMARK  Name = 
REMARK  4 active torsions:
REMARK  status: ('A' for Active; 'I' for Inactive)
REMARK    1  A    between atoms: C_1  and  C_2
REMARK    2  A    between atoms: C_2  and  C_3
REMARK    3  A    between atoms: C_2  and  C_4
REMARK    4  A    between atoms: C_4  and  N_5
REMARK                            x       y       z     vdW  Elec       q    Type
REMARK                         _______ _______ _______ _____ _____    ______ ____
ROOT
ATOM      1  N   UNL     1       3.654   6.895  17.717  0.00  0.00    +0.000 N 
ATOM      2  C   UNL     1       4.746   7.488  17.124  0.00  0.00    +0.000 A 
ATOM      3  N   UNL     1       5.834   6.773  17.258  0.00  0.00    +0.000 NA
ATOM      4  C   UNL     1       5.442   5.668  17.979  0.00  0.00    +0.000 A 
ATOM      5  C   UNL     1       6.301   4.561  18.389  0.00  0.00    +0.000 A 
ATOM      6  O   UNL     1       7.492   4.464  18.110  0.00  0.00    +0.000 OA
ATOM      7  O   UNL     1       5.655   3.566  19.151  0.00  0.00    +0.000 OA
ATOM      8  C   UNL     1       4.278   3.628  19.508  0.00  0.00    +0.000 A 
ATOM      9  C   UNL     1       3.817   2.580  20.307  0.00  0.00    +0.000 A 
ATOM     10  C   UNL     1       2.486   2.578  20.702  0.00  0.00    +0.000 A 
ATOM     11  C   UNL     1       1.649   3.610  20.289  0.00  0.00    +0.000 A 
ATOM     12  F   UNL     1       0.367   3.606  20.673  0.00  0.00    +0.000 F 
ATOM     13  C   UNL     1       2.113   4.661  19.488  0.00  0.00    +0.000 A 
ATOM     14  C   UNL     1       3.446   4.688  19.087  0.00  0.00    +0.000 A 
ATOM     15  C   UNL     1       4.090   5.724  18.294  0.00  0.00    +0.000 A 
ENDROOT
BRANCH   1  16
ATOM     16  C   UNL     1       2.323   7.463  17.619  0.00  0.00    +0.000 C 
BRANCH  16  18
ATOM     17  C   UNL     1       0.939   9.571  18.016  0.00  0.00    +0.000 C 
ATOM     18  C   UNL     1       2.073   8.680  18.529  0.00  0.00    +0.000 C 
ATOM     19  C   UNL     1       1.742   8.204  19.946  0.00  0.00    +0.000 C 
ENDBRANCH  16  18
ENDBRANCH   1  16
TORSDOF 2
ENDMDL
