MODEL 1
REMARK VINA RESULT:      -8.4      0.000      0.000
REMARK  Name = 
REMARK  8 active torsions:
REMARK  status: ('A' for Active; 'I' for Inactive)
REMARK    1  A    between atoms: C_1  and  O_2
REMARK    2  A    between atoms: O_2  and  C_3
REMARK    3  A    between atoms: C_3  and  C_5
REMARK    4  A    between atoms: C_5  and  O_6
REMARK    5  A    between atoms: C_5  and  C_14
REMARK    6  A    between atoms: O_6  and  C_7
REMARK    7  A    between atoms: C_17  and  O_18
REMARK    8  A    between atoms: O_18  and  C_19
REMARK                            x       y       z     vdW  Elec       q    Type
REMARK                         _______ _______ _______ _____ _____    ______ ____
ROOT
ATOM      1  C   UNL     1       2.419   7.265  19.141  0.00  0.00    +0.000 A 
ATOM      2  C   UNL     1       1.738   7.785  20.254  0.00  0.00    +0.000 A 
ATOM      3  C   UNL     1       1.079   9.015  20.175  0.00  0.00    +0.000 A 
ATOM      4  C   UNL     1       1.091   9.742  18.985  0.00  0.00    +0.000 A 
ATOM      5  C   UNL     1       1.735   9.218  17.862  0.00  0.00    +0.000 A 
ATOM      6  C   UNL     1       2.421   8.005  17.947  0.00  0.00    +0.000 A 
ENDROOT
BRANCH   1   7
ATOM      7  C   UNL     1       3.007   5.850  19.192  0.00  0.00    +0.000 C 
BRANCH   7   8
ATOM      8  C   UNL     1       2.078   4.922  20.007  0.00  0.00    +0.000 C 
ATOM      9  O   UNL     1       2.180   4.754  21.218  0.00  0.00    +0.000 OA
BRANCH   8  11
ATOM     10  C   UNL     1       1.084   2.891  19.276  0.00  0.00    +0.000 C 
ATOM     11  O   UNL     1       1.130   4.317  19.230  0.00  0.00    +0.000 OA
ENDBRANCH   8  11
ENDBRANCH   7   8
BRANCH   7  12
ATOM     12  O   UNL     1       3.253   5.393  17.858  0.00  0.00    +0.000 OA
BRANCH  12  13
ATOM     13  C   UNL     1       4.541   5.083  17.508  0.00  0.00    +0.000 A 
ATOM     14  C   UNL     1       4.932   4.453  16.324  0.00  0.00    +0.000 A 
ATOM     15  C   UNL     1       6.283   4.212  16.058  0.00  0.00    +0.000 A 
ATOM     16  C   UNL     1       7.256   4.598  16.975  0.00  0.00    +0.000 A 
ATOM     17  C   UNL     1       6.872   5.238  18.153  0.00  0.00    +0.000 A 
ATOM     18 CL   UNL     1       8.074   5.724  19.285  0.00  0.00    +0.000 Cl
ATOM     19  C   UNL     1       5.524   5.489  18.416  0.00  0.00    +0.000 A 
ENDBRANCH  12  13
ENDBRANCH   7  12
ENDBRANCH   1   7
BRANCH   4  20
ATOM     20  O   UNL     1       0.391  10.930  18.986  0.00  0.00    +0.000 OA
BRANCH  20  21
ATOM     21  C   UNL     1      -0.934  10.924  18.612  0.00  0.00    +0.000 A 
ATOM     22  C   UNL     1      -1.759  11.878  19.210  0.00  0.00    +0.000 A 
ATOM     23  C   UNL     1      -3.123  11.913  18.903  0.00  0.00    +0.000 A 
ATOM     24  C   UNL     1      -3.651  10.993  17.997  0.00  0.00    +0.000 A 
ATOM     25 CL   UNL     1      -5.338  10.996  17.658  0.00  0.00    +0.000 Cl
ATOM     26  C   UNL     1      -2.823  10.069  17.364  0.00  0.00    +0.000 A 
ATOM     27  C   UNL     1      -1.459  10.054  17.649  0.00  0.00    +0.000 A 
ENDBRANCH  20  21
ENDBRANCH   4  20
TORSDOF 7
ENDMDL
MODEL 2
REMARK VINA RESULT:      -8.4      1.096      1.426
REMARK  Name = 
REMARK  8 active torsions:
REMARK  status: ('A' for Active; 'I' for Inactive)
REMARK    1  A    between atoms: C_1  and  O_2
REMARK    2  A    between atoms: O_2  and  C_3
REMARK    3  A    between atoms: C_3  and  C_5
REMARK    4  A    between atoms: C_5  and  O_6
REMARK    5  A    between atoms: C_5  and  C_14
REMARK    6  A    between atoms: O_6  and  C_7
REMARK    7  A    between atoms: C_17  and  O_18
REMARK    8  A    between atoms: O_18  and  C_19
REMARK                            x       y       z     vdW  Elec       q    Type
REMARK                         _______ _______ _______ _____ _____    ______ ____
ROOT
ATOM      1  C   UNL     1       2.479   7.301  19.192  0.00  0.00    +0.000 A 
ATOM      2  C   UNL     1       1.739   7.818  20.269  0.00  0.00    +0.000 A 
ATOM      3  C   UNL     1       1.073   9.042  20.152  0.00  0.00    +0.000 A 
ATOM      4  C   UNL     1       1.135   9.763  18.960  0.00  0.00    +0.000 A 
ATOM      5  C   UNL     1       1.838   9.242  17.872  0.00  0.00    +0.000 A 
ATOM      6  C   UNL     1       2.531   8.037  17.996  0.00  0.00    +0.000 A 
ENDROOT
BRANCH   1   7
ATOM      7  C   UNL     1       3.078   5.893  19.277  0.00  0.00    +0.000 C 
BRANCH   7   8
ATOM      8  C   UNL     1       2.142   4.969  20.089  0.00  0.00    +0.000 C 
ATOM      9  O   UNL     1       2.252   4.782  21.296  0.00  0.00    +0.000 OA
BRANCH   8  11
ATOM     10  C   UNL     1       0.825   3.045  19.631  0.00  0.00    +0.000 C 
ATOM     11  O   UNL     1       1.176   4.392  19.314  0.00  0.00    +0.000 OA
ENDBRANCH   8  11
ENDBRANCH   7   8
BRANCH   7  12
ATOM     12  O   UNL     1       3.355   5.416  17.956  0.00  0.00    +0.000 OA
BRANCH  12  13
ATOM     13  C   UNL     1       4.658   5.156  17.623  0.00  0.00    +0.000 A 
ATOM     14  C   UNL     1       5.752   5.254  18.486  0.00  0.00    +0.000 A 
ATOM     15  C   UNL     1       7.039   4.935  18.043  0.00  0.00    +0.000 A 
ATOM     16  C   UNL     1       7.244   4.515  16.732  0.00  0.00    +0.000 A 
ATOM     17  C   UNL     1       6.154   4.404  15.870  0.00  0.00    +0.000 A 
ATOM     18 CL   UNL     1       6.403   3.879  14.250  0.00  0.00    +0.000 Cl
ATOM     19  C   UNL     1       4.866   4.713  16.313  0.00  0.00    +0.000 A 
ENDBRANCH  12  13
ENDBRANCH   7  12
ENDBRANCH   1   7
BRANCH   4  20
ATOM     20  O   UNL     1       0.424  10.944  18.923  0.00  0.00    +0.000 OA
BRANCH  20  21
ATOM     21  C   UNL     1      -0.906  10.911  18.565  0.00  0.00    +0.000 A 
ATOM     22  C   UNL     1      -1.746  11.837  19.185  0.00  0.00    +0.000 A 
ATOM     23  C   UNL     1      -3.114  11.843  18.895  0.00  0.00    +0.000 A 
ATOM     24  C   UNL     1      -3.631  10.923  17.984  0.00  0.00    +0.000 A 
ATOM     25 CL   UNL     1      -5.321  10.889  17.665  0.00  0.00    +0.000 Cl
ATOM     26  C   UNL     1      -2.789  10.027  17.329  0.00  0.00    +0.000 A 
ATOM     27  C   UNL     1      -1.422  10.041  17.597  0.00  0.00    +0.000 A 
ENDBRANCH  20  21
ENDBRANCH   4  20
TORSDOF 7
ENDMDL
MODEL 3
REMARK VINA RESULT:      -8.3      1.256      1.915
REMARK  Name = 
REMARK  8 active torsions:
REMARK  status: ('A' for Active; 'I' for Inactive)
REMARK    1  A    between atoms: C_1  and  O_2
REMARK    2  A    between atoms: O_2  and  C_3
REMARK    3  A    between atoms: C_3  and  C_5
REMARK    4  A    between atoms: C_5  and  O_6
REMARK    5  A    between atoms: C_5  and  C_14
REMARK    6  A    between atoms: O_6  and  C_7
REMARK    7  A    between atoms: C_17  and  O_18
REMARK    8  A    between atoms: O_18  and  C_19
REMARK                            x       y       z     vdW  Elec       q    Type
REMARK                         _______ _______ _______ _____ _____    ______ ____
ROOT
ATOM      1  C   UNL     1       2.516   6.886  19.290  0.00  0.00    +0.000 A 
ATOM      2  C   UNL     1       1.843   7.558  20.324  0.00  0.00    +0.000 A 
ATOM      3  C   UNL     1       1.314   8.835  20.118  0.00  0.00    +0.000 A 
ATOM      4  C   UNL     1       1.447   9.457  18.877  0.00  0.00    +0.000 A 
ATOM      5  C   UNL     1       2.082   8.784  17.831  0.00  0.00    +0.000 A 
ATOM      6  C   UNL     1       2.640   7.523  18.044  0.00  0.00    +0.000 A 
ENDROOT
BRANCH   1   7
ATOM      7  C   UNL     1       2.957   5.430  19.479  0.00  0.00    +0.000 C 
BRANCH   7   8
ATOM      8  C   UNL     1       1.873   4.646  20.251  0.00  0.00    +0.000 C 
ATOM      9  O   UNL     1       0.771   4.373  19.785  0.00  0.00    +0.000 OA
BRANCH   8  11
ATOM     10  C   UNL     1       2.336   2.886  21.780  0.00  0.00    +0.000 C 
ATOM     11  O   UNL     1       2.281   4.286  21.505  0.00  0.00    +0.000 OA
ENDBRANCH   8  11
ENDBRANCH   7   8
BRANCH   7  12
ATOM     12  O   UNL     1       3.279   4.865  18.203  0.00  0.00    +0.000 OA
BRANCH  12  13
ATOM     13  C   UNL     1       4.597   4.813  17.833  0.00  0.00    +0.000 A 
ATOM     14  C   UNL     1       5.687   5.027  18.680  0.00  0.00    +0.000 A 
ATOM     15  C   UNL     1       6.995   4.921  18.199  0.00  0.00    +0.000 A 
ATOM     16  C   UNL     1       7.225   4.600  16.864  0.00  0.00    +0.000 A 
ATOM     17  C   UNL     1       6.141   4.374  16.017  0.00  0.00    +0.000 A 
ATOM     18 CL   UNL     1       6.422   3.970  14.368  0.00  0.00    +0.000 Cl
ATOM     19  C   UNL     1       4.834   4.470  16.499  0.00  0.00    +0.000 A 
ENDBRANCH  12  13
ENDBRANCH   7  12
ENDBRANCH   1   7
BRANCH   4  20
ATOM     20  O   UNL     1       0.870  10.703  18.752  0.00  0.00    +0.000 OA
BRANCH  20  21
ATOM     21  C   UNL     1      -0.489  10.790  18.545  0.00  0.00    +0.000 A 
ATOM     22  C   UNL     1      -1.044   9.892  17.631  0.00  0.00    +0.000 A 
ATOM     23  C   UNL     1      -2.411   9.942  17.345  0.00  0.00    +0.000 A 
ATOM     24  C   UNL     1      -3.216  10.889  17.978  0.00  0.00    +0.000 A 
ATOM     25 CL   UNL     1      -4.888  10.991  17.589  0.00  0.00    +0.000 Cl
ATOM     26  C   UNL     1      -2.675  11.757  18.924  0.00  0.00    +0.000 A 
ATOM     27  C   UNL     1      -1.317  11.688  19.229  0.00  0.00    +0.000 A 
ENDBRANCH  20  21
ENDBRANCH   4  20
TORSDOF 7
ENDMDL
MODEL 4
REMARK VINA RESULT:      -8.2      0.588      1.436
REMARK  Name = 
REMARK  8 active torsions:
REMARK  status: ('A' for Active; 'I' for Inactive)
REMARK    1  A    between atoms: C_1  and  O_2
REMARK    2  A    between atoms: O_2  and  C_3
REMARK    3  A    between atoms: C_3  and  C_5
REMARK    4  A    between atoms: C_5  and  O_6
REMARK    5  A    between atoms: C_5  and  C_14
REMARK    6  A    between atoms: O_6  and  C_7
REMARK    7  A    between atoms: C_17  and  O_18
REMARK    8  A    between atoms: O_18  and  C_19
REMARK                            x       y       z     vdW  Elec       q    Type
REMARK                         _______ _______ _______ _____ _____    ______ ____
ROOT
ATOM      1  C   UNL     1       2.324   6.721  19.348  0.00  0.00    +0.000 A 
ATOM      2  C   UNL     1       2.446   7.355  18.100  0.00  0.00    +0.000 A 
ATOM      3  C   UNL     1       1.965   8.654  17.912  0.00  0.00    +0.000 A 
ATOM      4  C   UNL     1       1.357   9.337  18.965  0.00  0.00    +0.000 A 
ATOM      5  C   UNL     1       1.262   8.729  20.219  0.00  0.00    +0.000 A 
ATOM      6  C   UNL     1       1.712   7.421  20.401  0.00  0.00    +0.000 A 
ENDROOT
BRANCH   1   7
ATOM      7  C   UNL     1       2.988   5.360  19.587  0.00  0.00    +0.000 C 
BRANCH   7   8
ATOM      8  C   UNL     1       2.116   4.506  20.535  0.00  0.00    +0.000 C 
ATOM      9  O   UNL     1       2.451   4.201  21.675  0.00  0.00    +0.000 OA
BRANCH   8  11
ATOM     10  C   UNL     1       0.830   2.784  19.522  0.00  0.00    +0.000 C 
ATOM     11  O   UNL     1       0.930   4.137  19.965  0.00  0.00    +0.000 OA
ENDBRANCH   8  11
ENDBRANCH   7   8
BRANCH   7  12
ATOM     12  O   UNL     1       3.251   4.735  18.326  0.00  0.00    +0.000 OA
BRANCH  12  13
ATOM     13  C   UNL     1       4.550   4.666  17.898  0.00  0.00    +0.000 A 
ATOM     14  C   UNL     1       4.971   4.188  16.654  0.00  0.00    +0.000 A 
ATOM     15  C   UNL     1       6.326   4.190  16.312  0.00  0.00    +0.000 A 
ATOM     16  C   UNL     1       7.274   4.671  17.211  0.00  0.00    +0.000 A 
ATOM     17  C   UNL     1       6.858   5.159  18.449  0.00  0.00    +0.000 A 
ATOM     18 CL   UNL     1       8.027   5.760  19.560  0.00  0.00    +0.000 Cl
ATOM     19  C   UNL     1       5.504   5.167  18.789  0.00  0.00    +0.000 A 
ENDBRANCH  12  13
ENDBRANCH   7  12
ENDBRANCH   1   7
BRANCH   4  20
ATOM     20  O   UNL     1       0.939  10.623  18.699  0.00  0.00    +0.000 OA
BRANCH  20  21
ATOM     21  C   UNL     1      -0.412  10.889  18.649  0.00  0.00    +0.000 A 
ATOM     22  C   UNL     1      -1.163  10.153  17.730  0.00  0.00    +0.000 A 
ATOM     23  C   UNL     1      -2.534  10.390  17.600  0.00  0.00    +0.000 A 
ATOM     24  C   UNL     1      -3.146  11.361  18.393  0.00  0.00    +0.000 A 
ATOM     25 CL   UNL     1      -4.823  11.694  18.199  0.00  0.00    +0.000 Cl
ATOM     26  C   UNL     1      -2.410  12.065  19.343  0.00  0.00    +0.000 A 
ATOM     27  C   UNL     1      -1.048  11.807  19.491  0.00  0.00    +0.000 A 
ENDBRANCH  20  21
ENDBRANCH   4  20
TORSDOF 7
ENDMDL
MODEL 5
REMARK VINA RESULT:      -8.2      1.078      1.930
REMARK  Name = 
REMARK  8 active torsions:
REMARK  status: ('A' for Active; 'I' for Inactive)
REMARK    1  A    between atoms: C_1  and  O_2
REMARK    2  A    between atoms: O_2  and  C_3
REMARK    3  A    between atoms: C_3  and  C_5
REMARK    4  A    between atoms: C_5  and  O_6
REMARK    5  A    between atoms: C_5  and  C_14
REMARK    6  A    between atoms: O_6  and  C_7
REMARK    7  A    between atoms: C_17  and  O_18
REMARK    8  A    between atoms: O_18  and  C_19
REMARK                            x       y       z     vdW  Elec       q    Type
REMARK                         _______ _______ _______ _____ _____    ______ ____
ROOT
ATOM      1  C   UNL     1       2.243   7.344  19.169  0.00  0.00    +0.000 A 
ATOM      2  C   UNL     1       2.183   8.090  17.979  0.00  0.00    +0.000 A 
ATOM      3  C   UNL     1       1.515   9.318  17.941  0.00  0.00    +0.000 A 
ATOM      4  C   UNL     1       0.900   9.818  19.088  0.00  0.00    +0.000 A 
ATOM      5  C   UNL     1       0.984   9.102  20.285  0.00  0.00    +0.000 A 
ATOM      6  C   UNL     1       1.621   7.861  20.318  0.00  0.00    +0.000 A 
ENDROOT
BRANCH   1   7
ATOM      7  C   UNL     1       3.103   6.078  19.239  0.00  0.00    +0.000 C 
BRANCH   7   8
ATOM      8  C   UNL     1       2.369   4.986  20.050  0.00  0.00    +0.000 C 
ATOM      9  O   UNL     1       2.553   4.792  21.248  0.00  0.00    +0.000 OA
BRANCH   8  11
ATOM     10  C   UNL     1       0.822   3.187  19.935  0.00  0.00    +0.000 C 
ATOM     11  O   UNL     1       1.492   4.269  19.288  0.00  0.00    +0.000 OA
ENDBRANCH   8  11
ENDBRANCH   7   8
BRANCH   7  12
ATOM     12  O   UNL     1       3.456   5.672  17.913  0.00  0.00    +0.000 OA
BRANCH  12  13
ATOM     13  C   UNL     1       4.765   5.355  17.660  0.00  0.00    +0.000 A 
ATOM     14  C   UNL     1       5.806   5.405  18.590  0.00  0.00    +0.000 A 
ATOM     15  C   UNL     1       7.103   5.031  18.227  0.00  0.00    +0.000 A 
ATOM     16  C   UNL     1       7.371   4.603  16.930  0.00  0.00    +0.000 A 
ATOM     17  C   UNL     1       6.332   4.540  16.002  0.00  0.00    +0.000 A 
ATOM     18 CL   UNL     1       6.659   4.004  14.399  0.00  0.00    +0.000 Cl
ATOM     19  C   UNL     1       5.034   4.904  16.364  0.00  0.00    +0.000 A 
ENDBRANCH  12  13
ENDBRANCH   7  12
ENDBRANCH   1   7
BRANCH   4  20
ATOM     20  O   UNL     1       0.291  11.049  18.968  0.00  0.00    +0.000 OA
BRANCH  20  21
ATOM     21  C   UNL     1      -1.064  11.101  18.727  0.00  0.00    +0.000 A 
ATOM     22  C   UNL     1      -1.568  10.212  17.777  0.00  0.00    +0.000 A 
ATOM     23  C   UNL     1      -2.929  10.228  17.456  0.00  0.00    +0.000 A 
ATOM     24  C   UNL     1      -3.777  11.135  18.091  0.00  0.00    +0.000 A 
ATOM     25 CL   UNL     1      -5.442  11.197  17.660  0.00  0.00    +0.000 Cl
ATOM     26  C   UNL     1      -3.288  11.993  19.073  0.00  0.00    +0.000 A 
ATOM     27  C   UNL     1      -1.936  11.955  19.412  0.00  0.00    +0.000 A 
ENDBRANCH  20  21
ENDBRANCH   4  20
TORSDOF 7
ENDMDL
MODEL 6
REMARK VINA RESULT:      -8.1      1.269      2.127
REMARK  Name = 
REMARK  8 active torsions:
REMARK  status: ('A' for Active; 'I' for Inactive)
REMARK    1  A    between atoms: C_1  and  O_2
REMARK    2  A    between atoms: O_2  and  C_3
REMARK    3  A    between atoms: C_3  and  C_5
REMARK    4  A    between atoms: C_5  and  O_6
REMARK    5  A    between atoms: C_5  and  C_14
REMARK    6  A    between atoms: O_6  and  C_7
REMARK    7  A    between atoms: C_17  and  O_18
REMARK    8  A    between atoms: O_18  and  C_19
REMARK                            x       y       z     vdW  Elec       q    Type
REMARK                         _______ _______ _______ _____ _____    ______ ____
ROOT
ATOM      1  C   UNL     1       2.276   6.721  19.340  0.00  0.00    +0.000 A 
ATOM      2  C   UNL     1       2.388   7.368  18.098  0.00  0.00    +0.000 A 
ATOM      3  C   UNL     1       1.933   8.680  17.935  0.00  0.00    +0.000 A 
ATOM      4  C   UNL     1       1.362   9.363  19.009  0.00  0.00    +0.000 A 
ATOM      5  C   UNL     1       1.279   8.742  20.257  0.00  0.00    +0.000 A 
ATOM      6  C   UNL     1       1.702   7.422  20.414  0.00  0.00    +0.000 A 
ENDROOT
BRANCH   1   7
ATOM      7  C   UNL     1       2.913   5.343  19.548  0.00  0.00    +0.000 C 
BRANCH   7   8
ATOM      8  C   UNL     1       1.934   4.417  20.305  0.00  0.00    +0.000 C 
ATOM      9  O   UNL     1       0.784   4.199  19.936  0.00  0.00    +0.000 OA
BRANCH   8  11
ATOM     10  C   UNL     1       1.897   2.663  21.907  0.00  0.00    +0.000 C 
ATOM     11  O   UNL     1       2.493   3.866  21.423  0.00  0.00    +0.000 OA
ENDBRANCH   8  11
ENDBRANCH   7   8
BRANCH   7  12
ATOM     12  O   UNL     1       3.337   4.822  18.284  0.00  0.00    +0.000 OA
BRANCH  12  13
ATOM     13  C   UNL     1       4.675   4.855  17.987  0.00  0.00    +0.000 A 
ATOM     14  C   UNL     1       5.703   5.095  18.901  0.00  0.00    +0.000 A 
ATOM     15  C   UNL     1       7.039   5.076  18.491  0.00  0.00    +0.000 A 
ATOM     16  C   UNL     1       7.359   4.817  17.162  0.00  0.00    +0.000 A 
ATOM     17  C   UNL     1       6.337   4.564  16.248  0.00  0.00    +0.000 A 
ATOM     18 CL   UNL     1       6.730   4.235  14.605  0.00  0.00    +0.000 Cl
ATOM     19  C   UNL     1       5.002   4.573  16.657  0.00  0.00    +0.000 A 
ENDBRANCH  12  13
ENDBRANCH   7  12
ENDBRANCH   1   7
BRANCH   4  20
ATOM     20  O   UNL     1       0.969  10.662  18.768  0.00  0.00    +0.000 OA
BRANCH  20  21
ATOM     21  C   UNL     1      -0.377  10.953  18.715  0.00  0.00    +0.000 A 
ATOM     22  C   UNL     1      -1.146  10.204  17.823  0.00  0.00    +0.000 A 
ATOM     23  C   UNL     1      -2.514  10.464  17.692  0.00  0.00    +0.000 A 
ATOM     24  C   UNL     1      -3.103  11.470  18.456  0.00  0.00    +0.000 A 
ATOM     25 CL   UNL     1      -4.773  11.831  18.259  0.00  0.00    +0.000 Cl
ATOM     26  C   UNL     1      -2.348  12.189  19.381  0.00  0.00    +0.000 A 
ATOM     27  C   UNL     1      -0.991  11.910  19.531  0.00  0.00    +0.000 A 
ENDBRANCH  20  21
ENDBRANCH   4  20
TORSDOF 7
ENDMDL
MODEL 7
REMARK VINA RESULT:      -8.1      0.822      1.414
REMARK  Name = 
REMARK  8 active torsions:
REMARK  status: ('A' for Active; 'I' for Inactive)
REMARK    1  A    between atoms: C_1  and  O_2
REMARK    2  A    between atoms: O_2  and  C_3
REMARK    3  A    between atoms: C_3  and  C_5
REMARK    4  A    between atoms: C_5  and  O_6
REMARK    5  A    between atoms: C_5  and  C_14
REMARK    6  A    between atoms: O_6  and  C_7
REMARK    7  A    between atoms: C_17  and  O_18
REMARK    8  A    between atoms: O_18  and  C_19
REMARK                            x       y       z     vdW  Elec       q    Type
REMARK                         _______ _______ _______ _____ _____    ______ ____
ROOT
ATOM      1  C   UNL     1       2.282   6.711  19.150  0.00  0.00    +0.000 A 
ATOM      2  C   UNL     1       2.387   7.410  17.936  0.00  0.00    +0.000 A 
ATOM      3  C   UNL     1       1.946   8.733  17.836  0.00  0.00    +0.000 A 
ATOM      4  C   UNL     1       1.395   9.375  18.945  0.00  0.00    +0.000 A 
ATOM      5  C   UNL     1       1.318   8.701  20.166  0.00  0.00    +0.000 A 
ATOM      6  C   UNL     1       1.728   7.370  20.260  0.00  0.00    +0.000 A 
ENDROOT
BRANCH   1   7
ATOM      7  C   UNL     1       2.905   5.318  19.291  0.00  0.00    +0.000 C 
BRANCH   7   8
ATOM      8  C   UNL     1       1.965   4.398  20.102  0.00  0.00    +0.000 C 
ATOM      9  O   UNL     1       0.880   4.003  19.688  0.00  0.00    +0.000 OA
BRANCH   8  11
ATOM     10  C   UNL     1       2.570   2.677  21.625  0.00  0.00    +0.000 C 
ATOM     11  O   UNL     1       2.480   4.070  21.324  0.00  0.00    +0.000 OA
ENDBRANCH   8  11
ENDBRANCH   7   8
BRANCH   7  12
ATOM     12  O   UNL     1       3.228   4.811  17.991  0.00  0.00    +0.000 OA
BRANCH  12  13
ATOM     13  C   UNL     1       4.550   4.721  17.642  0.00  0.00    +0.000 A 
ATOM     14  C   UNL     1       5.036   4.259  16.417  0.00  0.00    +0.000 A 
ATOM     15  C   UNL     1       6.409   4.237  16.159  0.00  0.00    +0.000 A 
ATOM     16  C   UNL     1       7.310   4.678  17.124  0.00  0.00    +0.000 A 
ATOM     17  C   UNL     1       6.829   5.151  18.344  0.00  0.00    +0.000 A 
ATOM     18 CL   UNL     1       7.939   5.703  19.538  0.00  0.00    +0.000 Cl
ATOM     19  C   UNL     1       5.457   5.183  18.601  0.00  0.00    +0.000 A 
ENDBRANCH  12  13
ENDBRANCH   7  12
ENDBRANCH   1   7
BRANCH   4  20
ATOM     20  O   UNL     1       1.014  10.687  18.765  0.00  0.00    +0.000 OA
BRANCH  20  21
ATOM     21  C   UNL     1      -0.329  10.992  18.723  0.00  0.00    +0.000 A 
ATOM     22  C   UNL     1      -0.762  12.034  19.545  0.00  0.00    +0.000 A 
ATOM     23  C   UNL     1      -2.116  12.380  19.580  0.00  0.00    +0.000 A 
ATOM     24  C   UNL     1      -3.028  11.681  18.789  0.00  0.00    +0.000 A 
ATOM     25 CL   UNL     1      -4.703  12.066  18.869  0.00  0.00    +0.000 Cl
ATOM     26  C   UNL     1      -2.594  10.672  17.933  0.00  0.00    +0.000 A 
ATOM     27  C   UNL     1      -1.239  10.347  17.878  0.00  0.00    +0.000 A 
ENDBRANCH  20  21
ENDBRANCH   4  20
TORSDOF 7
ENDMDL
MODEL 8
REMARK VINA RESULT:      -8.1      1.405      2.037
REMARK  Name = 
REMARK  8 active torsions:
REMARK  status: ('A' for Active; 'I' for Inactive)
REMARK    1  A    between atoms: C_1  and  O_2
REMARK    2  A    between atoms: O_2  and  C_3
REMARK    3  A    between atoms: C_3  and  C_5
REMARK    4  A    between atoms: C_5  and  O_6
REMARK    5  A    between atoms: C_5  and  C_14
REMARK    6  A    between atoms: O_6  and  C_7
REMARK    7  A    between atoms: C_17  and  O_18
REMARK    8  A    between atoms: O_18  and  C_19
REMARK                            x       y       z     vdW  Elec       q    Type
REMARK                         _______ _______ _______ _____ _____    ______ ____
ROOT
ATOM      1  C   UNL     1       2.334   6.491  19.127  0.00  0.00    +0.000 A 
ATOM      2  C   UNL     1       2.411   7.175  17.902  0.00  0.00    +0.000 A 
ATOM      3  C   UNL     1       1.997   8.507  17.802  0.00  0.00    +0.000 A 
ATOM      4  C   UNL     1       1.502   9.173  18.923  0.00  0.00    +0.000 A 
ATOM      5  C   UNL     1       1.456   8.514  20.154  0.00  0.00    +0.000 A 
ATOM      6  C   UNL     1       1.838   7.175  20.249  0.00  0.00    +0.000 A 
ENDROOT
BRANCH   1   7
ATOM      7  C   UNL     1       2.930   5.086  19.260  0.00  0.00    +0.000 C 
BRANCH   7   8
ATOM      8  C   UNL     1       1.951   4.167  20.026  0.00  0.00    +0.000 C 
ATOM      9  O   UNL     1       0.904   3.743  19.547  0.00  0.00    +0.000 OA
BRANCH   8  11
ATOM     10  C   UNL     1       1.986   2.615  21.824  0.00  0.00    +0.000 C 
ATOM     11  O   UNL     1       2.384   3.877  21.289  0.00  0.00    +0.000 OA
ENDBRANCH   8  11
ENDBRANCH   7   8
BRANCH   7  12
ATOM     12  O   UNL     1       3.284   4.596  17.962  0.00  0.00    +0.000 OA
BRANCH  12  13
ATOM     13  C   UNL     1       4.602   4.637  17.593  0.00  0.00    +0.000 A 
ATOM     14  C   UNL     1       5.673   4.931  18.439  0.00  0.00    +0.000 A 
ATOM     15  C   UNL     1       6.986   4.917  17.959  0.00  0.00    +0.000 A 
ATOM     16  C   UNL     1       7.239   4.607  16.625  0.00  0.00    +0.000 A 
ATOM     17  C   UNL     1       6.174   4.302  15.779  0.00  0.00    +0.000 A 
ATOM     18 CL   UNL     1       6.485   3.912  14.132  0.00  0.00    +0.000 Cl
ATOM     19  C   UNL     1       4.863   4.306  16.259  0.00  0.00    +0.000 A 
ENDBRANCH  12  13
ENDBRANCH   7  12
ENDBRANCH   1   7
BRANCH   4  20
ATOM     20  O   UNL     1       1.145  10.492  18.742  0.00  0.00    +0.000 OA
BRANCH  20  21
ATOM     21  C   UNL     1      -0.191  10.816  18.657  0.00  0.00    +0.000 A 
ATOM     22  C   UNL     1      -0.629  11.884  19.442  0.00  0.00    +0.000 A 
ATOM     23  C   UNL     1      -1.978  12.251  19.432  0.00  0.00    +0.000 A 
ATOM     24  C   UNL     1      -2.880  11.546  18.634  0.00  0.00    +0.000 A 
ATOM     25 CL   UNL     1      -4.550  11.958  18.660  0.00  0.00    +0.000 Cl
ATOM     26  C   UNL     1      -2.439  10.509  17.815  0.00  0.00    +0.000 A 
ATOM     27  C   UNL     1      -1.089  10.163  17.805  0.00  0.00    +0.000 A 
ENDBRANCH  20  21
ENDBRANCH   4  20
TORSDOF 7
ENDMDL
MODEL 9
REMARK VINA RESULT:      -7.9      1.028      1.720
REMARK  Name = 
REMARK  8 active torsions:
REMARK  status: ('A' for Active; 'I' for Inactive)
REMARK    1  A    between atoms: C_1  and  O_2
REMARK    2  A    between atoms: O_2  and  C_3
REMARK    3  A    between atoms: C_3  and  C_5
REMARK    4  A    between atoms: C_5  and  O_6
REMARK    5  A    between atoms: C_5  and  C_14
REMARK    6  A    between atoms: O_6  and  C_7
REMARK    7  A    between atoms: C_17  and  O_18
REMARK    8  A    between atoms: O_18  and  C_19
REMARK                            x       y       z     vdW  Elec       q    Type
REMARK                         _______ _______ _______ _____ _____    ______ ____
ROOT
ATOM      1  C   UNL     1       2.368   7.082  19.266  0.00  0.00    +0.000 A 
ATOM      2  C   UNL     1       2.355   7.688  17.998  0.00  0.00    +0.000 A 
ATOM      3  C   UNL     1       1.727   8.923  17.806  0.00  0.00    +0.000 A 
ATOM      4  C   UNL     1       1.107   9.568  18.876  0.00  0.00    +0.000 A 
ATOM      5  C   UNL     1       1.145   8.992  20.147  0.00  0.00    +0.000 A 
ATOM      6  C   UNL     1       1.742   7.745  20.335  0.00  0.00    +0.000 A 
ENDROOT
BRANCH   1   7
ATOM      7  C   UNL     1       3.186   5.807  19.499  0.00  0.00    +0.000 C 
BRANCH   7   8
ATOM      8  C   UNL     1       2.262   4.668  19.986  0.00  0.00    +0.000 C 
ATOM      9  O   UNL     1       1.937   4.513  21.159  0.00  0.00    +0.000 OA
BRANCH   8  11
ATOM     10  C   UNL     1       0.890   2.854  19.301  0.00  0.00    +0.000 C 
ATOM     11  O   UNL     1       1.844   3.861  18.966  0.00  0.00    +0.000 OA
ENDBRANCH   8  11
ENDBRANCH   7   8
BRANCH   7  12
ATOM     12  O   UNL     1       3.915   5.489  18.308  0.00  0.00    +0.000 OA
BRANCH  12  13
ATOM     13  C   UNL     1       5.205   5.939  18.199  0.00  0.00    +0.000 A 
ATOM     14  C   UNL     1       5.667   6.858  17.255  0.00  0.00    +0.000 A 
ATOM     15  C   UNL     1       7.003   7.268  17.255  0.00  0.00    +0.000 A 
ATOM     16  C   UNL     1       7.890   6.762  18.201  0.00  0.00    +0.000 A 
ATOM     17  C   UNL     1       7.431   5.853  19.153  0.00  0.00    +0.000 A 
ATOM     18 CL   UNL     1       8.523   5.231  20.328  0.00  0.00    +0.000 Cl
ATOM     19  C   UNL     1       6.094   5.450  19.161  0.00  0.00    +0.000 A 
ENDBRANCH  12  13
ENDBRANCH   7  12
ENDBRANCH   1   7
BRANCH   4  20
ATOM     20  O   UNL     1       0.539  10.795  18.603  0.00  0.00    +0.000 OA
BRANCH  20  21
ATOM     21  C   UNL     1      -0.825  10.875  18.434  0.00  0.00    +0.000 A 
ATOM     22  C   UNL     1      -1.400   9.978  17.533  0.00  0.00    +0.000 A 
ATOM     23  C   UNL     1      -2.776  10.021  17.285  0.00  0.00    +0.000 A 
ATOM     24  C   UNL     1      -3.567  10.962  17.944  0.00  0.00    +0.000 A 
ATOM     25 CL   UNL     1      -5.251  11.056  17.602  0.00  0.00    +0.000 Cl
ATOM     26  C   UNL     1      -3.005  11.829  18.878  0.00  0.00    +0.000 A 
ATOM     27  C   UNL     1      -1.638  11.766  19.145  0.00  0.00    +0.000 A 
ENDBRANCH  20  21
ENDBRANCH   4  20
TORSDOF 7
ENDMDL
