MODEL 1
REMARK VINA RESULT:      -7.2      0.000      0.000
REMARK  Name = 
REMARK  2 active torsions:
REMARK  status: ('A' for Active; 'I' for Inactive)
REMARK    1  A    between atoms: C_1  and  N_2
REMARK    2  A    between atoms: C_7  and  C_8
REMARK                            x       y       z     vdW  Elec       q    Type
REMARK                         _______ _______ _______ _____ _____    ______ ____
ROOT
ATOM      1  C   UNL     1       7.171   4.633  13.371  0.00  0.00    +0.000 C 
ATOM      2  N   UNL     1       6.663   4.520  14.717  0.00  0.00    +0.000 N 
ATOM      3  C   UNL     1       7.357   4.743  15.873  0.00  0.00    +0.000 A 
ATOM      4  C   UNL     1       6.442   4.523  16.862  0.00  0.00    +0.000 A 
ATOM      5  C   UNL     1       6.641   4.621  18.228  0.00  0.00    +0.000 A 
ATOM      6  N   UNL     1       5.529   4.328  18.976  0.00  0.00    +0.000 NA
ATOM      7  C   UNL     1       4.317   3.960  18.390  0.00  0.00    +0.000 A 
ATOM      8  C   UNL     1       4.077   3.867  17.001  0.00  0.00    +0.000 A 
ATOM      9  C   UNL     1       5.208   4.160  16.236  0.00  0.00    +0.000 A 
ATOM     10  N   UNL     1       5.373   4.167  14.901  0.00  0.00    +0.000 NA
ENDROOT
BRANCH   7  11
ATOM     11  C   UNL     1       3.247   3.641  19.366  0.00  0.00    +0.000 A 
ATOM     12  C   UNL     1       1.939   4.130  19.193  0.00  0.00    +0.000 A 
ATOM     13  C   UNL     1       0.926   3.852  20.117  0.00  0.00    +0.000 A 
ATOM     14  C   UNL     1       1.202   3.078  21.239  0.00  0.00    +0.000 A 
ATOM     15  C   UNL     1       2.486   2.580  21.438  0.00  0.00    +0.000 A 
ATOM     16  C   UNL     1       3.495   2.861  20.513  0.00  0.00    +0.000 A 
ENDBRANCH   7  11
TORSDOF 1
ENDMDL
MODEL 2
REMARK VINA RESULT:      -6.9      0.581      1.135
REMARK  Name = 
REMARK  2 active torsions:
REMARK  status: ('A' for Active; 'I' for Inactive)
REMARK    1  A    between atoms: C_1  and  N_2
REMARK    2  A    between atoms: C_7  and  C_8
REMARK                            x       y       z     vdW  Elec       q    Type
REMARK                         _______ _______ _______ _____ _____    ______ ____
ROOT
ATOM      1  C   UNL     1       7.285   4.795  13.326  0.00  0.00    +0.000 C 
ATOM      2  N   UNL     1       6.708   4.654  14.641  0.00  0.00    +0.000 N 
ATOM      3  C   UNL     1       7.341   4.849  15.836  0.00  0.00    +0.000 A 
ATOM      4  C   UNL     1       6.374   4.609  16.771  0.00  0.00    +0.000 A 
ATOM      5  C   UNL     1       6.502   4.677  18.147  0.00  0.00    +0.000 A 
ATOM      6  N   UNL     1       5.352   4.371  18.830  0.00  0.00    +0.000 NA
ATOM      7  C   UNL     1       4.171   4.018  18.172  0.00  0.00    +0.000 A 
ATOM      8  C   UNL     1       4.004   3.956  16.771  0.00  0.00    +0.000 A 
ATOM      9  C   UNL     1       5.174   4.264  16.073  0.00  0.00    +0.000 A 
ATOM     10  N   UNL     1       5.409   4.300  14.749  0.00  0.00    +0.000 NA
ENDROOT
BRANCH   7  11
ATOM     11  C   UNL     1       3.052   3.681  19.084  0.00  0.00    +0.000 A 
ATOM     12  C   UNL     1       3.185   3.820  20.478  0.00  0.00    +0.000 A 
ATOM     13  C   UNL     1       2.143   3.487  21.349  0.00  0.00    +0.000 A 
ATOM     14  C   UNL     1       0.941   3.004  20.844  0.00  0.00    +0.000 A 
ATOM     15  C   UNL     1       0.779   2.855  19.470  0.00  0.00    +0.000 A 
ATOM     16  C   UNL     1       1.823   3.188  18.602  0.00  0.00    +0.000 A 
ENDBRANCH   7  11
TORSDOF 1
ENDMDL
MODEL 3
REMARK VINA RESULT:      -6.8      1.190      1.303
REMARK  Name = 
REMARK  2 active torsions:
REMARK  status: ('A' for Active; 'I' for Inactive)
REMARK    1  A    between atoms: C_1  and  N_2
REMARK    2  A    between atoms: C_7  and  C_8
REMARK                            x       y       z     vdW  Elec       q    Type
REMARK                         _______ _______ _______ _____ _____    ______ ____
ROOT
ATOM      1  C   UNL     1       7.174   4.733  13.617  0.00  0.00    +0.000 C 
ATOM      2  N   UNL     1       6.294   4.864  14.754  0.00  0.00    +0.000 N 
ATOM      3  C   UNL     1       5.815   6.028  15.285  0.00  0.00    +0.000 A 
ATOM      4  C   UNL     1       5.025   5.624  16.322  0.00  0.00    +0.000 A 
ATOM      5  C   UNL     1       4.299   6.424  17.187  0.00  0.00    +0.000 A 
ATOM      6  N   UNL     1       3.604   5.726  18.142  0.00  0.00    +0.000 NA
ATOM      7  C   UNL     1       3.645   4.332  18.219  0.00  0.00    +0.000 A 
ATOM      8  C   UNL     1       4.361   3.488  17.343  0.00  0.00    +0.000 A 
ATOM      9  C   UNL     1       5.074   4.195  16.371  0.00  0.00    +0.000 A 
ATOM     10  N   UNL     1       5.870   3.747  15.384  0.00  0.00    +0.000 NA
ENDROOT
BRANCH   7  11
ATOM     11  C   UNL     1       2.863   3.767  19.345  0.00  0.00    +0.000 A 
ATOM     12  C   UNL     1       1.476   3.987  19.446  0.00  0.00    +0.000 A 
ATOM     13  C   UNL     1       0.731   3.475  20.513  0.00  0.00    +0.000 A 
ATOM     14  C   UNL     1       1.359   2.732  21.507  0.00  0.00    +0.000 A 
ATOM     15  C   UNL     1       2.728   2.498  21.434  0.00  0.00    +0.000 A 
ATOM     16  C   UNL     1       3.470   3.011  20.367  0.00  0.00    +0.000 A 
ENDBRANCH   7  11
TORSDOF 1
ENDMDL
MODEL 4
REMARK VINA RESULT:      -6.7      1.857      6.379
REMARK  Name = 
REMARK  2 active torsions:
REMARK  status: ('A' for Active; 'I' for Inactive)
REMARK    1  A    between atoms: C_1  and  N_2
REMARK    2  A    between atoms: C_7  and  C_8
REMARK                            x       y       z     vdW  Elec       q    Type
REMARK                         _______ _______ _______ _____ _____    ______ ____
ROOT
ATOM      1  C   UNL     1       2.127   4.343  20.666  0.00  0.00    +0.000 C 
ATOM      2  N   UNL     1       2.906   4.715  19.510  0.00  0.00    +0.000 N 
ATOM      3  C   UNL     1       3.370   5.964  19.205  0.00  0.00    +0.000 A 
ATOM      4  C   UNL     1       4.052   5.791  18.035  0.00  0.00    +0.000 A 
ATOM      5  C   UNL     1       4.722   6.757  17.303  0.00  0.00    +0.000 A 
ATOM      6  N   UNL     1       5.308   6.282  16.158  0.00  0.00    +0.000 NA
ATOM      7  C   UNL     1       5.218   4.940  15.780  0.00  0.00    +0.000 A 
ATOM      8  C   UNL     1       4.558   3.929  16.512  0.00  0.00    +0.000 A 
ATOM      9  C   UNL     1       3.957   4.410  17.677  0.00  0.00    +0.000 A 
ATOM     10  N   UNL     1       3.238   3.762  18.613  0.00  0.00    +0.000 NA
ENDROOT
BRANCH   7  11
ATOM     11  C   UNL     1       5.880   4.631  14.490  0.00  0.00    +0.000 A 
ATOM     12  C   UNL     1       5.312   3.716  13.585  0.00  0.00    +0.000 A 
ATOM     13  C   UNL     1       5.936   3.403  12.373  0.00  0.00    +0.000 A 
ATOM     14  C   UNL     1       7.148   3.999  12.040  0.00  0.00    +0.000 A 
ATOM     15  C   UNL     1       7.735   4.908  12.914  0.00  0.00    +0.000 A 
ATOM     16  C   UNL     1       7.108   5.218  14.125  0.00  0.00    +0.000 A 
ENDBRANCH   7  11
TORSDOF 1
ENDMDL
MODEL 5
REMARK VINA RESULT:      -6.7      0.896      1.352
REMARK  Name = 
REMARK  2 active torsions:
REMARK  status: ('A' for Active; 'I' for Inactive)
REMARK    1  A    between atoms: C_1  and  N_2
REMARK    2  A    between atoms: C_7  and  C_8
REMARK                            x       y       z     vdW  Elec       q    Type
REMARK                         _______ _______ _______ _____ _____    ______ ____
ROOT
ATOM      1  C   UNL     1       6.731   4.227  12.694  0.00  0.00    +0.000 C 
ATOM      2  N   UNL     1       6.462   4.267  14.112  0.00  0.00    +0.000 N 
ATOM      3  C   UNL     1       7.346   4.596  15.101  0.00  0.00    +0.000 A 
ATOM      4  C   UNL     1       6.613   4.501  16.250  0.00  0.00    +0.000 A 
ATOM      5  C   UNL     1       7.045   4.738  17.543  0.00  0.00    +0.000 A 
ATOM      6  N   UNL     1       6.078   4.550  18.498  0.00  0.00    +0.000 NA
ATOM      7  C   UNL     1       4.782   4.146  18.170  0.00  0.00    +0.000 A 
ATOM      8  C   UNL     1       4.306   3.912  16.861  0.00  0.00    +0.000 A 
ATOM      9  C   UNL     1       5.289   4.099  15.887  0.00  0.00    +0.000 A 
ATOM     10  N   UNL     1       5.222   3.962  14.550  0.00  0.00    +0.000 NA
ENDROOT
BRANCH   7  11
ATOM     11  C   UNL     1       3.896   3.954  19.343  0.00  0.00    +0.000 A 
ATOM     12  C   UNL     1       3.783   2.699  19.969  0.00  0.00    +0.000 A 
ATOM     13  C   UNL     1       2.936   2.501  21.064  0.00  0.00    +0.000 A 
ATOM     14  C   UNL     1       2.180   3.558  21.559  0.00  0.00    +0.000 A 
ATOM     15  C   UNL     1       2.270   4.812  20.962  0.00  0.00    +0.000 A 
ATOM     16  C   UNL     1       3.117   5.005  19.867  0.00  0.00    +0.000 A 
ENDBRANCH   7  11
TORSDOF 1
ENDMDL
MODEL 6
REMARK VINA RESULT:      -6.6      1.729      6.380
REMARK  Name = 
REMARK  2 active torsions:
REMARK  status: ('A' for Active; 'I' for Inactive)
REMARK    1  A    between atoms: C_1  and  N_2
REMARK    2  A    between atoms: C_7  and  C_8
REMARK                            x       y       z     vdW  Elec       q    Type
REMARK                         _______ _______ _______ _____ _____    ______ ____
ROOT
ATOM      1  C   UNL     1       2.286   3.616  20.898  0.00  0.00    +0.000 C 
ATOM      2  N   UNL     1       2.963   4.110  19.724  0.00  0.00    +0.000 N 
ATOM      3  C   UNL     1       3.178   5.419  19.395  0.00  0.00    +0.000 A 
ATOM      4  C   UNL     1       3.864   5.360  18.215  0.00  0.00    +0.000 A 
ATOM      5  C   UNL     1       4.327   6.423  17.459  0.00  0.00    +0.000 A 
ATOM      6  N   UNL     1       4.977   6.049  16.311  0.00  0.00    +0.000 NA
ATOM      7  C   UNL     1       5.138   4.709  15.953  0.00  0.00    +0.000 A 
ATOM      8  C   UNL     1       4.693   3.603  16.709  0.00  0.00    +0.000 A 
ATOM      9  C   UNL     1       4.027   3.980  17.878  0.00  0.00    +0.000 A 
ATOM     10  N   UNL     1       3.458   3.223  18.834  0.00  0.00    +0.000 NA
ENDROOT
BRANCH   7  11
ATOM     11  C   UNL     1       5.828   4.510  14.655  0.00  0.00    +0.000 A 
ATOM     12  C   UNL     1       7.056   5.143  14.383  0.00  0.00    +0.000 A 
ATOM     13  C   UNL     1       7.707   4.979  13.157  0.00  0.00    +0.000 A 
ATOM     14  C   UNL     1       7.141   4.176  12.171  0.00  0.00    +0.000 A 
ATOM     15  C   UNL     1       5.929   3.538  12.410  0.00  0.00    +0.000 A 
ATOM     16  C   UNL     1       5.281   3.705  13.637  0.00  0.00    +0.000 A 
ENDBRANCH   7  11
TORSDOF 1
ENDMDL
MODEL 7
REMARK VINA RESULT:      -6.6      3.454      3.999
REMARK  Name = 
REMARK  2 active torsions:
REMARK  status: ('A' for Active; 'I' for Inactive)
REMARK    1  A    between atoms: C_1  and  N_2
REMARK    2  A    between atoms: C_7  and  C_8
REMARK                            x       y       z     vdW  Elec       q    Type
REMARK                         _______ _______ _______ _____ _____    ______ ____
ROOT
ATOM      1  C   UNL     1       7.081   4.746  14.585  0.00  0.00    +0.000 C 
ATOM      2  N   UNL     1       6.015   5.054  15.509  0.00  0.00    +0.000 N 
ATOM      3  C   UNL     1       5.198   4.160  16.141  0.00  0.00    +0.000 A 
ATOM      4  C   UNL     1       4.379   4.938  16.908  0.00  0.00    +0.000 A 
ATOM      5  C   UNL     1       3.367   4.515  17.751  0.00  0.00    +0.000 A 
ATOM      6  N   UNL     1       2.706   5.536  18.386  0.00  0.00    +0.000 NA
ATOM      7  C   UNL     1       3.039   6.876  18.179  0.00  0.00    +0.000 A 
ATOM      8  C   UNL     1       4.076   7.339  17.340  0.00  0.00    +0.000 A 
ATOM      9  C   UNL     1       4.748   6.302  16.688  0.00  0.00    +0.000 A 
ATOM     10  N   UNL     1       5.770   6.347  15.814  0.00  0.00    +0.000 NA
ENDROOT
BRANCH   7  11
ATOM     11  C   UNL     1       2.182   7.832  18.922  0.00  0.00    +0.000 A 
ATOM     12  C   UNL     1       1.691   8.996  18.303  0.00  0.00    +0.000 A 
ATOM     13  C   UNL     1       0.897   9.914  18.998  0.00  0.00    +0.000 A 
ATOM     14  C   UNL     1       0.578   9.688  20.333  0.00  0.00    +0.000 A 
ATOM     15  C   UNL     1       1.050   8.546  20.972  0.00  0.00    +0.000 A 
ATOM     16  C   UNL     1       1.843   7.631  20.274  0.00  0.00    +0.000 A 
ENDBRANCH   7  11
TORSDOF 1
ENDMDL
MODEL 8
REMARK VINA RESULT:      -6.5      4.372      7.018
REMARK  Name = 
REMARK  2 active torsions:
REMARK  status: ('A' for Active; 'I' for Inactive)
REMARK    1  A    between atoms: C_1  and  N_2
REMARK    2  A    between atoms: C_7  and  C_8
REMARK                            x       y       z     vdW  Elec       q    Type
REMARK                         _______ _______ _______ _____ _____    ______ ____
ROOT
ATOM      1  C   UNL     1      -0.316   9.694  22.316  0.00  0.00    +0.000 C 
ATOM      2  N   UNL     1       0.430   9.268  21.156  0.00  0.00    +0.000 N 
ATOM      3  C   UNL     1       0.555   9.940  19.974  0.00  0.00    +0.000 A 
ATOM      4  C   UNL     1       1.362   9.140  19.216  0.00  0.00    +0.000 A 
ATOM      5  C   UNL     1       1.800   9.371  17.924  0.00  0.00    +0.000 A 
ATOM      6  N   UNL     1       2.597   8.376  17.419  0.00  0.00    +0.000 NA
ATOM      7  C   UNL     1       2.919   7.236  18.159  0.00  0.00    +0.000 A 
ATOM      8  C   UNL     1       2.502   6.978  19.483  0.00  0.00    +0.000 A 
ATOM      9  C   UNL     1       1.687   7.988  20.000  0.00  0.00    +0.000 A 
ATOM     10  N   UNL     1       1.095   8.093  21.204  0.00  0.00    +0.000 NA
ENDROOT
BRANCH   7  11
ATOM     11  C   UNL     1       3.755   6.256  17.424  0.00  0.00    +0.000 A 
ATOM     12  C   UNL     1       4.777   6.682  16.556  0.00  0.00    +0.000 A 
ATOM     13  C   UNL     1       5.559   5.769  15.843  0.00  0.00    +0.000 A 
ATOM     14  C   UNL     1       5.335   4.403  15.982  0.00  0.00    +0.000 A 
ATOM     15  C   UNL     1       4.331   3.950  16.833  0.00  0.00    +0.000 A 
ATOM     16  C   UNL     1       3.551   4.867  17.543  0.00  0.00    +0.000 A 
ENDBRANCH   7  11
TORSDOF 1
ENDMDL
MODEL 9
REMARK VINA RESULT:      -6.4      4.485      7.105
REMARK  Name = 
REMARK  2 active torsions:
REMARK  status: ('A' for Active; 'I' for Inactive)
REMARK    1  A    between atoms: C_1  and  N_2
REMARK    2  A    between atoms: C_7  and  C_8
REMARK                            x       y       z     vdW  Elec       q    Type
REMARK                         _______ _______ _______ _____ _____    ______ ____
ROOT
ATOM      1  C   UNL     1      -0.199   9.951  22.499  0.00  0.00    +0.000 C 
ATOM      2  N   UNL     1       0.477   9.474  21.316  0.00  0.00    +0.000 N 
ATOM      3  C   UNL     1       0.518  10.087  20.096  0.00  0.00    +0.000 A 
ATOM      4  C   UNL     1       1.284   9.257  19.329  0.00  0.00    +0.000 A 
ATOM      5  C   UNL     1       1.636   9.427  18.002  0.00  0.00    +0.000 A 
ATOM      6  N   UNL     1       2.411   8.414  17.496  0.00  0.00    +0.000 NA
ATOM      7  C   UNL     1       2.792   7.316  18.269  0.00  0.00    +0.000 A 
ATOM      8  C   UNL     1       2.464   7.121  19.628  0.00  0.00    +0.000 A 
ATOM      9  C   UNL     1       1.672   8.149  20.146  0.00  0.00    +0.000 A 
ATOM     10  N   UNL     1       1.157   8.309  21.379  0.00  0.00    +0.000 NA
ENDROOT
BRANCH   7  11
ATOM     11  C   UNL     1       3.591   6.307  17.531  0.00  0.00    +0.000 A 
ATOM     12  C   UNL     1       3.293   4.935  17.627  0.00  0.00    +0.000 A 
ATOM     13  C   UNL     1       4.050   3.974  16.950  0.00  0.00    +0.000 A 
ATOM     14  C   UNL     1       5.128   4.365  16.162  0.00  0.00    +0.000 A 
ATOM     15  C   UNL     1       5.447   5.714  16.048  0.00  0.00    +0.000 A 
ATOM     16  C   UNL     1       4.688   6.672  16.726  0.00  0.00    +0.000 A 
ENDBRANCH   7  11
TORSDOF 1
ENDMDL
