MODEL 1
REMARK VINA RESULT:      -6.7      0.000      0.000
REMARK  Name = 
REMARK  7 active torsions:
REMARK  status: ('A' for Active; 'I' for Inactive)
REMARK    1  A    between atoms: C_2  and  SE_3
REMARK    2  A    between atoms: SE_3  and  C_4
REMARK    3  A    between atoms: C_4  and  C_5
REMARK    4  A    between atoms: C_5  and  O_6
REMARK    5  A    between atoms: O_6  and  C_7
REMARK    6  A    between atoms: C_10  and  O_11
REMARK    7  A    between atoms: O_11  and  C_12
REMARK                            x       y       z     vdW  Elec       q    Type
REMARK                         _______ _______ _______ _____ _____    ______ ____
ROOT
ATOM      1  C   UNL     1       7.201   6.956  17.570  0.00  0.00    +0.000 A 
ATOM      2  C   UNL     1       5.924   6.795  16.991  0.00  0.00    +0.000 A 
ATOM      3  C   UNL     1       5.122   5.703  17.328  0.00  0.00    +0.000 A 
ATOM      4  C   UNL     1       5.579   4.743  18.231  0.00  0.00    +0.000 A 
ATOM      5  C   UNL     1       6.844   4.908  18.828  0.00  0.00    +0.000 A 
ATOM      6  C   UNL     1       7.648   6.003  18.496  0.00  0.00    +0.000 A 
ENDROOT
BRANCH   1   7
ATOM      7  O   UNL     1       8.019   7.997  17.252  0.00  0.00    +0.000 OA
BRANCH   7   8
ATOM      8  C   UNL     1       7.845   9.278  17.736  0.00  0.00    +0.000 C 
BRANCH   8   9
ATOM      9  C   UNL     1       8.971   9.695  18.670  0.00  0.00    +0.000 C 
BRANCH   9  10
ATOM     10 SE   UNL     1       9.550  11.482  18.113  0.00  0.00    +0.000 Se
BRANCH  10  12
ATOM     11  N   UNL     1      11.624  11.714  20.333  0.00  0.00    +0.000 NA
ATOM     12  C   UNL     1      10.831  11.634  19.496  0.00  0.00    +0.000 C 
ENDBRANCH  10  12
ENDBRANCH   9  10
ENDBRANCH   8   9
ENDBRANCH   7   8
ENDBRANCH   1   7
BRANCH   4  13
ATOM     13  O   UNL     1       4.774   3.686  18.519  0.00  0.00    +0.000 OA
BRANCH  13  14
ATOM     14  C   UNL     1       3.515   3.737  19.024  0.00  0.00    +0.000 A 
ATOM     15  C   UNL     1       3.232   4.659  20.040  0.00  0.00    +0.000 A 
ATOM     16  C   UNL     1       1.945   4.739  20.582  0.00  0.00    +0.000 A 
ATOM     17  C   UNL     1       0.929   3.906  20.107  0.00  0.00    +0.000 A 
ATOM     18  C   UNL     1       1.196   2.995  19.082  0.00  0.00    +0.000 A 
ATOM     19  F   UNL     1       0.209   2.195  18.609  0.00  0.00    +0.000 F 
ATOM     20  C   UNL     1       2.479   2.911  18.539  0.00  0.00    +0.000 A 
ENDBRANCH  13  14
ENDBRANCH   4  13
TORSDOF 7
ENDMDL
MODEL 2
REMARK VINA RESULT:      -6.7      1.004      1.475
REMARK  Name = 
REMARK  7 active torsions:
REMARK  status: ('A' for Active; 'I' for Inactive)
REMARK    1  A    between atoms: C_2  and  SE_3
REMARK    2  A    between atoms: SE_3  and  C_4
REMARK    3  A    between atoms: C_4  and  C_5
REMARK    4  A    between atoms: C_5  and  O_6
REMARK    5  A    between atoms: O_6  and  C_7
REMARK    6  A    between atoms: C_10  and  O_11
REMARK    7  A    between atoms: O_11  and  C_12
REMARK                            x       y       z     vdW  Elec       q    Type
REMARK                         _______ _______ _______ _____ _____    ______ ____
ROOT
ATOM      1  C   UNL     1       6.933   7.037  17.458  0.00  0.00    +0.000 A 
ATOM      2  C   UNL     1       7.339   6.061  18.393  0.00  0.00    +0.000 A 
ATOM      3  C   UNL     1       6.548   4.939  18.641  0.00  0.00    +0.000 A 
ATOM      4  C   UNL     1       5.330   4.773  17.978  0.00  0.00    +0.000 A 
ATOM      5  C   UNL     1       4.928   5.733  17.029  0.00  0.00    +0.000 A 
ATOM      6  C   UNL     1       5.722   6.856  16.776  0.00  0.00    +0.000 A 
ENDROOT
BRANCH   1   7
ATOM      7  O   UNL     1       7.669   8.155  17.204  0.00  0.00    +0.000 OA
BRANCH   7   8
ATOM      8  C   UNL     1       8.397   8.821  18.169  0.00  0.00    +0.000 C 
BRANCH   8   9
ATOM      9  C   UNL     1       8.522  10.308  17.869  0.00  0.00    +0.000 C 
BRANCH   9  10
ATOM     10 SE   UNL     1       9.829  11.044  19.128  0.00  0.00    +0.000 Se
BRANCH  10  12
ATOM     11  N   UNL     1      10.932  13.069  17.137  0.00  0.00    +0.000 NA
ATOM     12  C   UNL     1      10.505  12.299  17.886  0.00  0.00    +0.000 C 
ENDBRANCH  10  12
ENDBRANCH   9  10
ENDBRANCH   8   9
ENDBRANCH   7   8
ENDBRANCH   1   7
BRANCH   4  13
ATOM     13  O   UNL     1       4.581   3.675  18.261  0.00  0.00    +0.000 OA
BRANCH  13  14
ATOM     14  C   UNL     1       3.364   3.655  18.863  0.00  0.00    +0.000 A 
ATOM     15  C   UNL     1       3.134   4.507  19.950  0.00  0.00    +0.000 A 
ATOM     16  C   UNL     1       1.892   4.513  20.593  0.00  0.00    +0.000 A 
ATOM     17  C   UNL     1       0.866   3.675  20.148  0.00  0.00    +0.000 A 
ATOM     18  C   UNL     1       1.078   2.834  19.053  0.00  0.00    +0.000 A 
ATOM     19  F   UNL     1       0.081   2.029  18.610  0.00  0.00    +0.000 F 
ATOM     20  C   UNL     1       2.317   2.823  18.410  0.00  0.00    +0.000 A 
ENDBRANCH  13  14
ENDBRANCH   4  13
TORSDOF 7
ENDMDL
MODEL 3
REMARK VINA RESULT:      -6.7      6.719      7.934
REMARK  Name = 
REMARK  7 active torsions:
REMARK  status: ('A' for Active; 'I' for Inactive)
REMARK    1  A    between atoms: C_2  and  SE_3
REMARK    2  A    between atoms: SE_3  and  C_4
REMARK    3  A    between atoms: C_4  and  C_5
REMARK    4  A    between atoms: C_5  and  O_6
REMARK    5  A    between atoms: O_6  and  C_7
REMARK    6  A    between atoms: C_10  and  O_11
REMARK    7  A    between atoms: O_11  and  C_12
REMARK                            x       y       z     vdW  Elec       q    Type
REMARK                         _______ _______ _______ _____ _____    ______ ____
ROOT
ATOM      1  C   UNL     1       0.881  10.041  19.131  0.00  0.00    +0.000 A 
ATOM      2  C   UNL     1       0.894   9.364  20.369  0.00  0.00    +0.000 A 
ATOM      3  C   UNL     1       1.554   8.142  20.505  0.00  0.00    +0.000 A 
ATOM      4  C   UNL     1       2.200   7.562  19.411  0.00  0.00    +0.000 A 
ATOM      5  C   UNL     1       2.208   8.242  18.178  0.00  0.00    +0.000 A 
ATOM      6  C   UNL     1       1.550   9.469  18.040  0.00  0.00    +0.000 A 
ENDROOT
BRANCH   1   7
ATOM      7  O   UNL     1       0.231  11.225  18.955  0.00  0.00    +0.000 OA
BRANCH   7   8
ATOM      8  C   UNL     1      -1.137  11.367  19.075  0.00  0.00    +0.000 C 
BRANCH   8   9
ATOM      9  C   UNL     1      -1.778  11.858  17.785  0.00  0.00    +0.000 C 
BRANCH   9  10
ATOM     10 SE   UNL     1      -2.854  10.382  17.078  0.00  0.00    +0.000 Se
BRANCH  10  12
ATOM     11  N   UNL     1      -5.417  12.028  16.995  0.00  0.00    +0.000 NA
ATOM     12  C   UNL     1      -4.443  11.406  17.016  0.00  0.00    +0.000 C 
ENDBRANCH  10  12
ENDBRANCH   9  10
ENDBRANCH   8   9
ENDBRANCH   7   8
ENDBRANCH   1   7
BRANCH   4  13
ATOM     13  O   UNL     1       2.816   6.363  19.581  0.00  0.00    +0.000 OA
BRANCH  13  14
ATOM     14  C   UNL     1       2.226   5.140  19.594  0.00  0.00    +0.000 A 
ATOM     15  C   UNL     1       1.943   4.514  18.373  0.00  0.00    +0.000 A 
ATOM     16  C   UNL     1       1.338   3.253  18.349  0.00  0.00    +0.000 A 
ATOM     17  C   UNL     1       1.020   2.604  19.545  0.00  0.00    +0.000 A 
ATOM     18  C   UNL     1       1.313   3.211  20.768  0.00  0.00    +0.000 A 
ATOM     19  F   UNL     1       1.018   2.578  21.930  0.00  0.00    +0.000 F 
ATOM     20  C   UNL     1       1.916   4.470  20.796  0.00  0.00    +0.000 A 
ENDBRANCH  13  14
ENDBRANCH   4  13
TORSDOF 7
ENDMDL
MODEL 4
REMARK VINA RESULT:      -6.6      6.541      7.807
REMARK  Name = 
REMARK  7 active torsions:
REMARK  status: ('A' for Active; 'I' for Inactive)
REMARK    1  A    between atoms: C_2  and  SE_3
REMARK    2  A    between atoms: SE_3  and  C_4
REMARK    3  A    between atoms: C_4  and  C_5
REMARK    4  A    between atoms: C_5  and  O_6
REMARK    5  A    between atoms: O_6  and  C_7
REMARK    6  A    between atoms: C_10  and  O_11
REMARK    7  A    between atoms: O_11  and  C_12
REMARK                            x       y       z     vdW  Elec       q    Type
REMARK                         _______ _______ _______ _____ _____    ______ ____
ROOT
ATOM      1  C   UNL     1       0.569  10.148  19.006  0.00  0.00    +0.000 A 
ATOM      2  C   UNL     1       0.561   9.572  20.295  0.00  0.00    +0.000 A 
ATOM      3  C   UNL     1       1.293   8.415  20.563  0.00  0.00    +0.000 A 
ATOM      4  C   UNL     1       2.034   7.798  19.553  0.00  0.00    +0.000 A 
ATOM      5  C   UNL     1       2.063   8.379  18.270  0.00  0.00    +0.000 A 
ATOM      6  C   UNL     1       1.333   9.541  18.000  0.00  0.00    +0.000 A 
ENDROOT
BRANCH   1   7
ATOM      7  O   UNL     1      -0.149  11.265  18.702  0.00  0.00    +0.000 OA
BRANCH   7   8
ATOM      8  C   UNL     1      -1.526  11.329  18.782  0.00  0.00    +0.000 C 
BRANCH   8   9
ATOM      9  C   UNL     1      -2.201  10.291  17.898  0.00  0.00    +0.000 C 
BRANCH   9  10
ATOM     10 SE   UNL     1      -3.629  11.207  16.919  0.00  0.00    +0.000 Se
BRANCH  10  12
ATOM     11  N   UNL     1      -2.763  10.087  14.221  0.00  0.00    +0.000 NA
ATOM     12  C   UNL     1      -3.088  10.522  15.242  0.00  0.00    +0.000 C 
ENDBRANCH  10  12
ENDBRANCH   9  10
ENDBRANCH   8   9
ENDBRANCH   7   8
ENDBRANCH   1   7
BRANCH   4  13
ATOM     13  O   UNL     1       2.720   6.664  19.850  0.00  0.00    +0.000 OA
BRANCH  13  14
ATOM     14  C   UNL     1       2.295   5.387  19.672  0.00  0.00    +0.000 A 
ATOM     15  C   UNL     1       1.650   4.735  20.731  0.00  0.00    +0.000 A 
ATOM     16  C   UNL     1       1.198   3.420  20.581  0.00  0.00    +0.000 A 
ATOM     17  C   UNL     1       1.377   2.749  19.368  0.00  0.00    +0.000 A 
ATOM     18  C   UNL     1       2.003   3.396  18.299  0.00  0.00    +0.000 A 
ATOM     19  F   UNL     1       2.166   2.753  17.116  0.00  0.00    +0.000 F 
ATOM     20  C   UNL     1       2.457   4.707  18.445  0.00  0.00    +0.000 A 
ENDBRANCH  13  14
ENDBRANCH   4  13
TORSDOF 7
ENDMDL
MODEL 5
REMARK VINA RESULT:      -6.6      5.747      6.829
REMARK  Name = 
REMARK  7 active torsions:
REMARK  status: ('A' for Active; 'I' for Inactive)
REMARK    1  A    between atoms: C_2  and  SE_3
REMARK    2  A    between atoms: SE_3  and  C_4
REMARK    3  A    between atoms: C_4  and  C_5
REMARK    4  A    between atoms: C_5  and  O_6
REMARK    5  A    between atoms: O_6  and  C_7
REMARK    6  A    between atoms: C_10  and  O_11
REMARK    7  A    between atoms: O_11  and  C_12
REMARK                            x       y       z     vdW  Elec       q    Type
REMARK                         _______ _______ _______ _____ _____    ______ ____
ROOT
ATOM      1  C   UNL     1       1.112  10.001  18.911  0.00  0.00    +0.000 A 
ATOM      2  C   UNL     1       1.808   9.347  17.872  0.00  0.00    +0.000 A 
ATOM      3  C   UNL     1       2.382   8.092  18.079  0.00  0.00    +0.000 A 
ATOM      4  C   UNL     1       2.289   7.469  19.325  0.00  0.00    +0.000 A 
ATOM      5  C   UNL     1       1.578   8.106  20.360  0.00  0.00    +0.000 A 
ATOM      6  C   UNL     1       0.999   9.363  20.154  0.00  0.00    +0.000 A 
ENDROOT
BRANCH   1   7
ATOM      7  O   UNL     1       0.556  11.234  18.753  0.00  0.00    +0.000 OA
BRANCH   7   8
ATOM      8  C   UNL     1      -0.759  11.435  18.383  0.00  0.00    +0.000 C 
BRANCH   8   9
ATOM      9  C   UNL     1      -1.664  11.659  19.585  0.00  0.00    +0.000 C 
BRANCH   9  10
ATOM     10 SE   UNL     1      -0.776  12.968  20.740  0.00  0.00    +0.000 Se
BRANCH  10  12
ATOM     11  N   UNL     1      -0.556  11.036  23.085  0.00  0.00    +0.000 NA
ATOM     12  C   UNL     1      -0.629  11.769  22.195  0.00  0.00    +0.000 C 
ENDBRANCH  10  12
ENDBRANCH   9  10
ENDBRANCH   8   9
ENDBRANCH   7   8
ENDBRANCH   1   7
BRANCH   4  13
ATOM     13  O   UNL     1       2.876   6.254  19.490  0.00  0.00    +0.000 OA
BRANCH  13  14
ATOM     14  C   UNL     1       2.249   5.052  19.563  0.00  0.00    +0.000 A 
ATOM     15  C   UNL     1       1.852   4.424  18.376  0.00  0.00    +0.000 A 
ATOM     16  C   UNL     1       1.206   3.184  18.414  0.00  0.00    +0.000 A 
ATOM     17  C   UNL     1       0.961   2.557  19.638  0.00  0.00    +0.000 A 
ATOM     18  C   UNL     1       1.369   3.166  20.828  0.00  0.00    +0.000 A 
ATOM     19  F   UNL     1       1.146   2.553  22.017  0.00  0.00    +0.000 F 
ATOM     20  C   UNL     1       2.013   4.404  20.794  0.00  0.00    +0.000 A 
ENDBRANCH  13  14
ENDBRANCH   4  13
TORSDOF 7
ENDMDL
MODEL 6
REMARK VINA RESULT:      -6.6      1.169      1.904
REMARK  Name = 
REMARK  7 active torsions:
REMARK  status: ('A' for Active; 'I' for Inactive)
REMARK    1  A    between atoms: C_2  and  SE_3
REMARK    2  A    between atoms: SE_3  and  C_4
REMARK    3  A    between atoms: C_4  and  C_5
REMARK    4  A    between atoms: C_5  and  O_6
REMARK    5  A    between atoms: O_6  and  C_7
REMARK    6  A    between atoms: C_10  and  O_11
REMARK    7  A    between atoms: O_11  and  C_12
REMARK                            x       y       z     vdW  Elec       q    Type
REMARK                         _______ _______ _______ _____ _____    ______ ____
ROOT
ATOM      1  C   UNL     1       7.125   6.812  17.919  0.00  0.00    +0.000 A 
ATOM      2  C   UNL     1       6.982   5.508  18.440  0.00  0.00    +0.000 A 
ATOM      3  C   UNL     1       5.885   4.718  18.094  0.00  0.00    +0.000 A 
ATOM      4  C   UNL     1       4.901   5.214  17.237  0.00  0.00    +0.000 A 
ATOM      5  C   UNL     1       5.047   6.506  16.696  0.00  0.00    +0.000 A 
ATOM      6  C   UNL     1       6.148   7.298  17.039  0.00  0.00    +0.000 A 
ENDROOT
BRANCH   1   7
ATOM      7  O   UNL     1       8.171   7.619  18.250  0.00  0.00    +0.000 OA
BRANCH   7   8
ATOM      8  C   UNL     1       8.168   8.986  18.057  0.00  0.00    +0.000 C 
BRANCH   8   9
ATOM      9  C   UNL     1       9.145   9.697  18.982  0.00  0.00    +0.000 C 
BRANCH   9  10
ATOM     10 SE   UNL     1       9.693  11.349  18.081  0.00  0.00    +0.000 Se
BRANCH  10  12
ATOM     11  N   UNL     1      12.123  11.737  19.878  0.00  0.00    +0.000 NA
ATOM     12  C   UNL     1      11.204  11.598  19.190  0.00  0.00    +0.000 C 
ENDBRANCH  10  12
ENDBRANCH   9  10
ENDBRANCH   8   9
ENDBRANCH   7   8
ENDBRANCH   1   7
BRANCH   4  13
ATOM     13  O   UNL     1       3.840   4.419  16.937  0.00  0.00    +0.000 OA
BRANCH  13  14
ATOM     14  C   UNL     1       2.937   3.906  17.812  0.00  0.00    +0.000 A 
ATOM     15  C   UNL     1       2.692   2.527  17.798  0.00  0.00    +0.000 A 
ATOM     16  C   UNL     1       1.769   1.964  18.686  0.00  0.00    +0.000 A 
ATOM     17  C   UNL     1       1.092   2.774  19.602  0.00  0.00    +0.000 A 
ATOM     18  C   UNL     1       1.341   4.148  19.636  0.00  0.00    +0.000 A 
ATOM     19  F   UNL     1       0.695   4.935  20.532  0.00  0.00    +0.000 F 
ATOM     20  C   UNL     1       2.259   4.714  18.750  0.00  0.00    +0.000 A 
ENDBRANCH  13  14
ENDBRANCH   4  13
TORSDOF 7
ENDMDL
MODEL 7
REMARK VINA RESULT:      -6.5      1.586      1.830
REMARK  Name = 
REMARK  7 active torsions:
REMARK  status: ('A' for Active; 'I' for Inactive)
REMARK    1  A    between atoms: C_2  and  SE_3
REMARK    2  A    between atoms: SE_3  and  C_4
REMARK    3  A    between atoms: C_4  and  C_5
REMARK    4  A    between atoms: C_5  and  O_6
REMARK    5  A    between atoms: O_6  and  C_7
REMARK    6  A    between atoms: C_10  and  O_11
REMARK    7  A    between atoms: O_11  and  C_12
REMARK                            x       y       z     vdW  Elec       q    Type
REMARK                         _______ _______ _______ _____ _____    ______ ____
ROOT
ATOM      1  C   UNL     1       6.759   6.637  17.166  0.00  0.00    +0.000 A 
ATOM      2  C   UNL     1       5.581   6.442  16.414  0.00  0.00    +0.000 A 
ATOM      3  C   UNL     1       4.784   5.315  16.617  0.00  0.00    +0.000 A 
ATOM      4  C   UNL     1       5.149   4.352  17.559  0.00  0.00    +0.000 A 
ATOM      5  C   UNL     1       6.313   4.549  18.328  0.00  0.00    +0.000 A 
ATOM      6  C   UNL     1       7.111   5.680  18.128  0.00  0.00    +0.000 A 
ENDROOT
BRANCH   1   7
ATOM      7  O   UNL     1       7.572   7.714  16.982  0.00  0.00    +0.000 OA
BRANCH   7   8
ATOM      8  C   UNL     1       8.253   8.338  18.009  0.00  0.00    +0.000 C 
BRANCH   8   9
ATOM      9  C   UNL     1       8.233   9.853  17.872  0.00  0.00    +0.000 C 
BRANCH   9  10
ATOM     10 SE   UNL     1       9.389  10.574  19.279  0.00  0.00    +0.000 Se
BRANCH  10  12
ATOM     11  N   UNL     1       9.368  13.398  18.134  0.00  0.00    +0.000 NA
ATOM     12  C   UNL     1       9.366  12.328  18.571  0.00  0.00    +0.000 C 
ENDBRANCH  10  12
ENDBRANCH   9  10
ENDBRANCH   8   9
ENDBRANCH   7   8
ENDBRANCH   1   7
BRANCH   4  13
ATOM     13  O   UNL     1       4.355   3.260  17.714  0.00  0.00    +0.000 OA
BRANCH  13  14
ATOM     14  C   UNL     1       3.263   3.157  18.514  0.00  0.00    +0.000 A 
ATOM     15  C   UNL     1       1.994   3.107  17.923  0.00  0.00    +0.000 A 
ATOM     16  C   UNL     1       0.848   2.999  18.717  0.00  0.00    +0.000 A 
ATOM     17  C   UNL     1       0.961   2.929  20.108  0.00  0.00    +0.000 A 
ATOM     18  C   UNL     1       2.223   2.959  20.708  0.00  0.00    +0.000 A 
ATOM     19  F   UNL     1       2.337   2.877  22.057  0.00  0.00    +0.000 F 
ATOM     20  C   UNL     1       3.369   3.069  19.919  0.00  0.00    +0.000 A 
ENDBRANCH  13  14
ENDBRANCH   4  13
TORSDOF 7
ENDMDL
MODEL 8
REMARK VINA RESULT:      -6.5      1.710      2.272
REMARK  Name = 
REMARK  7 active torsions:
REMARK  status: ('A' for Active; 'I' for Inactive)
REMARK    1  A    between atoms: C_2  and  SE_3
REMARK    2  A    between atoms: SE_3  and  C_4
REMARK    3  A    between atoms: C_4  and  C_5
REMARK    4  A    between atoms: C_5  and  O_6
REMARK    5  A    between atoms: O_6  and  C_7
REMARK    6  A    between atoms: C_10  and  O_11
REMARK    7  A    between atoms: O_11  and  C_12
REMARK                            x       y       z     vdW  Elec       q    Type
REMARK                         _______ _______ _______ _____ _____    ______ ____
ROOT
ATOM      1  C   UNL     1       7.471   7.165  17.730  0.00  0.00    +0.000 A 
ATOM      2  C   UNL     1       7.904   6.428  18.853  0.00  0.00    +0.000 A 
ATOM      3  C   UNL     1       7.182   5.320  19.300  0.00  0.00    +0.000 A 
ATOM      4  C   UNL     1       6.008   4.934  18.651  0.00  0.00    +0.000 A 
ATOM      5  C   UNL     1       5.581   5.652  17.518  0.00  0.00    +0.000 A 
ATOM      6  C   UNL     1       6.305   6.760  17.066  0.00  0.00    +0.000 A 
ENDROOT
BRANCH   1   7
ATOM      7  O   UNL     1       8.138   8.263  17.277  0.00  0.00    +0.000 OA
BRANCH   7   8
ATOM      8  C   UNL     1       7.955   9.531  17.792  0.00  0.00    +0.000 C 
BRANCH   8   9
ATOM      9  C   UNL     1       9.011   9.886  18.828  0.00  0.00    +0.000 C 
BRANCH   9  10
ATOM     10 SE   UNL     1      10.105  11.322  18.067  0.00  0.00    +0.000 Se
BRANCH  10  12
ATOM     11  N   UNL     1       7.695  13.047  17.359  0.00  0.00    +0.000 NA
ATOM     12  C   UNL     1       8.610  12.390  17.617  0.00  0.00    +0.000 C 
ENDBRANCH  10  12
ENDBRANCH   9  10
ENDBRANCH   8   9
ENDBRANCH   7   8
ENDBRANCH   1   7
BRANCH   4  13
ATOM     13  O   UNL     1       5.326   3.860  19.128  0.00  0.00    +0.000 OA
BRANCH  13  14
ATOM     14  C   UNL     1       3.990   3.782  19.357  0.00  0.00    +0.000 A 
ATOM     15  C   UNL     1       3.305   2.622  18.973  0.00  0.00    +0.000 A 
ATOM     16  C   UNL     1       1.929   2.508  19.195  0.00  0.00    +0.000 A 
ATOM     17  C   UNL     1       1.228   3.547  19.812  0.00  0.00    +0.000 A 
ATOM     18  C   UNL     1       1.904   4.701  20.215  0.00  0.00    +0.000 A 
ATOM     19  F   UNL     1       1.229   5.707  20.826  0.00  0.00    +0.000 F 
ATOM     20  C   UNL     1       3.277   4.820  19.994  0.00  0.00    +0.000 A 
ENDBRANCH  13  14
ENDBRANCH   4  13
TORSDOF 7
ENDMDL
MODEL 9
REMARK VINA RESULT:      -6.5      6.695      7.972
REMARK  Name = 
REMARK  7 active torsions:
REMARK  status: ('A' for Active; 'I' for Inactive)
REMARK    1  A    between atoms: C_2  and  SE_3
REMARK    2  A    between atoms: SE_3  and  C_4
REMARK    3  A    between atoms: C_4  and  C_5
REMARK    4  A    between atoms: C_5  and  O_6
REMARK    5  A    between atoms: O_6  and  C_7
REMARK    6  A    between atoms: C_10  and  O_11
REMARK    7  A    between atoms: O_11  and  C_12
REMARK                            x       y       z     vdW  Elec       q    Type
REMARK                         _______ _______ _______ _____ _____    ______ ____
ROOT
ATOM      1  C   UNL     1       0.643  10.180  19.483  0.00  0.00    +0.000 A 
ATOM      2  C   UNL     1       1.292   9.639  18.353  0.00  0.00    +0.000 A 
ATOM      3  C   UNL     1       1.957   8.414  18.432  0.00  0.00    +0.000 A 
ATOM      4  C   UNL     1       2.004   7.713  19.637  0.00  0.00    +0.000 A 
ATOM      5  C   UNL     1       1.342   8.237  20.764  0.00  0.00    +0.000 A 
ATOM      6  C   UNL     1       0.671   9.462  20.686  0.00  0.00    +0.000 A 
ENDROOT
BRANCH   1   7
ATOM      7  O   UNL     1       0.002  11.381  19.449  0.00  0.00    +0.000 OA
BRANCH   7   8
ATOM      8  C   UNL     1      -1.361  11.511  19.269  0.00  0.00    +0.000 C 
BRANCH   8   9
ATOM      9  C   UNL     1      -1.730  11.700  17.804  0.00  0.00    +0.000 C 
BRANCH   9  10
ATOM     10 SE   UNL     1      -2.678  10.083  17.236  0.00  0.00    +0.000 Se
BRANCH  10  12
ATOM     11  N   UNL     1      -5.420  11.193  17.968  0.00  0.00    +0.000 NA
ATOM     12  C   UNL     1      -4.381  10.776  17.680  0.00  0.00    +0.000 C 
ENDBRANCH  10  12
ENDBRANCH   9  10
ENDBRANCH   8   9
ENDBRANCH   7   8
ENDBRANCH   1   7
BRANCH   4  13
ATOM     13  O   UNL     1       2.677   6.532  19.677  0.00  0.00    +0.000 OA
BRANCH  13  14
ATOM     14  C   UNL     1       2.138   5.287  19.618  0.00  0.00    +0.000 A 
ATOM     15  C   UNL     1       1.959   4.688  18.364  0.00  0.00    +0.000 A 
ATOM     16  C   UNL     1       1.408   3.406  18.267  0.00  0.00    +0.000 A 
ATOM     17  C   UNL     1       1.042   2.709  19.421  0.00  0.00    +0.000 A 
ATOM     18  C   UNL     1       1.233   3.289  20.677  0.00  0.00    +0.000 A 
ATOM     19  F   UNL     1       0.891   2.610  21.800  0.00  0.00    +0.000 F 
ATOM     20  C   UNL     1       1.780   4.569  20.779  0.00  0.00    +0.000 A 
ENDBRANCH  13  14
ENDBRANCH   4  13
TORSDOF 7
ENDMDL
