MODEL 1
REMARK VINA RESULT:      -7.9      0.000      0.000
REMARK  Name = 
REMARK  4 active torsions:
REMARK  status: ('A' for Active; 'I' for Inactive)
REMARK    1  A    between atoms: N_3  and  C_4
REMARK    2  A    between atoms: C_4  and  C_5
REMARK    3  A    between atoms: C_8  and  N_9
REMARK    4  A    between atoms: N_17  and  C_18
REMARK                            x       y       z     vdW  Elec       q    Type
REMARK                         _______ _______ _______ _____ _____    ______ ____
ROOT
ATOM      1  C   UNL     1       7.717   7.100  17.287  0.00  0.00    +0.000 C 
ENDROOT
BRANCH   1   4
ATOM      2  O   UNL     1       7.563   9.950  17.380  0.00  0.00    +0.000 OA
ATOM      3  C   UNL     1       8.254   9.345  18.188  0.00  0.00    +0.000 C 
ATOM      4  N   UNL     1       8.361   7.980  18.237  0.00  0.00    +0.000 N 
ATOM      5  N   UNL     1       9.040   9.951  19.138  0.00  0.00    +0.000 N 
ATOM      6  H   UNL     1       8.934   7.557  18.948  0.00  0.00    +0.000 HD
ATOM      7  H   UNL     1       9.492   9.365  19.821  0.00  0.00    +0.000 HD
BRANCH   5   8
ATOM      8  C   UNL     1       9.121  11.401  19.310  0.00  0.00    +0.000 C 
ATOM      9  C   UNL     1      10.085  11.794  20.437  0.00  0.00    +0.000 C 
ATOM     10  C   UNL     1      11.542  11.479  20.100  0.00  0.00    +0.000 C 
ATOM     11  C   UNL     1      11.982  12.067  18.761  0.00  0.00    +0.000 C 
ATOM     12  C   UNL     1      10.998  11.811  17.623  0.00  0.00    +0.000 C 
ATOM     13  C   UNL     1       9.543  12.084  18.003  0.00  0.00    +0.000 C 
ENDBRANCH   5   8
ENDBRANCH   1   4
BRANCH   1  14
ATOM     14  C   UNL     1       6.482   6.464  17.880  0.00  0.00    +0.000 A 
ATOM     15  C   UNL     1       6.575   5.503  18.891  0.00  0.00    +0.000 A 
ATOM     16  C   UNL     1       5.424   4.884  19.407  0.00  0.00    +0.000 A 
ATOM     17  C   UNL     1       4.144   5.187  18.916  0.00  0.00    +0.000 A 
ATOM     18  C   UNL     1       4.063   6.164  17.912  0.00  0.00    +0.000 A 
ATOM     19  C   UNL     1       5.211   6.794  17.403  0.00  0.00    +0.000 A 
BRANCH  17  20
ATOM     20  N   UNL     1       2.975   4.516  19.385  0.00  0.00    +0.000 N 
ATOM     21  C   UNL     1       2.121   5.073  20.407  0.00  0.00    +0.000 C 
ATOM     22  C   UNL     1       1.160   3.958  20.763  0.00  0.00    +0.000 C 
ATOM     23  C   UNL     1       1.051   3.153  19.483  0.00  0.00    +0.000 C 
ATOM     24  C   UNL     1       2.383   3.382  18.810  0.00  0.00    +0.000 C 
ATOM     25  O   UNL     1       2.785   2.676  17.892  0.00  0.00    +0.000 OA
ENDBRANCH  17  20
ENDBRANCH   1  14
TORSDOF 4
ENDMDL
MODEL 2
REMARK VINA RESULT:      -7.8      1.044      1.350
REMARK  Name = 
REMARK  4 active torsions:
REMARK  status: ('A' for Active; 'I' for Inactive)
REMARK    1  A    between atoms: N_3  and  C_4
REMARK    2  A    between atoms: C_4  and  C_5
REMARK    3  A    between atoms: C_8  and  N_9
REMARK    4  A    between atoms: N_17  and  C_18
REMARK                            x       y       z     vdW  Elec       q    Type
REMARK                         _______ _______ _______ _____ _____    ______ ____
ROOT
ATOM      1  C   UNL     1       7.788   6.832  17.424  0.00  0.00    +0.000 C 
ENDROOT
BRANCH   1   4
ATOM      2  O   UNL     1       7.670   9.660  17.041  0.00  0.00    +0.000 OA
ATOM      3  C   UNL     1       8.238   9.195  18.020  0.00  0.00    +0.000 C 
ATOM      4  N   UNL     1       8.316   7.855  18.299  0.00  0.00    +0.000 N 
ATOM      5  N   UNL     1       8.902   9.948  18.957  0.00  0.00    +0.000 N 
ATOM      6  H   UNL     1       8.782   7.554  19.138  0.00  0.00    +0.000 HD
ATOM      7  H   UNL     1       9.250   9.481  19.778  0.00  0.00    +0.000 HD
BRANCH   5   8
ATOM      8  C   UNL     1       8.983  11.408  18.905  0.00  0.00    +0.000 C 
ATOM      9  C   UNL     1       9.239  12.019  20.289  0.00  0.00    +0.000 C 
ATOM     10  C   UNL     1      10.629  11.690  20.830  0.00  0.00    +0.000 C 
ATOM     11  C   UNL     1      11.746  12.044  19.851  0.00  0.00    +0.000 C 
ATOM     12  C   UNL     1      11.490  11.564  18.424  0.00  0.00    +0.000 C 
ATOM     13  C   UNL     1      10.075  11.861  17.928  0.00  0.00    +0.000 C 
ENDBRANCH   5   8
ENDBRANCH   1   4
BRANCH   1  14
ATOM     14  C   UNL     1       6.492   6.271  17.958  0.00  0.00    +0.000 A 
ATOM     15  C   UNL     1       6.477   5.353  19.011  0.00  0.00    +0.000 A 
ATOM     16  C   UNL     1       5.269   4.801  19.472  0.00  0.00    +0.000 A 
ATOM     17  C   UNL     1       4.039   5.132  18.883  0.00  0.00    +0.000 A 
ATOM     18  C   UNL     1       4.065   6.066  17.837  0.00  0.00    +0.000 A 
ATOM     19  C   UNL     1       5.269   6.629  17.381  0.00  0.00    +0.000 A 
BRANCH  17  20
ATOM     20  N   UNL     1       2.814   4.528  19.299  0.00  0.00    +0.000 N 
ATOM     21  C   UNL     1       2.516   3.136  19.055  0.00  0.00    +0.000 C 
ATOM     22  C   UNL     1       1.059   2.977  19.435  0.00  0.00    +0.000 C 
ATOM     23  C   UNL     1       0.848   4.031  20.505  0.00  0.00    +0.000 C 
ATOM     24  C   UNL     1       1.857   5.097  20.152  0.00  0.00    +0.000 C 
ATOM     25  O   UNL     1       1.802   6.231  20.612  0.00  0.00    +0.000 OA
ENDBRANCH  17  20
ENDBRANCH   1  14
TORSDOF 4
ENDMDL
MODEL 3
REMARK VINA RESULT:      -7.7      0.230      1.025
REMARK  Name = 
REMARK  4 active torsions:
REMARK  status: ('A' for Active; 'I' for Inactive)
REMARK    1  A    between atoms: N_3  and  C_4
REMARK    2  A    between atoms: C_4  and  C_5
REMARK    3  A    between atoms: C_8  and  N_9
REMARK    4  A    between atoms: N_17  and  C_18
REMARK                            x       y       z     vdW  Elec       q    Type
REMARK                         _______ _______ _______ _____ _____    ______ ____
ROOT
ATOM      1  C   UNL     1       7.859   7.282  17.220  0.00  0.00    +0.000 C 
ENDROOT
BRANCH   1   4
ATOM      2  O   UNL     1       7.781  10.131  17.395  0.00  0.00    +0.000 OA
ATOM      3  C   UNL     1       8.371   9.479  18.245  0.00  0.00    +0.000 C 
ATOM      4  N   UNL     1       8.433   8.110  18.257  0.00  0.00    +0.000 N 
ATOM      5  N   UNL     1       9.079  10.029  19.286  0.00  0.00    +0.000 N 
ATOM      6  H   UNL     1       8.921   7.647  19.005  0.00  0.00    +0.000 HD
ATOM      7  H   UNL     1       9.445   9.408  19.988  0.00  0.00    +0.000 HD
BRANCH   5   8
ATOM      8  C   UNL     1       9.186  11.470  19.514  0.00  0.00    +0.000 C 
ATOM      9  C   UNL     1      10.252  11.808  20.564  0.00  0.00    +0.000 C 
ATOM     10  C   UNL     1      11.669  11.505  20.082  0.00  0.00    +0.000 C 
ATOM     11  C   UNL     1      11.990  12.151  18.736  0.00  0.00    +0.000 C 
ATOM     12  C   UNL     1      10.904  11.949  17.682  0.00  0.00    +0.000 C 
ATOM     13  C   UNL     1       9.492  12.210  18.206  0.00  0.00    +0.000 C 
ENDBRANCH   5   8
ENDBRANCH   1   4
BRANCH   1  14
ATOM     14  C   UNL     1       6.623   6.566  17.712  0.00  0.00    +0.000 A 
ATOM     15  C   UNL     1       5.358   6.865  17.200  0.00  0.00    +0.000 A 
ATOM     16  C   UNL     1       4.209   6.227  17.695  0.00  0.00    +0.000 A 
ATOM     17  C   UNL     1       4.281   5.285  18.733  0.00  0.00    +0.000 A 
ATOM     18  C   UNL     1       5.558   4.982  19.229  0.00  0.00    +0.000 A 
ATOM     19  C   UNL     1       6.711   5.610  18.728  0.00  0.00    +0.000 A 
BRANCH  17  20
ATOM     20  N   UNL     1       3.114   4.680  19.289  0.00  0.00    +0.000 N 
ATOM     21  C   UNL     1       2.315   5.328  20.302  0.00  0.00    +0.000 C 
ATOM     22  C   UNL     1       1.339   4.267  20.768  0.00  0.00    +0.000 C 
ATOM     23  C   UNL     1       1.160   3.383  19.549  0.00  0.00    +0.000 C 
ATOM     24  C   UNL     1       2.470   3.528  18.813  0.00  0.00    +0.000 C 
ATOM     25  O   UNL     1       2.817   2.752  17.931  0.00  0.00    +0.000 OA
ENDBRANCH  17  20
ENDBRANCH   1  14
TORSDOF 4
ENDMDL
MODEL 4
REMARK VINA RESULT:      -7.7      1.067      1.632
REMARK  Name = 
REMARK  4 active torsions:
REMARK  status: ('A' for Active; 'I' for Inactive)
REMARK    1  A    between atoms: N_3  and  C_4
REMARK    2  A    between atoms: C_4  and  C_5
REMARK    3  A    between atoms: C_8  and  N_9
REMARK    4  A    between atoms: N_17  and  C_18
REMARK                            x       y       z     vdW  Elec       q    Type
REMARK                         _______ _______ _______ _____ _____    ______ ____
ROOT
ATOM      1  C   UNL     1       7.729   7.533  17.131  0.00  0.00    +0.000 C 
ENDROOT
BRANCH   1   4
ATOM      2  O   UNL     1       7.711  10.368  17.478  0.00  0.00    +0.000 OA
ATOM      3  C   UNL     1       8.369   9.661  18.228  0.00  0.00    +0.000 C 
ATOM      4  N   UNL     1       8.411   8.293  18.155  0.00  0.00    +0.000 N 
ATOM      5  N   UNL     1       9.181  10.141  19.227  0.00  0.00    +0.000 N 
ATOM      6  H   UNL     1       8.961   7.782  18.825  0.00  0.00    +0.000 HD
ATOM      7  H   UNL     1       9.602   9.476  19.854  0.00  0.00    +0.000 HD
BRANCH   5   8
ATOM      8  C   UNL     1       9.330  11.565  19.527  0.00  0.00    +0.000 C 
ATOM      9  C   UNL     1      10.496  11.831  20.489  0.00  0.00    +0.000 C 
ATOM     10  C   UNL     1      11.857  11.543  19.857  0.00  0.00    +0.000 C 
ATOM     11  C   UNL     1      12.058  12.264  18.527  0.00  0.00    +0.000 C 
ATOM     12  C   UNL     1      10.875  12.136  17.571  0.00  0.00    +0.000 C 
ATOM     13  C   UNL     1       9.523  12.378  18.241  0.00  0.00    +0.000 C 
ENDBRANCH   5   8
ENDBRANCH   1   4
BRANCH   1  14
ATOM     14  C   UNL     1       6.621   6.692  17.720  0.00  0.00    +0.000 A 
ATOM     15  C   UNL     1       5.312   6.776  17.239  0.00  0.00    +0.000 A 
ATOM     16  C   UNL     1       4.278   6.024  17.822  0.00  0.00    +0.000 A 
ATOM     17  C   UNL     1       4.513   5.179  18.919  0.00  0.00    +0.000 A 
ATOM     18  C   UNL     1       5.835   5.092  19.383  0.00  0.00    +0.000 A 
ATOM     19  C   UNL     1       6.873   5.834  18.795  0.00  0.00    +0.000 A 
BRANCH  17  20
ATOM     20  N   UNL     1       3.460   4.462  19.561  0.00  0.00    +0.000 N 
ATOM     21  C   UNL     1       3.515   3.035  19.778  0.00  0.00    +0.000 C 
ATOM     22  C   UNL     1       2.129   2.660  20.260  0.00  0.00    +0.000 C 
ATOM     23  C   UNL     1       1.637   3.914  20.957  0.00  0.00    +0.000 C 
ATOM     24  C   UNL     1       2.368   5.024  20.240  0.00  0.00    +0.000 C 
ATOM     25  O   UNL     1       2.027   6.197  20.325  0.00  0.00    +0.000 OA
ENDBRANCH  17  20
ENDBRANCH   1  14
TORSDOF 4
ENDMDL
MODEL 5
REMARK VINA RESULT:      -7.6      5.305      7.621
REMARK  Name = 
REMARK  4 active torsions:
REMARK  status: ('A' for Active; 'I' for Inactive)
REMARK    1  A    between atoms: N_3  and  C_4
REMARK    2  A    between atoms: C_4  and  C_5
REMARK    3  A    between atoms: C_8  and  N_9
REMARK    4  A    between atoms: N_17  and  C_18
REMARK                            x       y       z     vdW  Elec       q    Type
REMARK                         _______ _______ _______ _____ _____    ______ ____
ROOT
ATOM      1  C   UNL     1       3.217   6.053  19.135  0.00  0.00    +0.000 C 
ENDROOT
BRANCH   1   4
ATOM      2  O   UNL     1       1.499   7.389  20.984  0.00  0.00    +0.000 OA
ATOM      3  C   UNL     1       1.798   7.925  19.926  0.00  0.00    +0.000 C 
ATOM      4  N   UNL     1       2.640   7.372  18.996  0.00  0.00    +0.000 N 
ATOM      5  N   UNL     1       1.310   9.140  19.510  0.00  0.00    +0.000 N 
ATOM      6  H   UNL     1       2.855   7.887  18.159  0.00  0.00    +0.000 HD
ATOM      7  H   UNL     1       1.695   9.541  18.671  0.00  0.00    +0.000 HD
BRANCH   5   8
ATOM      8  C   UNL     1       0.388   9.950  20.304  0.00  0.00    +0.000 C 
ATOM      9  C   UNL     1       1.014  11.286  20.726  0.00  0.00    +0.000 C 
ATOM     10  C   UNL     1       1.248  12.224  19.543  0.00  0.00    +0.000 C 
ATOM     11  C   UNL     1      -0.005  12.439  18.698  0.00  0.00    +0.000 C 
ATOM     12  C   UNL     1      -0.741  11.148  18.347  0.00  0.00    +0.000 C 
ATOM     13  C   UNL     1      -0.916  10.206  19.538  0.00  0.00    +0.000 C 
ENDBRANCH   5   8
ENDBRANCH   1   4
BRANCH   1  14
ATOM     14  C   UNL     1       3.980   5.655  17.893  0.00  0.00    +0.000 A 
ATOM     15  C   UNL     1       4.544   6.615  17.049  0.00  0.00    +0.000 A 
ATOM     16  C   UNL     1       5.213   6.239  15.872  0.00  0.00    +0.000 A 
ATOM     17  C   UNL     1       5.322   4.894  15.487  0.00  0.00    +0.000 A 
ATOM     18  C   UNL     1       4.765   3.938  16.351  0.00  0.00    +0.000 A 
ATOM     19  C   UNL     1       4.106   4.310  17.534  0.00  0.00    +0.000 A 
BRANCH  17  20
ATOM     20  N   UNL     1       5.940   4.505  14.261  0.00  0.00    +0.000 N 
ATOM     21  C   UNL     1       5.232   3.779  13.234  0.00  0.00    +0.000 C 
ATOM     22  C   UNL     1       6.298   3.374  12.237  0.00  0.00    +0.000 C 
ATOM     23  C   UNL     1       7.344   4.463  12.365  0.00  0.00    +0.000 C 
ATOM     24  C   UNL     1       7.193   4.931  13.792  0.00  0.00    +0.000 C 
ATOM     25  O   UNL     1       8.046   5.603  14.358  0.00  0.00    +0.000 OA
ENDBRANCH  17  20
ENDBRANCH   1  14
TORSDOF 4
ENDMDL
MODEL 6
REMARK VINA RESULT:      -7.4      5.308      7.599
REMARK  Name = 
REMARK  4 active torsions:
REMARK  status: ('A' for Active; 'I' for Inactive)
REMARK    1  A    between atoms: N_3  and  C_4
REMARK    2  A    between atoms: C_4  and  C_5
REMARK    3  A    between atoms: C_8  and  N_9
REMARK    4  A    between atoms: N_17  and  C_18
REMARK                            x       y       z     vdW  Elec       q    Type
REMARK                         _______ _______ _______ _____ _____    ______ ____
ROOT
ATOM      1  C   UNL     1       3.363   6.239  19.206  0.00  0.00    +0.000 C 
ENDROOT
BRANCH   1   4
ATOM      2  O   UNL     1       1.493   7.390  21.031  0.00  0.00    +0.000 OA
ATOM      3  C   UNL     1       1.733   7.944  19.967  0.00  0.00    +0.000 C 
ATOM      4  N   UNL     1       2.638   7.480  19.047  0.00  0.00    +0.000 N 
ATOM      5  N   UNL     1       1.109   9.088  19.534  0.00  0.00    +0.000 N 
ATOM      6  H   UNL     1       2.795   8.006  18.205  0.00  0.00    +0.000 HD
ATOM      7  H   UNL     1       1.449   9.521  18.691  0.00  0.00    +0.000 HD
BRANCH   5   8
ATOM      8  C   UNL     1       0.095   9.796  20.315  0.00  0.00    +0.000 C 
ATOM      9  C   UNL     1       0.700  10.941  21.139  0.00  0.00    +0.000 C 
ATOM     10  C   UNL     1       1.217  12.084  20.267  0.00  0.00    +0.000 C 
ATOM     11  C   UNL     1       0.171  12.600  19.283  0.00  0.00    +0.000 C 
ATOM     12  C   UNL     1      -0.553  11.495  18.517  0.00  0.00    +0.000 C 
ATOM     13  C   UNL     1      -1.014  10.341  19.406  0.00  0.00    +0.000 C 
ENDBRANCH   5   8
ENDBRANCH   1   4
BRANCH   1  14
ATOM     14  C   UNL     1       3.968   5.788  17.898  0.00  0.00    +0.000 A 
ATOM     15  C   UNL     1       4.029   4.435  17.554  0.00  0.00    +0.000 A 
ATOM     16  C   UNL     1       4.633   4.020  16.356  0.00  0.00    +0.000 A 
ATOM     17  C   UNL     1       5.215   4.940  15.470  0.00  0.00    +0.000 A 
ATOM     18  C   UNL     1       5.134   6.297  15.818  0.00  0.00    +0.000 A 
ATOM     19  C   UNL     1       4.520   6.716  17.010  0.00  0.00    +0.000 A 
BRANCH  17  20
ATOM     20  N   UNL     1       5.890   4.525  14.283  0.00  0.00    +0.000 N 
ATOM     21  C   UNL     1       5.229   3.778  13.238  0.00  0.00    +0.000 C 
ATOM     22  C   UNL     1       6.340   3.350  12.302  0.00  0.00    +0.000 C 
ATOM     23  C   UNL     1       7.382   4.441  12.457  0.00  0.00    +0.000 C 
ATOM     24  C   UNL     1       7.164   4.939  13.865  0.00  0.00    +0.000 C 
ATOM     25  O   UNL     1       7.991   5.622  14.457  0.00  0.00    +0.000 OA
ENDBRANCH  17  20
ENDBRANCH   1  14
TORSDOF 4
ENDMDL
MODEL 7
REMARK VINA RESULT:      -7.2      6.844      9.739
REMARK  Name = 
REMARK  4 active torsions:
REMARK  status: ('A' for Active; 'I' for Inactive)
REMARK    1  A    between atoms: N_3  and  C_4
REMARK    2  A    between atoms: C_4  and  C_5
REMARK    3  A    between atoms: C_8  and  N_9
REMARK    4  A    between atoms: N_17  and  C_18
REMARK                            x       y       z     vdW  Elec       q    Type
REMARK                         _______ _______ _______ _____ _____    ______ ____
ROOT
ATOM      1  C   UNL     1       1.420   9.852  18.606  0.00  0.00    +0.000 C 
ENDROOT
BRANCH   1   4
ATOM      2  O   UNL     1       3.210   7.740  17.907  0.00  0.00    +0.000 OA
ATOM      3  C   UNL     1       2.433   7.603  18.841  0.00  0.00    +0.000 C 
ATOM      4  N   UNL     1       1.563   8.573  19.266  0.00  0.00    +0.000 N 
ATOM      5  N   UNL     1       2.304   6.449  19.576  0.00  0.00    +0.000 N 
ATOM      6  H   UNL     1       0.972   8.391  20.058  0.00  0.00    +0.000 HD
ATOM      7  H   UNL     1       1.710   6.470  20.388  0.00  0.00    +0.000 HD
BRANCH   5   8
ATOM      8  C   UNL     1       3.107   5.250  19.337  0.00  0.00    +0.000 C 
ATOM      9  C   UNL     1       2.918   4.203  20.443  0.00  0.00    +0.000 C 
ATOM     10  C   UNL     1       1.517   3.594  20.443  0.00  0.00    +0.000 C 
ATOM     11  C   UNL     1       1.109   3.043  19.079  0.00  0.00    +0.000 C 
ATOM     12  C   UNL     1       1.386   3.998  17.920  0.00  0.00    +0.000 C 
ATOM     13  C   UNL     1       2.776   4.631  17.973  0.00  0.00    +0.000 C 
ENDBRANCH   5   8
ENDBRANCH   1   4
BRANCH   1  14
ATOM     14  C   UNL     1      -0.027  10.280  18.549  0.00  0.00    +0.000 A 
ATOM     15  C   UNL     1      -0.936   9.654  17.691  0.00  0.00    +0.000 A 
ATOM     16  C   UNL     1      -2.270  10.087  17.612  0.00  0.00    +0.000 A 
ATOM     17  C   UNL     1      -2.737  11.172  18.370  0.00  0.00    +0.000 A 
ATOM     18  C   UNL     1      -1.819  11.783  19.238  0.00  0.00    +0.000 A 
ATOM     19  C   UNL     1      -0.487  11.345  19.329  0.00  0.00    +0.000 A 
BRANCH  17  20
ATOM     20  N   UNL     1      -4.071  11.663  18.248  0.00  0.00    +0.000 N 
ATOM     21  C   UNL     1      -4.755  12.323  19.334  0.00  0.00    +0.000 C 
ATOM     22  C   UNL     1      -6.189  12.462  18.866  0.00  0.00    +0.000 C 
ATOM     23  C   UNL     1      -6.068  12.550  17.357  0.00  0.00    +0.000 C 
ATOM     24  C   UNL     1      -4.808  11.773  17.059  0.00  0.00    +0.000 C 
ATOM     25  O   UNL     1      -4.530  11.380  15.933  0.00  0.00    +0.000 OA
ENDBRANCH  17  20
ENDBRANCH   1  14
TORSDOF 4
ENDMDL
MODEL 8
REMARK VINA RESULT:      -7.2      0.949      1.204
REMARK  Name = 
REMARK  4 active torsions:
REMARK  status: ('A' for Active; 'I' for Inactive)
REMARK    1  A    between atoms: N_3  and  C_4
REMARK    2  A    between atoms: C_4  and  C_5
REMARK    3  A    between atoms: C_8  and  N_9
REMARK    4  A    between atoms: N_17  and  C_18
REMARK                            x       y       z     vdW  Elec       q    Type
REMARK                         _______ _______ _______ _____ _____    ______ ____
ROOT
ATOM      1  C   UNL     1       7.621   6.951  16.999  0.00  0.00    +0.000 C 
ENDROOT
BRANCH   1   4
ATOM      2  O   UNL     1       9.078   8.369  19.004  0.00  0.00    +0.000 OA
ATOM      3  C   UNL     1       8.408   8.980  18.184  0.00  0.00    +0.000 C 
ATOM      4  N   UNL     1       7.704   8.384  17.170  0.00  0.00    +0.000 N 
ATOM      5  N   UNL     1       8.244  10.344  18.183  0.00  0.00    +0.000 N 
ATOM      6  H   UNL     1       7.194   8.960  16.521  0.00  0.00    +0.000 HD
ATOM      7  H   UNL     1       7.757  10.761  17.407  0.00  0.00    +0.000 HD
BRANCH   5   8
ATOM      8  C   UNL     1       8.880  11.231  19.157  0.00  0.00    +0.000 C 
ATOM      9  C   UNL     1      10.411  11.133  19.110  0.00  0.00    +0.000 C 
ATOM     10  C   UNL     1      10.996  11.691  17.813  0.00  0.00    +0.000 C 
ATOM     11  C   UNL     1      10.520  13.109  17.508  0.00  0.00    +0.000 C 
ATOM     12  C   UNL     1       9.012  13.298  17.657  0.00  0.00    +0.000 C 
ATOM     13  C   UNL     1       8.446  12.686  18.937  0.00  0.00    +0.000 C 
ENDBRANCH   5   8
ENDBRANCH   1   4
BRANCH   1  14
ATOM     14  C   UNL     1       6.377   6.393  17.650  0.00  0.00    +0.000 A 
ATOM     15  C   UNL     1       6.457   5.465  18.692  0.00  0.00    +0.000 A 
ATOM     16  C   UNL     1       5.296   4.918  19.262  0.00  0.00    +0.000 A 
ATOM     17  C   UNL     1       4.017   5.262  18.798  0.00  0.00    +0.000 A 
ATOM     18  C   UNL     1       3.949   6.206  17.762  0.00  0.00    +0.000 A 
ATOM     19  C   UNL     1       5.108   6.765  17.198  0.00  0.00    +0.000 A 
BRANCH  17  20
ATOM     20  N   UNL     1       2.834   4.663  19.325  0.00  0.00    +0.000 N 
ATOM     21  C   UNL     1       1.928   5.373  20.196  0.00  0.00    +0.000 C 
ATOM     22  C   UNL     1       0.961   4.320  20.697  0.00  0.00    +0.000 C 
ATOM     23  C   UNL     1       0.919   3.305  19.572  0.00  0.00    +0.000 C 
ATOM     24  C   UNL     1       2.279   3.436  18.929  0.00  0.00    +0.000 C 
ATOM     25  O   UNL     1       2.730   2.590  18.166  0.00  0.00    +0.000 OA
ENDBRANCH  17  20
ENDBRANCH   1  14
TORSDOF 4
ENDMDL
MODEL 9
REMARK VINA RESULT:      -7.2      1.390      1.769
REMARK  Name = 
REMARK  4 active torsions:
REMARK  status: ('A' for Active; 'I' for Inactive)
REMARK    1  A    between atoms: N_3  and  C_4
REMARK    2  A    between atoms: C_4  and  C_5
REMARK    3  A    between atoms: C_8  and  N_9
REMARK    4  A    between atoms: N_17  and  C_18
REMARK                            x       y       z     vdW  Elec       q    Type
REMARK                         _______ _______ _______ _____ _____    ______ ____
ROOT
ATOM      1  C   UNL     1       7.589   6.751  16.990  0.00  0.00    +0.000 C 
ENDROOT
BRANCH   1   4
ATOM      2  O   UNL     1       8.990   8.207  19.009  0.00  0.00    +0.000 OA
ATOM      3  C   UNL     1       8.352   8.803  18.152  0.00  0.00    +0.000 C 
ATOM      4  N   UNL     1       7.677   8.188  17.129  0.00  0.00    +0.000 N 
ATOM      5  N   UNL     1       8.199  10.168  18.113  0.00  0.00    +0.000 N 
ATOM      6  H   UNL     1       7.194   8.752  16.450  0.00  0.00    +0.000 HD
ATOM      7  H   UNL     1       7.741  10.569  17.312  0.00  0.00    +0.000 HD
BRANCH   5   8
ATOM      8  C   UNL     1       8.809  11.073  19.086  0.00  0.00    +0.000 C 
ATOM      9  C   UNL     1      10.341  11.002  19.056  0.00  0.00    +0.000 C 
ATOM     10  C   UNL     1      10.930  11.560  17.761  0.00  0.00    +0.000 C 
ATOM     11  C   UNL     1      10.433  12.967  17.440  0.00  0.00    +0.000 C 
ATOM     12  C   UNL     1       8.921  13.131  17.571  0.00  0.00    +0.000 C 
ATOM     13  C   UNL     1       8.351  12.518  18.851  0.00  0.00    +0.000 C 
ENDBRANCH   5   8
ENDBRANCH   1   4
BRANCH   1  14
ATOM     14  C   UNL     1       6.307   6.221  17.586  0.00  0.00    +0.000 A 
ATOM     15  C   UNL     1       6.284   5.633  18.854  0.00  0.00    +0.000 A 
ATOM     16  C   UNL     1       5.096   5.103  19.383  0.00  0.00    +0.000 A 
ATOM     17  C   UNL     1       3.895   5.122  18.656  0.00  0.00    +0.000 A 
ATOM     18  C   UNL     1       3.927   5.729  17.391  0.00  0.00    +0.000 A 
ATOM     19  C   UNL     1       5.111   6.271  16.864  0.00  0.00    +0.000 A 
BRANCH  17  20
ATOM     20  N   UNL     1       2.698   4.527  19.156  0.00  0.00    +0.000 N 
ATOM     21  C   UNL     1       2.335   3.160  18.866  0.00  0.00    +0.000 C 
ATOM     22  C   UNL     1       0.916   3.016  19.378  0.00  0.00    +0.000 C 
ATOM     23  C   UNL     1       0.843   4.011  20.520  0.00  0.00    +0.000 C 
ATOM     24  C   UNL     1       1.846   5.070  20.130  0.00  0.00    +0.000 C 
ATOM     25  O   UNL     1       1.872   6.176  20.655  0.00  0.00    +0.000 OA
ENDBRANCH  17  20
ENDBRANCH   1  14
TORSDOF 4
ENDMDL
