MODEL 1
REMARK VINA RESULT:      -9.2      0.000      0.000
REMARK  Name = 
REMARK  8 active torsions:
REMARK  status: ('A' for Active; 'I' for Inactive)
REMARK    1  A    between atoms: C_1  and  O_2
REMARK    2  A    between atoms: O_2  and  C_3
REMARK    3  A    between atoms: C_8  and  N_9
REMARK    4  A    between atoms: C_18  and  C_19
REMARK    5  A    between atoms: C_19  and  O_20
REMARK    6  A    between atoms: C_21  and  C_22
REMARK    7  A    between atoms: C_25  and  C_26
REMARK    8  A    between atoms: C_27  and  C_28
REMARK                            x       y       z     vdW  Elec       q    Type
REMARK                         _______ _______ _______ _____ _____    ______ ____
ROOT
ATOM      1  N   UNL     1       2.428   6.576  20.209  0.00  0.00    +0.000 N 
ATOM      2  C   UNL     1       1.874   5.317  20.384  0.00  0.00    +0.000 C 
ATOM      3  O   UNL     1       0.671   5.130  20.568  0.00  0.00    +0.000 OA
ATOM      4  N   UNL     1       2.756   4.239  20.301  0.00  0.00    +0.000 N 
ATOM      5  C   UNL     1       2.191   2.887  20.318  0.00  0.00    +0.000 C 
ATOM      6  C   UNL     1       1.319   2.538  19.111  0.00  0.00    +0.000 C 
ATOM      7  C   UNL     1       2.055   2.298  17.795  0.00  0.00    +0.000 C 
ATOM      8  C   UNL     1       2.909   3.451  17.260  0.00  0.00    +0.000 C 
ATOM      9  N   UNL     1       4.262   3.428  17.818  0.00  0.00    +0.000 NA
ATOM     10  C   UNL     1       5.308   4.036  16.901  0.00  0.00    +0.000 C 
ATOM     11  C   UNL     1       6.019   4.510  18.241  0.00  0.00    +0.000 C 
ATOM     12  C   UNL     1       4.534   4.588  18.735  0.00  0.00    +0.000 C 
ATOM     13  C   UNL     1       4.214   4.339  20.198  0.00  0.00    +0.000 C 
ATOM     14  H   UNL     1       3.212   6.658  19.586  0.00  0.00    +0.000 HD
ENDROOT
BRANCH   1  20
ATOM     15  C   UNL     1       1.343   8.469  19.089  0.00  0.00    +0.000 A 
ATOM     16  C   UNL     1       0.499   9.585  19.168  0.00  0.00    +0.000 A 
ATOM     17  C   UNL     1       0.044  10.046  20.405  0.00  0.00    +0.000 A 
ATOM     18  C   UNL     1       0.417   9.393  21.573  0.00  0.00    +0.000 A 
ATOM     19  C   UNL     1       1.207   8.246  21.503  0.00  0.00    +0.000 A 
ATOM     20  C   UNL     1       1.654   7.764  20.275  0.00  0.00    +0.000 A 
BRANCH  15  22
ATOM     21  C   UNL     1       3.200   8.325  17.627  0.00  0.00    +0.000 C 
ATOM     22  O   UNL     1       1.841   7.976  17.904  0.00  0.00    +0.000 OA
ENDBRANCH  15  22
ENDBRANCH   1  20
BRANCH  11  23
ATOM     23  C   UNL     1       6.928   5.814  18.178  0.00  0.00    +0.000 A 
ATOM     24  C   UNL     1       7.944   6.101  19.108  0.00  0.00    +0.000 A 
ATOM     25  C   UNL     1       8.602   7.333  19.125  0.00  0.00    +0.000 A 
ATOM     26  C   UNL     1       8.272   8.317  18.187  0.00  0.00    +0.000 A 
ATOM     27  C   UNL     1       7.334   8.035  17.202  0.00  0.00    +0.000 A 
ATOM     28  C   UNL     1       6.691   6.794  17.193  0.00  0.00    +0.000 A 
BRANCH  26  29
ATOM     29  C   UNL     1       8.866   9.613  18.275  0.00  0.00    +0.000 C 
ATOM     30  C   UNL     1       9.371  10.702  18.394  0.00  0.00    +0.000 C 
BRANCH  30  31
ATOM     31  C   UNL     1      10.002  11.975  18.561  0.00  0.00    +0.000 C 
ATOM     32  C   UNL     1      11.491  12.026  18.766  0.00  0.00    +0.000 C 
ATOM     33  C   UNL     1      10.903  12.507  17.475  0.00  0.00    +0.000 C 
ENDBRANCH  30  31
ENDBRANCH  26  29
ENDBRANCH  11  23
BRANCH  10  34
ATOM     34  C   UNL     1       4.835   5.134  15.917  0.00  0.00    +0.000 C 
BRANCH  34  35
ATOM     35  O   UNL     1       5.314   4.840  14.609  0.00  0.00    +0.000 OA
ATOM     36  H   UNL     1       5.194   3.887  14.462  0.00  0.00    +0.000 HD
ENDBRANCH  34  35
ENDBRANCH  10  34
TORSDOF 7
ENDMDL
MODEL 2
REMARK VINA RESULT:      -8.2      0.893      1.626
REMARK  Name = 
REMARK  8 active torsions:
REMARK  status: ('A' for Active; 'I' for Inactive)
REMARK    1  A    between atoms: C_1  and  O_2
REMARK    2  A    between atoms: O_2  and  C_3
REMARK    3  A    between atoms: C_8  and  N_9
REMARK    4  A    between atoms: C_18  and  C_19
REMARK    5  A    between atoms: C_19  and  O_20
REMARK    6  A    between atoms: C_21  and  C_22
REMARK    7  A    between atoms: C_25  and  C_26
REMARK    8  A    between atoms: C_27  and  C_28
REMARK                            x       y       z     vdW  Elec       q    Type
REMARK                         _______ _______ _______ _____ _____    ______ ____
ROOT
ATOM      1  N   UNL     1       2.206   7.100  19.866  0.00  0.00    +0.000 N 
ATOM      2  C   UNL     1       1.604   5.891  20.180  0.00  0.00    +0.000 C 
ATOM      3  O   UNL     1       0.386   5.756  20.299  0.00  0.00    +0.000 OA
ATOM      4  N   UNL     1       2.459   4.798  20.321  0.00  0.00    +0.000 N 
ATOM      5  C   UNL     1       1.855   3.473  20.493  0.00  0.00    +0.000 C 
ATOM      6  C   UNL     1       1.062   2.965  19.286  0.00  0.00    +0.000 C 
ATOM      7  C   UNL     1       1.884   2.521  18.079  0.00  0.00    +0.000 C 
ATOM      8  C   UNL     1       2.807   3.568  17.448  0.00  0.00    +0.000 C 
ATOM      9  N   UNL     1       4.115   3.603  18.104  0.00  0.00    +0.000 NA
ATOM     10  C   UNL     1       5.242   4.051  17.189  0.00  0.00    +0.000 C 
ATOM     11  C   UNL     1       5.867   4.703  18.496  0.00  0.00    +0.000 C 
ATOM     12  C   UNL     1       4.354   4.880  18.860  0.00  0.00    +0.000 C 
ATOM     13  C   UNL     1       3.923   4.854  20.315  0.00  0.00    +0.000 C 
ATOM     14  H   UNL     1       3.034   7.076  19.299  0.00  0.00    +0.000 HD
ENDROOT
BRANCH   1  20
ATOM     15  C   UNL     1       1.020   9.017  20.835  0.00  0.00    +0.000 A 
ATOM     16  C   UNL     1       0.371  10.245  20.647  0.00  0.00    +0.000 A 
ATOM     17  C   UNL     1       0.089  10.711  19.362  0.00  0.00    +0.000 A 
ATOM     18  C   UNL     1       0.460   9.962  18.252  0.00  0.00    +0.000 A 
ATOM     19  C   UNL     1       1.158   8.768  18.424  0.00  0.00    +0.000 A 
ATOM     20  C   UNL     1       1.463   8.299  19.700  0.00  0.00    +0.000 A 
BRANCH  15  22
ATOM     21  C   UNL     1       0.747   9.207  23.179  0.00  0.00    +0.000 C 
ATOM     22  O   UNL     1       1.310   8.493  22.075  0.00  0.00    +0.000 OA
ENDBRANCH  15  22
ENDBRANCH   1  20
BRANCH  11  23
ATOM     23  C   UNL     1       6.816   5.968  18.312  0.00  0.00    +0.000 A 
ATOM     24  C   UNL     1       7.947   6.215  19.112  0.00  0.00    +0.000 A 
ATOM     25  C   UNL     1       8.653   7.419  19.038  0.00  0.00    +0.000 A 
ATOM     26  C   UNL     1       8.254   8.412  18.137  0.00  0.00    +0.000 A 
ATOM     27  C   UNL     1       7.194   8.166  17.273  0.00  0.00    +0.000 A 
ATOM     28  C   UNL     1       6.504   6.953  17.353  0.00  0.00    +0.000 A 
BRANCH  26  29
ATOM     29  C   UNL     1       8.908   9.682  18.142  0.00  0.00    +0.000 C 
ATOM     30  C   UNL     1       9.457  10.755  18.190  0.00  0.00    +0.000 C 
BRANCH  30  31
ATOM     31  C   UNL     1      10.135  12.011  18.280  0.00  0.00    +0.000 C 
ATOM     32  C   UNL     1      11.355  12.117  19.151  0.00  0.00    +0.000 C 
ATOM     33  C   UNL     1      11.500  12.165  17.661  0.00  0.00    +0.000 C 
ENDBRANCH  30  31
ENDBRANCH  26  29
ENDBRANCH  11  23
BRANCH  10  34
ATOM     34  C   UNL     1       4.872   5.001  16.023  0.00  0.00    +0.000 C 
BRANCH  34  35
ATOM     35  O   UNL     1       5.318   4.439  14.793  0.00  0.00    +0.000 OA
ATOM     36  H   UNL     1       4.599   3.886  14.447  0.00  0.00    +0.000 HD
ENDBRANCH  34  35
ENDBRANCH  10  34
TORSDOF 7
ENDMDL
MODEL 3
REMARK VINA RESULT:      -8.0      0.830      1.246
REMARK  Name = 
REMARK  8 active torsions:
REMARK  status: ('A' for Active; 'I' for Inactive)
REMARK    1  A    between atoms: C_1  and  O_2
REMARK    2  A    between atoms: O_2  and  C_3
REMARK    3  A    between atoms: C_8  and  N_9
REMARK    4  A    between atoms: C_18  and  C_19
REMARK    5  A    between atoms: C_19  and  O_20
REMARK    6  A    between atoms: C_21  and  C_22
REMARK    7  A    between atoms: C_25  and  C_26
REMARK    8  A    between atoms: C_27  and  C_28
REMARK                            x       y       z     vdW  Elec       q    Type
REMARK                         _______ _______ _______ _____ _____    ______ ____
ROOT
ATOM      1  N   UNL     1       2.475   6.532  20.289  0.00  0.00    +0.000 N 
ATOM      2  C   UNL     1       2.112   5.193  20.297  0.00  0.00    +0.000 C 
ATOM      3  O   UNL     1       0.951   4.811  20.449  0.00  0.00    +0.000 OA
ATOM      4  N   UNL     1       3.140   4.276  20.080  0.00  0.00    +0.000 N 
ATOM      5  C   UNL     1       2.778   2.865  19.919  0.00  0.00    +0.000 C 
ATOM      6  C   UNL     1       1.950   2.550  18.671  0.00  0.00    +0.000 C 
ATOM      7  C   UNL     1       2.695   2.592  17.340  0.00  0.00    +0.000 C 
ATOM      8  C   UNL     1       3.365   3.917  16.963  0.00  0.00    +0.000 C 
ATOM      9  N   UNL     1       4.715   4.020  17.521  0.00  0.00    +0.000 NA
ATOM     10  C   UNL     1       5.648   4.887  16.696  0.00  0.00    +0.000 C 
ATOM     11  C   UNL     1       6.301   5.283  18.090  0.00  0.00    +0.000 C 
ATOM     12  C   UNL     1       4.827   5.079  18.582  0.00  0.00    +0.000 C 
ATOM     13  C   UNL     1       4.567   4.600  19.998  0.00  0.00    +0.000 C 
ATOM     14  H   UNL     1       3.229   6.807  19.686  0.00  0.00    +0.000 HD
ENDROOT
BRANCH   1  20
ATOM     15  C   UNL     1       1.431   8.632  19.569  0.00  0.00    +0.000 A 
ATOM     16  C   UNL     1       0.434   9.600  19.753  0.00  0.00    +0.000 A 
ATOM     17  C   UNL     1      -0.384   9.572  20.883  0.00  0.00    +0.000 A 
ATOM     18  C   UNL     1      -0.223   8.574  21.837  0.00  0.00    +0.000 A 
ATOM     19  C   UNL     1       0.725   7.572  21.636  0.00  0.00    +0.000 A 
ATOM     20  C   UNL     1       1.536   7.576  20.504  0.00  0.00    +0.000 A 
BRANCH  15  22
ATOM     21  C   UNL     1       2.199   9.759  17.633  0.00  0.00    +0.000 C 
ATOM     22  O   UNL     1       2.282   8.614  18.487  0.00  0.00    +0.000 OA
ENDBRANCH  15  22
ENDBRANCH   1  20
BRANCH  11  23
ATOM     23  C   UNL     1       7.010   6.703  18.201  0.00  0.00    +0.000 A 
ATOM     24  C   UNL     1       6.640   7.820  17.430  0.00  0.00    +0.000 A 
ATOM     25  C   UNL     1       7.394   8.997  17.426  0.00  0.00    +0.000 A 
ATOM     26  C   UNL     1       8.541   9.096  18.220  0.00  0.00    +0.000 A 
ATOM     27  C   UNL     1       8.887   8.042  19.058  0.00  0.00    +0.000 A 
ATOM     28  C   UNL     1       8.117   6.877  19.056  0.00  0.00    +0.000 A 
BRANCH  26  29
ATOM     29  C   UNL     1       9.371  10.256  18.131  0.00  0.00    +0.000 C 
ATOM     30  C   UNL     1      10.041  11.257  18.081  0.00  0.00    +0.000 C 
BRANCH  30  31
ATOM     31  C   UNL     1      10.831  12.449  18.066  0.00  0.00    +0.000 C 
ATOM     32  C   UNL     1      11.165  13.083  16.745  0.00  0.00    +0.000 C 
ATOM     33  C   UNL     1      10.197  13.758  17.668  0.00  0.00    +0.000 C 
ENDBRANCH  30  31
ENDBRANCH  26  29
ENDBRANCH  11  23
BRANCH  10  34
ATOM     34  C   UNL     1       5.007   6.022  15.860  0.00  0.00    +0.000 C 
BRANCH  34  35
ATOM     35  O   UNL     1       5.635   6.085  14.584  0.00  0.00    +0.000 OA
ATOM     36  H   UNL     1       5.591   5.197  14.193  0.00  0.00    +0.000 HD
ENDBRANCH  34  35
ENDBRANCH  10  34
TORSDOF 7
ENDMDL
MODEL 4
REMARK VINA RESULT:      -7.7      6.141     10.305
REMARK  Name = 
REMARK  8 active torsions:
REMARK  status: ('A' for Active; 'I' for Inactive)
REMARK    1  A    between atoms: C_1  and  O_2
REMARK    2  A    between atoms: O_2  and  C_3
REMARK    3  A    between atoms: C_8  and  N_9
REMARK    4  A    between atoms: C_18  and  C_19
REMARK    5  A    between atoms: C_19  and  O_20
REMARK    6  A    between atoms: C_21  and  C_22
REMARK    7  A    between atoms: C_25  and  C_26
REMARK    8  A    between atoms: C_27  and  C_28
REMARK                            x       y       z     vdW  Elec       q    Type
REMARK                         _______ _______ _______ _____ _____    ______ ____
ROOT
ATOM      1  N   UNL     1       5.968  16.056  19.006  0.00  0.00    +0.000 N 
ATOM      2  C   UNL     1       6.523  17.233  19.486  0.00  0.00    +0.000 C 
ATOM      3  O   UNL     1       5.848  18.205  19.828  0.00  0.00    +0.000 OA
ATOM      4  N   UNL     1       7.912  17.255  19.604  0.00  0.00    +0.000 N 
ATOM      5  C   UNL     1       8.527  18.414  20.256  0.00  0.00    +0.000 C 
ATOM      6  C   UNL     1       8.189  18.574  21.739  0.00  0.00    +0.000 C 
ATOM      7  C   UNL     1       8.855  17.586  22.693  0.00  0.00    +0.000 C 
ATOM      8  C   UNL     1       8.579  16.098  22.452  0.00  0.00    +0.000 C 
ATOM      9  N   UNL     1       9.513  15.524  21.483  0.00  0.00    +0.000 NA
ATOM     10  C   UNL     1       9.766  14.040  21.689  0.00  0.00    +0.000 C 
ATOM     11  C   UNL     1       9.905  13.978  20.107  0.00  0.00    +0.000 C 
ATOM     12  C   UNL     1       8.848  15.131  20.193  0.00  0.00    +0.000 C 
ATOM     13  C   UNL     1       8.824  16.211  19.128  0.00  0.00    +0.000 C 
ATOM     14  H   UNL     1       6.433  15.195  19.232  0.00  0.00    +0.000 HD
ENDROOT
BRANCH   1  20
ATOM     15  C   UNL     1       3.822  15.136  19.759  0.00  0.00    +0.000 A 
ATOM     16  C   UNL     1       2.430  15.067  19.613  0.00  0.00    +0.000 A 
ATOM     17  C   UNL     1       1.800  15.660  18.517  0.00  0.00    +0.000 A 
ATOM     18  C   UNL     1       2.550  16.336  17.563  0.00  0.00    +0.000 A 
ATOM     19  C   UNL     1       3.928  16.463  17.728  0.00  0.00    +0.000 A 
ATOM     20  C   UNL     1       4.569  15.892  18.826  0.00  0.00    +0.000 A 
BRANCH  15  22
ATOM     21  C   UNL     1       3.976  14.841  22.103  0.00  0.00    +0.000 C 
ATOM     22  O   UNL     1       4.506  14.558  20.805  0.00  0.00    +0.000 OA
ENDBRANCH  15  22
ENDBRANCH   1  20
BRANCH  11  23
ATOM     23  C   UNL     1       9.558  12.603  19.385  0.00  0.00    +0.000 A 
ATOM     24  C   UNL     1       8.771  12.511  18.223  0.00  0.00    +0.000 A 
ATOM     25  C   UNL     1       8.342  11.281  17.718  0.00  0.00    +0.000 A 
ATOM     26  C   UNL     1       8.709  10.093  18.359  0.00  0.00    +0.000 A 
ATOM     27  C   UNL     1       9.556  10.144  19.460  0.00  0.00    +0.000 A 
ATOM     28  C   UNL     1       9.984  11.382  19.947  0.00  0.00    +0.000 A 
BRANCH  26  29
ATOM     29  C   UNL     1       8.179   8.846  17.907  0.00  0.00    +0.000 C 
ATOM     30  C   UNL     1       7.716   7.786  17.567  0.00  0.00    +0.000 C 
BRANCH  30  31
ATOM     31  C   UNL     1       7.127   6.540  17.183  0.00  0.00    +0.000 C 
ATOM     32  C   UNL     1       5.978   6.000  17.989  0.00  0.00    +0.000 C 
ATOM     33  C   UNL     1       5.735   6.521  16.606  0.00  0.00    +0.000 C 
ENDBRANCH  30  31
ENDBRANCH  26  29
ENDBRANCH  11  23
BRANCH  10  34
ATOM     34  C   UNL     1       8.631  13.212  22.339  0.00  0.00    +0.000 C 
BRANCH  34  35
ATOM     35  O   UNL     1       9.195  12.205  23.173  0.00  0.00    +0.000 OA
ATOM     36  H   UNL     1       8.813  11.355  22.902  0.00  0.00    +0.000 HD
ENDBRANCH  34  35
ENDBRANCH  10  34
TORSDOF 7
ENDMDL
MODEL 5
REMARK VINA RESULT:      -7.5      5.845     10.019
REMARK  Name = 
REMARK  8 active torsions:
REMARK  status: ('A' for Active; 'I' for Inactive)
REMARK    1  A    between atoms: C_1  and  O_2
REMARK    2  A    between atoms: O_2  and  C_3
REMARK    3  A    between atoms: C_8  and  N_9
REMARK    4  A    between atoms: C_18  and  C_19
REMARK    5  A    between atoms: C_19  and  O_20
REMARK    6  A    between atoms: C_21  and  C_22
REMARK    7  A    between atoms: C_25  and  C_26
REMARK    8  A    between atoms: C_27  and  C_28
REMARK                            x       y       z     vdW  Elec       q    Type
REMARK                         _______ _______ _______ _____ _____    ______ ____
ROOT
ATOM      1  N   UNL     1       5.992  15.518  18.515  0.00  0.00    +0.000 N 
ATOM      2  C   UNL     1       6.768  16.667  18.519  0.00  0.00    +0.000 C 
ATOM      3  O   UNL     1       6.316  17.783  18.778  0.00  0.00    +0.000 OA
ATOM      4  N   UNL     1       8.125  16.495  18.250  0.00  0.00    +0.000 N 
ATOM      5  C   UNL     1       9.008  17.655  18.403  0.00  0.00    +0.000 C 
ATOM      6  C   UNL     1       9.144  18.176  19.835  0.00  0.00    +0.000 C 
ATOM      7  C   UNL     1       9.974  17.321  20.788  0.00  0.00    +0.000 C 
ATOM      8  C   UNL     1       9.506  15.878  21.007  0.00  0.00    +0.000 C 
ATOM      9  N   UNL     1      10.053  14.971  19.997  0.00  0.00    +0.000 NA
ATOM     10  C   UNL     1      10.223  13.545  20.489  0.00  0.00    +0.000 C 
ATOM     11  C   UNL     1       9.877  13.128  18.995  0.00  0.00    +0.000 C 
ATOM     12  C   UNL     1       9.000  14.424  19.074  0.00  0.00    +0.000 C 
ATOM     13  C   UNL     1       8.756  15.244  17.821  0.00  0.00    +0.000 C 
ATOM     14  H   UNL     1       6.425  14.663  18.813  0.00  0.00    +0.000 HD
ENDROOT
BRANCH   1  20
ATOM     15  C   UNL     1       4.097  15.134  20.024  0.00  0.00    +0.000 A 
ATOM     16  C   UNL     1       2.724  15.255  20.279  0.00  0.00    +0.000 A 
ATOM     17  C   UNL     1       1.851  15.688  19.280  0.00  0.00    +0.000 A 
ATOM     18  C   UNL     1       2.338  16.014  18.020  0.00  0.00    +0.000 A 
ATOM     19  C   UNL     1       3.708  15.955  17.772  0.00  0.00    +0.000 A 
ATOM     20  C   UNL     1       4.595  15.542  18.765  0.00  0.00    +0.000 A 
BRANCH  15  22
ATOM     21  C   UNL     1       4.526  14.668  22.305  0.00  0.00    +0.000 C 
ATOM     22  O   UNL     1       5.008  14.695  20.959  0.00  0.00    +0.000 OA
ENDBRANCH  15  22
ENDBRANCH   1  20
BRANCH  11  23
ATOM     23  C   UNL     1       9.208  11.703  18.759  0.00  0.00    +0.000 A 
ATOM     24  C   UNL     1       9.614  10.532  19.425  0.00  0.00    +0.000 A 
ATOM     25  C   UNL     1       9.126   9.273  19.067  0.00  0.00    +0.000 A 
ATOM     26  C   UNL     1       8.191   9.151  18.033  0.00  0.00    +0.000 A 
ATOM     27  C   UNL     1       7.705  10.295  17.412  0.00  0.00    +0.000 A 
ATOM     28  C   UNL     1       8.197  11.548  17.789  0.00  0.00    +0.000 A 
BRANCH  26  29
ATOM     29  C   UNL     1       7.778   7.856  17.596  0.00  0.00    +0.000 C 
ATOM     30  C   UNL     1       7.386   6.773  17.237  0.00  0.00    +0.000 C 
BRANCH  30  31
ATOM     31  C   UNL     1       6.890   5.509  16.787  0.00  0.00    +0.000 C 
ATOM     32  C   UNL     1       5.662   5.478  15.920  0.00  0.00    +0.000 C 
ATOM     33  C   UNL     1       6.997   5.143  15.329  0.00  0.00    +0.000 C 
ENDBRANCH  30  31
ENDBRANCH  26  29
ENDBRANCH  11  23
BRANCH  10  34
ATOM     34  C   UNL     1       9.265  13.062  21.605  0.00  0.00    +0.000 C 
BRANCH  34  35
ATOM     35  O   UNL     1       9.824  11.924  22.252  0.00  0.00    +0.000 OA
ATOM     36  H   UNL     1      10.489  11.546  21.655  0.00  0.00    +0.000 HD
ENDBRANCH  34  35
ENDBRANCH  10  34
TORSDOF 7
ENDMDL
MODEL 6
REMARK VINA RESULT:      -7.4      4.585      8.532
REMARK  Name = 
REMARK  8 active torsions:
REMARK  status: ('A' for Active; 'I' for Inactive)
REMARK    1  A    between atoms: C_1  and  O_2
REMARK    2  A    between atoms: O_2  and  C_3
REMARK    3  A    between atoms: C_8  and  N_9
REMARK    4  A    between atoms: C_18  and  C_19
REMARK    5  A    between atoms: C_19  and  O_20
REMARK    6  A    between atoms: C_21  and  C_22
REMARK    7  A    between atoms: C_25  and  C_26
REMARK    8  A    between atoms: C_27  and  C_28
REMARK                            x       y       z     vdW  Elec       q    Type
REMARK                         _______ _______ _______ _____ _____    ______ ____
ROOT
ATOM      1  N   UNL     1       2.244  13.687  20.327  0.00  0.00    +0.000 N 
ATOM      2  C   UNL     1       1.207  14.201  21.091  0.00  0.00    +0.000 C 
ATOM      3  O   UNL     1       0.992  15.408  21.210  0.00  0.00    +0.000 OA
ATOM      4  N   UNL     1       0.371  13.267  21.702  0.00  0.00    +0.000 N 
ATOM      5  C   UNL     1      -0.828  13.761  22.384  0.00  0.00    +0.000 C 
ATOM      6  C   UNL     1      -1.870  14.405  21.468  0.00  0.00    +0.000 C 
ATOM      7  C   UNL     1      -2.670  13.453  20.583  0.00  0.00    +0.000 C 
ATOM      8  C   UNL     1      -1.873  12.580  19.609  0.00  0.00    +0.000 C 
ATOM      9  N   UNL     1      -1.424  11.337  20.239  0.00  0.00    +0.000 NA
ATOM     10  C   UNL     1      -1.262  10.185  19.262  0.00  0.00    +0.000 C 
ATOM     11  C   UNL     1      -0.066   9.728  20.205  0.00  0.00    +0.000 C 
ATOM     12  C   UNL     1       0.068  11.275  20.408  0.00  0.00    +0.000 C 
ATOM     13  C   UNL     1       0.588  11.818  21.726  0.00  0.00    +0.000 C 
ATOM     14  H   UNL     1       2.086  12.818  19.851  0.00  0.00    +0.000 HD
ENDROOT
BRANCH   1  20
ATOM     15  C   UNL     1       4.248  15.101  20.370  0.00  0.00    +0.000 A 
ATOM     16  C   UNL     1       5.209  15.840  19.667  0.00  0.00    +0.000 A 
ATOM     17  C   UNL     1       5.066  16.071  18.297  0.00  0.00    +0.000 A 
ATOM     18  C   UNL     1       3.970  15.560  17.614  0.00  0.00    +0.000 A 
ATOM     19  C   UNL     1       3.038  14.773  18.291  0.00  0.00    +0.000 A 
ATOM     20  C   UNL     1       3.177  14.519  19.653  0.00  0.00    +0.000 A 
BRANCH  15  22
ATOM     21  C   UNL     1       5.442  14.068  22.134  0.00  0.00    +0.000 C 
ATOM     22  O   UNL     1       4.320  14.854  21.723  0.00  0.00    +0.000 OA
ENDBRANCH  15  22
ENDBRANCH   1  20
BRANCH  11  23
ATOM     23  C   UNL     1       1.114   8.884  19.549  0.00  0.00    +0.000 A 
ATOM     24  C   UNL     1       1.678   9.179  18.295  0.00  0.00    +0.000 A 
ATOM     25  C   UNL     1       2.587   8.319  17.674  0.00  0.00    +0.000 A 
ATOM     26  C   UNL     1       2.977   7.135  18.308  0.00  0.00    +0.000 A 
ATOM     27  C   UNL     1       2.504   6.855  19.585  0.00  0.00    +0.000 A 
ATOM     28  C   UNL     1       1.602   7.731  20.196  0.00  0.00    +0.000 A 
BRANCH  26  29
ATOM     29  C   UNL     1       3.819   6.205  17.626  0.00  0.00    +0.000 C 
ATOM     30  C   UNL     1       4.563   5.449  17.051  0.00  0.00    +0.000 C 
BRANCH  30  31
ATOM     31  C   UNL     1       5.477   4.561  16.402  0.00  0.00    +0.000 C 
ATOM     32  C   UNL     1       5.804   4.788  14.952  0.00  0.00    +0.000 C 
ATOM     33  C   UNL     1       6.841   5.061  15.998  0.00  0.00    +0.000 C 
ENDBRANCH  30  31
ENDBRANCH  26  29
ENDBRANCH  11  23
BRANCH  10  34
ATOM     34  C   UNL     1      -0.918  10.543  17.796  0.00  0.00    +0.000 C 
BRANCH  34  35
ATOM     35  O   UNL     1      -1.864   9.934  16.924  0.00  0.00    +0.000 OA
ATOM     36  H   UNL     1      -2.615   9.643  17.466  0.00  0.00    +0.000 HD
ENDBRANCH  34  35
ENDBRANCH  10  34
TORSDOF 7
ENDMDL
MODEL 7
REMARK VINA RESULT:      -7.3      5.436     10.477
REMARK  Name = 
REMARK  8 active torsions:
REMARK  status: ('A' for Active; 'I' for Inactive)
REMARK    1  A    between atoms: C_1  and  O_2
REMARK    2  A    between atoms: O_2  and  C_3
REMARK    3  A    between atoms: C_8  and  N_9
REMARK    4  A    between atoms: C_18  and  C_19
REMARK    5  A    between atoms: C_19  and  O_20
REMARK    6  A    between atoms: C_21  and  C_22
REMARK    7  A    between atoms: C_25  and  C_26
REMARK    8  A    between atoms: C_27  and  C_28
REMARK                            x       y       z     vdW  Elec       q    Type
REMARK                         _______ _______ _______ _____ _____    ______ ____
ROOT
ATOM      1  N   UNL     1       3.560  14.861  20.381  0.00  0.00    +0.000 N 
ATOM      2  C   UNL     1       2.837  16.002  20.691  0.00  0.00    +0.000 C 
ATOM      3  O   UNL     1       3.214  17.138  20.400  0.00  0.00    +0.000 OA
ATOM      4  N   UNL     1       1.613  15.801  21.328  0.00  0.00    +0.000 N 
ATOM      5  C   UNL     1       0.744  16.964  21.528  0.00  0.00    +0.000 C 
ATOM      6  C   UNL     1       0.209  17.598  20.242  0.00  0.00    +0.000 C 
ATOM      7  C   UNL     1      -0.876  16.816  19.507  0.00  0.00    +0.000 C 
ATOM      8  C   UNL     1      -0.517  15.398  19.050  0.00  0.00    +0.000 C 
ATOM      9  N   UNL     1      -0.765  14.411  20.102  0.00  0.00    +0.000 NA
ATOM     10  C   UNL     1      -1.094  13.027  19.570  0.00  0.00    +0.000 C 
ATOM     11  C   UNL     1      -0.338  12.494  20.862  0.00  0.00    +0.000 C 
ATOM     12  C   UNL     1       0.501  13.797  20.634  0.00  0.00    +0.000 C 
ATOM     13  C   UNL     1       1.111  14.516  21.823  0.00  0.00    +0.000 C 
ATOM     14  H   UNL     1       3.045  14.029  20.155  0.00  0.00    +0.000 HD
ENDROOT
BRANCH   1  20
ATOM     15  C   UNL     1       6.002  15.060  20.512  0.00  0.00    +0.000 A 
ATOM     16  C   UNL     1       7.245  15.013  19.865  0.00  0.00    +0.000 A 
ATOM     17  C   UNL     1       7.320  14.911  18.475  0.00  0.00    +0.000 A 
ATOM     18  C   UNL     1       6.157  14.844  17.717  0.00  0.00    +0.000 A 
ATOM     19  C   UNL     1       4.917  14.829  18.352  0.00  0.00    +0.000 A 
ATOM     20  C   UNL     1       4.826  14.912  19.740  0.00  0.00    +0.000 A 
BRANCH  15  22
ATOM     21  C   UNL     1       6.622  16.231  22.474  0.00  0.00    +0.000 C 
ATOM     22  O   UNL     1       5.860  15.179  21.876  0.00  0.00    +0.000 OA
ENDBRANCH  15  22
ENDBRANCH   1  20
BRANCH  11  23
ATOM     23  C   UNL     1       0.345  11.059  20.783  0.00  0.00    +0.000 A 
ATOM     24  C   UNL     1       0.958  10.551  19.623  0.00  0.00    +0.000 A 
ATOM     25  C   UNL     1       1.390   9.226  19.536  0.00  0.00    +0.000 A 
ATOM     26  C   UNL     1       1.239   8.366  20.630  0.00  0.00    +0.000 A 
ATOM     27  C   UNL     1       0.716   8.859  21.820  0.00  0.00    +0.000 A 
ATOM     28  C   UNL     1       0.296  10.190  21.892  0.00  0.00    +0.000 A 
BRANCH  26  29
ATOM     29  C   UNL     1       1.580   6.985  20.503  0.00  0.00    +0.000 C 
ATOM     30  C   UNL     1       1.863   5.814  20.441  0.00  0.00    +0.000 C 
BRANCH  30  31
ATOM     31  C   UNL     1       2.164   4.417  20.393  0.00  0.00    +0.000 C 
ATOM     32  C   UNL     1       2.105   3.617  21.664  0.00  0.00    +0.000 C 
ATOM     33  C   UNL     1       1.062   3.411  20.608  0.00  0.00    +0.000 C 
ENDBRANCH  30  31
ENDBRANCH  26  29
ENDBRANCH  11  23
BRANCH  10  34
ATOM     34  C   UNL     1      -0.509  12.640  18.190  0.00  0.00    +0.000 C 
BRANCH  34  35
ATOM     35  O   UNL     1      -1.571  12.359  17.285  0.00  0.00    +0.000 OA
ATOM     36  H   UNL     1      -2.238  11.846  17.769  0.00  0.00    +0.000 HD
ENDBRANCH  34  35
ENDBRANCH  10  34
TORSDOF 7
ENDMDL
MODEL 8
REMARK VINA RESULT:      -7.3      4.857      8.740
REMARK  Name = 
REMARK  8 active torsions:
REMARK  status: ('A' for Active; 'I' for Inactive)
REMARK    1  A    between atoms: C_1  and  O_2
REMARK    2  A    between atoms: O_2  and  C_3
REMARK    3  A    between atoms: C_8  and  N_9
REMARK    4  A    between atoms: C_18  and  C_19
REMARK    5  A    between atoms: C_19  and  O_20
REMARK    6  A    between atoms: C_21  and  C_22
REMARK    7  A    between atoms: C_25  and  C_26
REMARK    8  A    between atoms: C_27  and  C_28
REMARK                            x       y       z     vdW  Elec       q    Type
REMARK                         _______ _______ _______ _____ _____    ______ ____
ROOT
ATOM      1  N   UNL     1       1.659  13.897  21.111  0.00  0.00    +0.000 N 
ATOM      2  C   UNL     1       0.530  14.255  21.831  0.00  0.00    +0.000 C 
ATOM      3  O   UNL     1       0.252  15.422  22.111  0.00  0.00    +0.000 OA
ATOM      4  N   UNL     1      -0.321  13.213  22.199  0.00  0.00    +0.000 N 
ATOM      5  C   UNL     1      -1.603  13.561  22.819  0.00  0.00    +0.000 C 
ATOM      6  C   UNL     1      -2.575  14.313  21.908  0.00  0.00    +0.000 C 
ATOM      7  C   UNL     1      -3.241  13.491  20.808  0.00  0.00    +0.000 C 
ATOM      8  C   UNL     1      -2.313  12.804  19.801  0.00  0.00    +0.000 C 
ATOM      9  N   UNL     1      -1.876  11.490  20.275  0.00  0.00    +0.000 NA
ATOM     10  C   UNL     1      -1.567  10.512  19.155  0.00  0.00    +0.000 C 
ATOM     11  C   UNL     1      -0.452   9.944  20.136  0.00  0.00    +0.000 C 
ATOM     12  C   UNL     1      -0.406  11.443  20.589  0.00  0.00    +0.000 C 
ATOM     13  C   UNL     1      -0.045  11.785  22.022  0.00  0.00    +0.000 C 
ATOM     14  H   UNL     1       1.588  13.109  20.492  0.00  0.00    +0.000 HD
ENDROOT
BRANCH   1  20
ATOM     15  C   UNL     1       3.756  15.119  21.471  0.00  0.00    +0.000 A 
ATOM     16  C   UNL     1       4.735  15.992  20.976  0.00  0.00    +0.000 A 
ATOM     17  C   UNL     1       4.550  16.652  19.760  0.00  0.00    +0.000 A 
ATOM     18  C   UNL     1       3.393  16.441  19.020  0.00  0.00    +0.000 A 
ATOM     19  C   UNL     1       2.439  15.530  19.472  0.00  0.00    +0.000 A 
ATOM     20  C   UNL     1       2.618  14.850  20.675  0.00  0.00    +0.000 A 
BRANCH  15  22
ATOM     21  C   UNL     1       5.035  14.773  23.432  0.00  0.00    +0.000 C 
ATOM     22  O   UNL     1       3.869  14.452  22.670  0.00  0.00    +0.000 OA
ENDBRANCH  15  22
ENDBRANCH   1  20
BRANCH  11  23
ATOM     23  C   UNL     1       0.823   9.248  19.487  0.00  0.00    +0.000 A 
ATOM     24  C   UNL     1       1.401   9.660  18.272  0.00  0.00    +0.000 A 
ATOM     25  C   UNL     1       2.407   8.920  17.646  0.00  0.00    +0.000 A 
ATOM     26  C   UNL     1       2.882   7.743  18.234  0.00  0.00    +0.000 A 
ATOM     27  C   UNL     1       2.392   7.353  19.475  0.00  0.00    +0.000 A 
ATOM     28  C   UNL     1       1.393   8.110  20.093  0.00  0.00    +0.000 A 
BRANCH  26  29
ATOM     29  C   UNL     1       3.830   6.931  17.540  0.00  0.00    +0.000 C 
ATOM     30  C   UNL     1       4.605   6.250  16.915  0.00  0.00    +0.000 C 
BRANCH  30  31
ATOM     31  C   UNL     1       5.525   5.473  16.143  0.00  0.00    +0.000 C 
ATOM     32  C   UNL     1       6.511   4.593  16.858  0.00  0.00    +0.000 C 
ATOM     33  C   UNL     1       5.378   3.974  16.099  0.00  0.00    +0.000 C 
ENDBRANCH  30  31
ENDBRANCH  26  29
ENDBRANCH  11  23
BRANCH  10  34
ATOM     34  C   UNL     1      -1.094  11.106  17.806  0.00  0.00    +0.000 C 
BRANCH  34  35
ATOM     35  O   UNL     1      -1.728  10.416  16.734  0.00  0.00    +0.000 OA
ATOM     36  H   UNL     1      -2.492  10.947  16.456  0.00  0.00    +0.000 HD
ENDBRANCH  34  35
ENDBRANCH  10  34
TORSDOF 7
ENDMDL
MODEL 9
REMARK VINA RESULT:      -7.2      4.719      8.454
REMARK  Name = 
REMARK  8 active torsions:
REMARK  status: ('A' for Active; 'I' for Inactive)
REMARK    1  A    between atoms: C_1  and  O_2
REMARK    2  A    between atoms: O_2  and  C_3
REMARK    3  A    between atoms: C_8  and  N_9
REMARK    4  A    between atoms: C_18  and  C_19
REMARK    5  A    between atoms: C_19  and  O_20
REMARK    6  A    between atoms: C_21  and  C_22
REMARK    7  A    between atoms: C_25  and  C_26
REMARK    8  A    between atoms: C_27  and  C_28
REMARK                            x       y       z     vdW  Elec       q    Type
REMARK                         _______ _______ _______ _____ _____    ______ ____
ROOT
ATOM      1  N   UNL     1       0.608  10.743  18.693  0.00  0.00    +0.000 N 
ATOM      2  C   UNL     1      -0.761  10.910  18.835  0.00  0.00    +0.000 C 
ATOM      3  O   UNL     1      -1.518  10.003  19.184  0.00  0.00    +0.000 OA
ATOM      4  N   UNL     1      -1.252  12.194  18.599  0.00  0.00    +0.000 N 
ATOM      5  C   UNL     1      -2.664  12.454  18.893  0.00  0.00    +0.000 C 
ATOM      6  C   UNL     1      -3.042  12.355  20.373  0.00  0.00    +0.000 C 
ATOM      7  C   UNL     1      -2.565  13.494  21.269  0.00  0.00    +0.000 C 
ATOM      8  C   UNL     1      -1.053  13.737  21.332  0.00  0.00    +0.000 C 
ATOM      9  N   UNL     1      -0.601  14.625  20.260  0.00  0.00    +0.000 NA
ATOM     10  C   UNL     1       0.635  15.431  20.620  0.00  0.00    +0.000 C 
ATOM     11  C   UNL     1       1.010  15.295  19.081  0.00  0.00    +0.000 C 
ATOM     12  C   UNL     1       0.268  13.926  19.252  0.00  0.00    +0.000 C 
ATOM     13  C   UNL     1      -0.474  13.320  18.075  0.00  0.00    +0.000 C 
ATOM     14  H   UNL     1       1.199  11.520  18.924  0.00  0.00    +0.000 HD
ENDROOT
BRANCH   1  20
ATOM     15  C   UNL     1       1.377   8.968  20.202  0.00  0.00    +0.000 A 
ATOM     16  C   UNL     1       1.925   7.689  20.366  0.00  0.00    +0.000 A 
ATOM     17  C   UNL     1       2.414   6.978  19.269  0.00  0.00    +0.000 A 
ATOM     18  C   UNL     1       2.353   7.531  17.996  0.00  0.00    +0.000 A 
ATOM     19  C   UNL     1       1.756   8.778  17.811  0.00  0.00    +0.000 A 
ATOM     20  C   UNL     1       1.247   9.491  18.894  0.00  0.00    +0.000 A 
BRANCH  15  22
ATOM     21  C   UNL     1       0.058   9.025  22.167  0.00  0.00    +0.000 C 
ATOM     22  O   UNL     1       0.894   9.727  21.244  0.00  0.00    +0.000 OA
ENDBRANCH  15  22
ENDBRANCH   1  20
BRANCH  11  23
ATOM     23  C   UNL     1       2.551  15.345  18.686  0.00  0.00    +0.000 A 
ATOM     24  C   UNL     1       3.288  14.217  18.283  0.00  0.00    +0.000 A 
ATOM     25  C   UNL     1       4.674  14.264  18.113  0.00  0.00    +0.000 A 
ATOM     26  C   UNL     1       5.367  15.460  18.326  0.00  0.00    +0.000 A 
ATOM     27  C   UNL     1       4.658  16.614  18.642  0.00  0.00    +0.000 A 
ATOM     28  C   UNL     1       3.271  16.552  18.799  0.00  0.00    +0.000 A 
BRANCH  26  29
ATOM     29  C   UNL     1       6.793  15.480  18.260  0.00  0.00    +0.000 C 
ATOM     30  C   UNL     1       7.997  15.458  18.180  0.00  0.00    +0.000 C 
BRANCH  30  31
ATOM     31  C   UNL     1       9.420  15.425  18.042  0.00  0.00    +0.000 C 
ATOM     32  C   UNL     1      10.242  14.794  19.130  0.00  0.00    +0.000 C 
ATOM     33  C   UNL     1      10.115  14.109  17.804  0.00  0.00    +0.000 C 
ENDBRANCH  30  31
ENDBRANCH  26  29
ENDBRANCH  11  23
BRANCH  10  34
ATOM     34  C   UNL     1       1.610  14.810  21.650  0.00  0.00    +0.000 C 
BRANCH  34  35
ATOM     35  O   UNL     1       1.604  15.591  22.840  0.00  0.00    +0.000 OA
ATOM     36  H   UNL     1       2.518  15.633  23.166  0.00  0.00    +0.000 HD
ENDBRANCH  34  35
ENDBRANCH  10  34
TORSDOF 7
ENDMDL
