MODEL 1
REMARK VINA RESULT:      -8.3      0.000      0.000
REMARK  Name = 
REMARK  13 active torsions:
REMARK  status: ('A' for Active; 'I' for Inactive)
REMARK    1  A    between atoms: C_1  and  O_2
REMARK    2  A    between atoms: O_2  and  C_3
REMARK    3  A    between atoms: C_4  and  N_5
REMARK    4  A    between atoms: N_5  and  C_6
REMARK    5  A    between atoms: C_6  and  C_7
REMARK    6  A    between atoms: C_6  and  C_11
REMARK    7  A    between atoms: C_7  and  C_8
REMARK    8  A    between atoms: C_8  and  C_9
REMARK    9  A    between atoms: C_8  and  C_10
REMARK   10  A    between atoms: N_13  and  N_14
REMARK   11  A    between atoms: C_15  and  C_17
REMARK   12  A    between atoms: C_18  and  S_19
REMARK   13  A    between atoms: S_19  and  C_22
REMARK                            x       y       z     vdW  Elec       q    Type
REMARK                         _______ _______ _______ _____ _____    ______ ____
ROOT
ATOM      1  C   UNL     1       3.377   4.998  18.903  0.00  0.00    +0.000 C 
ATOM      2  O   UNL     1       3.722   5.561  19.944  0.00  0.00    +0.000 OA
ATOM      3  N   UNL     1       2.568   5.649  17.983  0.00  0.00    +0.000 N 
ATOM      4  H   UNL     1       2.004   5.114  17.324  0.00  0.00    +0.000 HD
ENDROOT
BRANCH   3   5
ATOM      5  N   UNL     1       2.095   6.947  18.298  0.00  0.00    +0.000 N 
ATOM      6  C   UNL     1       2.694   8.033  17.696  0.00  0.00    +0.000 C 
ATOM      7  O   UNL     1       3.579   7.926  16.850  0.00  0.00    +0.000 OA
ATOM      8  H   UNL     1       1.362   7.001  19.004  0.00  0.00    +0.000 HD
BRANCH   6   9
ATOM      9  C   UNL     1       2.183   9.356  18.139  0.00  0.00    +0.000 C 
ATOM     10  C   UNL     1       0.869   9.508  18.387  0.00  0.00    +0.000 C 
BRANCH  10  11
ATOM     11  S   UNL     1       0.299  11.064  18.898  0.00  0.00    +0.000 S 
ATOM     12  O   UNL     1       1.427  11.977  18.949  0.00  0.00    +0.000 OA
ATOM     13  O   UNL     1      -0.877  11.403  18.118  0.00  0.00    +0.000 OA
BRANCH  11  14
ATOM     14  C   UNL     1      -0.245  10.810  20.581  0.00  0.00    +0.000 A 
ATOM     15  C   UNL     1       0.132   9.648  21.266  0.00  0.00    +0.000 A 
ATOM     16  C   UNL     1      -0.252   9.475  22.598  0.00  0.00    +0.000 A 
ATOM     17  C   UNL     1      -0.994  10.461  23.247  0.00  0.00    +0.000 A 
ATOM     18  C   UNL     1      -1.341  11.633  22.573  0.00  0.00    +0.000 A 
ATOM     19  C   UNL     1      -0.961  11.815  21.241  0.00  0.00    +0.000 A 
ENDBRANCH  11  14
ENDBRANCH  10  11
ENDBRANCH   6   9
ENDBRANCH   3   5
BRANCH   1  20
ATOM     20  C   UNL     1       3.814   3.535  18.534  0.00  0.00    +0.000 C 
BRANCH  20  21
ATOM     21  N   UNL     1       5.277   3.484  18.228  0.00  0.00    +0.000 N 
ATOM     22  H   UNL     1       5.651   2.534  18.193  0.00  0.00    +0.000 HD
BRANCH  21  24
ATOM     23  C   UNL     1       6.021   5.191  16.537  0.00  0.00    +0.000 C 
ATOM     24  C   UNL     1       5.992   4.472  17.713  0.00  0.00    +0.000 C 
ATOM     25  C   UNL     1       7.160   5.217  18.249  0.00  0.00    +0.000 C 
ATOM     26  O   UNL     1       7.861   5.234  19.232  0.00  0.00    +0.000 OA
ATOM     27  C   UNL     1       7.113   6.061  17.032  0.00  0.00    +0.000 C 
ATOM     28  O   UNL     1       7.719   7.042  16.682  0.00  0.00    +0.000 OA
BRANCH  23  30
ATOM     29  C   UNL     1       5.864   4.196  14.508  0.00  0.00    +0.000 C 
ATOM     30  O   UNL     1       5.326   5.113  15.457  0.00  0.00    +0.000 OA
ENDBRANCH  23  30
ENDBRANCH  21  24
ENDBRANCH  20  21
BRANCH  20  31
ATOM     31  C   UNL     1       3.489   2.531  19.675  0.00  0.00    +0.000 C 
BRANCH  31  32
ATOM     32  C   UNL     1       1.996   2.172  19.895  0.00  0.00    +0.000 C 
ATOM     33  C   UNL     1       1.319   2.985  21.001  0.00  0.00    +0.000 C 
ATOM     34  C   UNL     1       1.185   2.334  18.601  0.00  0.00    +0.000 C 
ENDBRANCH  31  32
ENDBRANCH  20  31
ENDBRANCH   1  20
TORSDOF 10
ENDMDL
MODEL 2
REMARK VINA RESULT:      -8.3      1.587      2.285
REMARK  Name = 
REMARK  13 active torsions:
REMARK  status: ('A' for Active; 'I' for Inactive)
REMARK    1  A    between atoms: C_1  and  O_2
REMARK    2  A    between atoms: O_2  and  C_3
REMARK    3  A    between atoms: C_4  and  N_5
REMARK    4  A    between atoms: N_5  and  C_6
REMARK    5  A    between atoms: C_6  and  C_7
REMARK    6  A    between atoms: C_6  and  C_11
REMARK    7  A    between atoms: C_7  and  C_8
REMARK    8  A    between atoms: C_8  and  C_9
REMARK    9  A    between atoms: C_8  and  C_10
REMARK   10  A    between atoms: N_13  and  N_14
REMARK   11  A    between atoms: C_15  and  C_17
REMARK   12  A    between atoms: C_18  and  S_19
REMARK   13  A    between atoms: S_19  and  C_22
REMARK                            x       y       z     vdW  Elec       q    Type
REMARK                         _______ _______ _______ _____ _____    ______ ____
ROOT
ATOM      1  C   UNL     1       3.240   4.946  18.999  0.00  0.00    +0.000 C 
ATOM      2  O   UNL     1       3.410   5.551  20.059  0.00  0.00    +0.000 OA
ATOM      3  N   UNL     1       2.572   5.549  17.942  0.00  0.00    +0.000 N 
ATOM      4  H   UNL     1       2.127   4.979  17.223  0.00  0.00    +0.000 HD
ENDROOT
BRANCH   3   5
ATOM      5  N   UNL     1       2.032   6.845  18.135  0.00  0.00    +0.000 N 
ATOM      6  C   UNL     1       2.780   7.936  17.750  0.00  0.00    +0.000 C 
ATOM      7  O   UNL     1       3.869   7.838  17.190  0.00  0.00    +0.000 OA
ATOM      8  H   UNL     1       1.127   6.891  18.603  0.00  0.00    +0.000 HD
BRANCH   6   9
ATOM      9  C   UNL     1       2.167   9.255  18.055  0.00  0.00    +0.000 C 
ATOM     10  C   UNL     1       1.173   9.328  18.960  0.00  0.00    +0.000 C 
BRANCH  10  11
ATOM     11  S   UNL     1       0.471  10.878  19.293  0.00  0.00    +0.000 S 
ATOM     12  O   UNL     1       0.294  11.008  20.729  0.00  0.00    +0.000 OA
ATOM     13  O   UNL     1       1.208  11.887  18.557  0.00  0.00    +0.000 OA
BRANCH  11  14
ATOM     14  C   UNL     1      -1.162  10.794  18.571  0.00  0.00    +0.000 A 
ATOM     15  C   UNL     1      -2.178  11.628  19.053  0.00  0.00    +0.000 A 
ATOM     16  C   UNL     1      -3.441  11.597  18.455  0.00  0.00    +0.000 A 
ATOM     17  C   UNL     1      -3.683  10.751  17.373  0.00  0.00    +0.000 A 
ATOM     18  C   UNL     1      -2.659   9.944  16.873  0.00  0.00    +0.000 A 
ATOM     19  C   UNL     1      -1.394   9.969  17.466  0.00  0.00    +0.000 A 
ENDBRANCH  11  14
ENDBRANCH  10  11
ENDBRANCH   6   9
ENDBRANCH   3   5
BRANCH   1  20
ATOM     20  C   UNL     1       3.757   3.484  18.752  0.00  0.00    +0.000 C 
BRANCH  20  21
ATOM     21  N   UNL     1       5.236   3.479  18.526  0.00  0.00    +0.000 N 
ATOM     22  H   UNL     1       5.640   2.540  18.507  0.00  0.00    +0.000 HD
BRANCH  21  24
ATOM     23  C   UNL     1       6.143   5.108  16.839  0.00  0.00    +0.000 C 
ATOM     24  C   UNL     1       5.947   4.490  18.056  0.00  0.00    +0.000 C 
ATOM     25  C   UNL     1       6.917   5.398  18.723  0.00  0.00    +0.000 C 
ATOM     26  O   UNL     1       7.407   5.571  19.813  0.00  0.00    +0.000 OA
ATOM     27  C   UNL     1       7.035   6.128  17.438  0.00  0.00    +0.000 C 
ATOM     28  O   UNL     1       7.609   7.135  17.109  0.00  0.00    +0.000 OA
BRANCH  23  30
ATOM     29  C   UNL     1       6.677   4.391  14.757  0.00  0.00    +0.000 C 
ATOM     30  O   UNL     1       5.683   4.867  15.662  0.00  0.00    +0.000 OA
ENDBRANCH  23  30
ENDBRANCH  21  24
ENDBRANCH  20  21
BRANCH  20  31
ATOM     31  C   UNL     1       3.413   2.543  19.940  0.00  0.00    +0.000 C 
BRANCH  31  32
ATOM     32  C   UNL     1       1.922   2.150  20.120  0.00  0.00    +0.000 C 
ATOM     33  C   UNL     1       1.197   2.948  21.206  0.00  0.00    +0.000 C 
ATOM     34  C   UNL     1       1.143   2.293  18.804  0.00  0.00    +0.000 C 
ENDBRANCH  31  32
ENDBRANCH  20  31
ENDBRANCH   1  20
TORSDOF 10
ENDMDL
MODEL 3
REMARK VINA RESULT:      -8.2      0.743      1.932
REMARK  Name = 
REMARK  13 active torsions:
REMARK  status: ('A' for Active; 'I' for Inactive)
REMARK    1  A    between atoms: C_1  and  O_2
REMARK    2  A    between atoms: O_2  and  C_3
REMARK    3  A    between atoms: C_4  and  N_5
REMARK    4  A    between atoms: N_5  and  C_6
REMARK    5  A    between atoms: C_6  and  C_7
REMARK    6  A    between atoms: C_6  and  C_11
REMARK    7  A    between atoms: C_7  and  C_8
REMARK    8  A    between atoms: C_8  and  C_9
REMARK    9  A    between atoms: C_8  and  C_10
REMARK   10  A    between atoms: N_13  and  N_14
REMARK   11  A    between atoms: C_15  and  C_17
REMARK   12  A    between atoms: C_18  and  S_19
REMARK   13  A    between atoms: S_19  and  C_22
REMARK                            x       y       z     vdW  Elec       q    Type
REMARK                         _______ _______ _______ _____ _____    ______ ____
ROOT
ATOM      1  C   UNL     1       3.322   4.812  18.985  0.00  0.00    +0.000 C 
ATOM      2  O   UNL     1       3.513   5.501  19.990  0.00  0.00    +0.000 OA
ATOM      3  N   UNL     1       2.622   5.323  17.902  0.00  0.00    +0.000 N 
ATOM      4  H   UNL     1       2.164   4.695  17.242  0.00  0.00    +0.000 HD
ENDROOT
BRANCH   3   5
ATOM      5  N   UNL     1       2.074   6.626  18.004  0.00  0.00    +0.000 N 
ATOM      6  C   UNL     1       2.858   7.702  17.646  0.00  0.00    +0.000 C 
ATOM      7  O   UNL     1       3.989   7.582  17.182  0.00  0.00    +0.000 OA
ATOM      8  H   UNL     1       1.135   6.692  18.393  0.00  0.00    +0.000 HD
BRANCH   6   9
ATOM      9  C   UNL     1       2.229   9.032  17.853  0.00  0.00    +0.000 C 
ATOM     10  C   UNL     1       1.367   9.203  18.873  0.00  0.00    +0.000 C 
BRANCH  10  11
ATOM     11  S   UNL     1       0.643  10.764  19.089  0.00  0.00    +0.000 S 
ATOM     12  O   UNL     1       1.692  11.768  19.076  0.00  0.00    +0.000 OA
ATOM     13  O   UNL     1      -0.485  10.879  18.184  0.00  0.00    +0.000 OA
BRANCH  11  14
ATOM     14  C   UNL     1      -0.021  10.722  20.749  0.00  0.00    +0.000 A 
ATOM     15  C   UNL     1      -0.771  11.805  21.224  0.00  0.00    +0.000 A 
ATOM     16  C   UNL     1      -1.331  11.751  22.502  0.00  0.00    +0.000 A 
ATOM     17  C   UNL     1      -1.158  10.616  23.295  0.00  0.00    +0.000 A 
ATOM     18  C   UNL     1      -0.438   9.524  22.807  0.00  0.00    +0.000 A 
ATOM     19  C   UNL     1       0.126   9.571  21.529  0.00  0.00    +0.000 A 
ENDBRANCH  11  14
ENDBRANCH  10  11
ENDBRANCH   6   9
ENDBRANCH   3   5
BRANCH   1  20
ATOM     20  C   UNL     1       3.846   3.339  18.844  0.00  0.00    +0.000 C 
BRANCH  20  21
ATOM     21  N   UNL     1       5.333   3.322  18.679  0.00  0.00    +0.000 N 
ATOM     22  H   UNL     1       5.785   2.540  19.159  0.00  0.00    +0.000 HD
BRANCH  21  24
ATOM     23  C   UNL     1       7.243   4.610  17.673  0.00  0.00    +0.000 C 
ATOM     24  C   UNL     1       6.014   3.990  17.764  0.00  0.00    +0.000 C 
ATOM     25  C   UNL     1       5.661   4.389  16.377  0.00  0.00    +0.000 C 
ATOM     26  O   UNL     1       4.735   4.297  15.606  0.00  0.00    +0.000 OA
ATOM     27  C   UNL     1       7.026   4.953  16.247  0.00  0.00    +0.000 C 
ATOM     28  O   UNL     1       7.637   5.438  15.329  0.00  0.00    +0.000 OA
BRANCH  23  30
ATOM     29  C   UNL     1       7.961   5.868  19.415  0.00  0.00    +0.000 C 
ATOM     30  O   UNL     1       8.193   4.780  18.523  0.00  0.00    +0.000 OA
ENDBRANCH  23  30
ENDBRANCH  21  24
ENDBRANCH  20  21
BRANCH  20  31
ATOM     31  C   UNL     1       3.452   2.467  20.068  0.00  0.00    +0.000 C 
BRANCH  31  32
ATOM     32  C   UNL     1       1.951   2.101  20.220  0.00  0.00    +0.000 C 
ATOM     33  C   UNL     1       1.202   2.967  21.235  0.00  0.00    +0.000 C 
ATOM     34  C   UNL     1       1.217   2.178  18.873  0.00  0.00    +0.000 C 
ENDBRANCH  31  32
ENDBRANCH  20  31
ENDBRANCH   1  20
TORSDOF 10
ENDMDL
MODEL 4
REMARK VINA RESULT:      -8.2      1.880      2.541
REMARK  Name = 
REMARK  13 active torsions:
REMARK  status: ('A' for Active; 'I' for Inactive)
REMARK    1  A    between atoms: C_1  and  O_2
REMARK    2  A    between atoms: O_2  and  C_3
REMARK    3  A    between atoms: C_4  and  N_5
REMARK    4  A    between atoms: N_5  and  C_6
REMARK    5  A    between atoms: C_6  and  C_7
REMARK    6  A    between atoms: C_6  and  C_11
REMARK    7  A    between atoms: C_7  and  C_8
REMARK    8  A    between atoms: C_8  and  C_9
REMARK    9  A    between atoms: C_8  and  C_10
REMARK   10  A    between atoms: N_13  and  N_14
REMARK   11  A    between atoms: C_15  and  C_17
REMARK   12  A    between atoms: C_18  and  S_19
REMARK   13  A    between atoms: S_19  and  C_22
REMARK                            x       y       z     vdW  Elec       q    Type
REMARK                         _______ _______ _______ _____ _____    ______ ____
ROOT
ATOM      1  C   UNL     1       3.335   5.068  18.693  0.00  0.00    +0.000 C 
ATOM      2  O   UNL     1       2.873   5.629  17.698  0.00  0.00    +0.000 OA
ATOM      3  N   UNL     1       3.345   5.710  19.923  0.00  0.00    +0.000 N 
ATOM      4  H   UNL     1       4.008   5.429  20.645  0.00  0.00    +0.000 HD
ENDROOT
BRANCH   3   5
ATOM      5  N   UNL     1       2.876   7.045  19.993  0.00  0.00    +0.000 N 
ATOM      6  C   UNL     1       1.670   7.291  20.614  0.00  0.00    +0.000 C 
ATOM      7  O   UNL     1       1.010   6.413  21.166  0.00  0.00    +0.000 OA
ATOM      8  H   UNL     1       3.446   7.749  19.525  0.00  0.00    +0.000 HD
BRANCH   6   9
ATOM      9  C   UNL     1       1.223   8.707  20.576  0.00  0.00    +0.000 C 
ATOM     10  C   UNL     1       0.978   9.291  19.389  0.00  0.00    +0.000 C 
BRANCH  10  11
ATOM     11  S   UNL     1       0.463  10.947  19.373  0.00  0.00    +0.000 S 
ATOM     12  O   UNL     1       0.237  11.375  20.742  0.00  0.00    +0.000 OA
ATOM     13  O   UNL     1       1.357  11.700  18.514  0.00  0.00    +0.000 OA
BRANCH  11  14
ATOM     14  C   UNL     1      -1.131  10.912  18.566  0.00  0.00    +0.000 A 
ATOM     15  C   UNL     1      -1.357  10.017  17.513  0.00  0.00    +0.000 A 
ATOM     16  C   UNL     1      -2.618   9.955  16.915  0.00  0.00    +0.000 A 
ATOM     17  C   UNL     1      -3.652  10.770  17.377  0.00  0.00    +0.000 A 
ATOM     18  C   UNL     1      -3.434  11.637  18.449  0.00  0.00    +0.000 A 
ATOM     19  C   UNL     1      -2.176  11.705  19.052  0.00  0.00    +0.000 A 
ENDBRANCH  11  14
ENDBRANCH  10  11
ENDBRANCH   6   9
ENDBRANCH   3   5
BRANCH   1  20
ATOM     20  C   UNL     1       3.930   3.615  18.661  0.00  0.00    +0.000 C 
BRANCH  20  21
ATOM     21  N   UNL     1       5.420   3.659  18.536  0.00  0.00    +0.000 N 
ATOM     22  H   UNL     1       5.868   2.757  18.713  0.00  0.00    +0.000 HD
BRANCH  21  24
ATOM     23  C   UNL     1       6.184   5.178  16.683  0.00  0.00    +0.000 C 
ATOM     24  C   UNL     1       6.116   4.613  17.940  0.00  0.00    +0.000 C 
ATOM     25  C   UNL     1       7.209   5.486  18.440  0.00  0.00    +0.000 C 
ATOM     26  O   UNL     1       7.844   5.667  19.451  0.00  0.00    +0.000 OA
ATOM     27  C   UNL     1       7.197   6.166  17.123  0.00  0.00    +0.000 C 
ATOM     28  O   UNL     1       7.775   7.128  16.683  0.00  0.00    +0.000 OA
BRANCH  23  30
ATOM     29  C   UNL     1       6.208   3.927  14.794  0.00  0.00    +0.000 C 
ATOM     30  O   UNL     1       5.565   4.924  15.585  0.00  0.00    +0.000 OA
ENDBRANCH  23  30
ENDBRANCH  21  24
ENDBRANCH  20  21
BRANCH  20  31
ATOM     31  C   UNL     1       3.541   2.805  19.928  0.00  0.00    +0.000 C 
BRANCH  31  32
ATOM     32  C   UNL     1       2.091   2.256  19.998  0.00  0.00    +0.000 C 
ATOM     33  C   UNL     1       1.187   3.015  20.971  0.00  0.00    +0.000 C 
ATOM     34  C   UNL     1       1.427   2.252  18.613  0.00  0.00    +0.000 C 
ENDBRANCH  31  32
ENDBRANCH  20  31
ENDBRANCH   1  20
TORSDOF 10
ENDMDL
MODEL 5
REMARK VINA RESULT:      -8.1      1.934      2.758
REMARK  Name = 
REMARK  13 active torsions:
REMARK  status: ('A' for Active; 'I' for Inactive)
REMARK    1  A    between atoms: C_1  and  O_2
REMARK    2  A    between atoms: O_2  and  C_3
REMARK    3  A    between atoms: C_4  and  N_5
REMARK    4  A    between atoms: N_5  and  C_6
REMARK    5  A    between atoms: C_6  and  C_7
REMARK    6  A    between atoms: C_6  and  C_11
REMARK    7  A    between atoms: C_7  and  C_8
REMARK    8  A    between atoms: C_8  and  C_9
REMARK    9  A    between atoms: C_8  and  C_10
REMARK   10  A    between atoms: N_13  and  N_14
REMARK   11  A    between atoms: C_15  and  C_17
REMARK   12  A    between atoms: C_18  and  S_19
REMARK   13  A    between atoms: S_19  and  C_22
REMARK                            x       y       z     vdW  Elec       q    Type
REMARK                         _______ _______ _______ _____ _____    ______ ____
ROOT
ATOM      1  C   UNL     1       3.751   5.128  18.470  0.00  0.00    +0.000 C 
ATOM      2  O   UNL     1       3.387   5.765  17.480  0.00  0.00    +0.000 OA
ATOM      3  N   UNL     1       3.596   5.654  19.745  0.00  0.00    +0.000 N 
ATOM      4  H   UNL     1       4.181   5.325  20.513  0.00  0.00    +0.000 HD
ENDROOT
BRANCH   3   5
ATOM      5  N   UNL     1       3.074   6.965  19.876  0.00  0.00    +0.000 N 
ATOM      6  C   UNL     1       1.839   7.129  20.465  0.00  0.00    +0.000 C 
ATOM      7  O   UNL     1       1.194   6.196  20.939  0.00  0.00    +0.000 OA
ATOM      8  H   UNL     1       3.633   7.716  19.471  0.00  0.00    +0.000 HD
BRANCH   6   9
ATOM      9  C   UNL     1       1.339   8.528  20.494  0.00  0.00    +0.000 C 
ATOM     10  C   UNL     1       1.314   9.244  19.355  0.00  0.00    +0.000 C 
BRANCH  10  11
ATOM     11  S   UNL     1       0.732  10.876  19.419  0.00  0.00    +0.000 S 
ATOM     12  O   UNL     1       0.571  11.258  20.811  0.00  0.00    +0.000 OA
ATOM     13  O   UNL     1       1.541  11.690  18.531  0.00  0.00    +0.000 OA
BRANCH  11  14
ATOM     14  C   UNL     1      -0.906  10.795  18.707  0.00  0.00    +0.000 A 
ATOM     15  C   UNL     1      -1.910  11.650  19.176  0.00  0.00    +0.000 A 
ATOM     16  C   UNL     1      -3.176  11.620  18.586  0.00  0.00    +0.000 A 
ATOM     17  C   UNL     1      -3.432  10.755  17.522  0.00  0.00    +0.000 A 
ATOM     18  C   UNL     1      -2.420   9.927  17.034  0.00  0.00    +0.000 A 
ATOM     19  C   UNL     1      -1.151   9.951  17.619  0.00  0.00    +0.000 A 
ENDBRANCH  11  14
ENDBRANCH  10  11
ENDBRANCH   6   9
ENDBRANCH   3   5
BRANCH   1  20
ATOM     20  C   UNL     1       4.399   3.700  18.381  0.00  0.00    +0.000 C 
BRANCH  20  21
ATOM     21  N   UNL     1       5.891   3.796  18.397  0.00  0.00    +0.000 N 
ATOM     22  H   UNL     1       6.357   2.902  18.223  0.00  0.00    +0.000 HD
BRANCH  21  24
ATOM     23  C   UNL     1       6.879   5.841  17.318  0.00  0.00    +0.000 C 
ATOM     24  C   UNL     1       6.593   4.912  18.297  0.00  0.00    +0.000 C 
ATOM     25  C   UNL     1       7.440   5.628  19.286  0.00  0.00    +0.000 C 
ATOM     26  O   UNL     1       7.807   5.511  20.431  0.00  0.00    +0.000 OA
ATOM     27  C   UNL     1       7.651   6.681  18.264  0.00  0.00    +0.000 C 
ATOM     28  O   UNL     1       8.201   7.753  18.282  0.00  0.00    +0.000 OA
BRANCH  23  30
ATOM     29  C   UNL     1       7.002   4.800  15.310  0.00  0.00    +0.000 C 
ATOM     30  O   UNL     1       6.556   5.917  16.076  0.00  0.00    +0.000 OA
ENDBRANCH  23  30
ENDBRANCH  21  24
ENDBRANCH  20  21
BRANCH  20  31
ATOM     31  C   UNL     1       3.927   2.779  19.541  0.00  0.00    +0.000 C 
BRANCH  31  32
ATOM     32  C   UNL     1       2.449   2.916  19.994  0.00  0.00    +0.000 C 
ATOM     33  C   UNL     1       1.477   2.031  19.210  0.00  0.00    +0.000 C 
ATOM     34  C   UNL     1       2.291   2.610  21.491  0.00  0.00    +0.000 C 
ENDBRANCH  31  32
ENDBRANCH  20  31
ENDBRANCH   1  20
TORSDOF 10
ENDMDL
MODEL 6
REMARK VINA RESULT:      -8.0      5.588      8.242
REMARK  Name = 
REMARK  13 active torsions:
REMARK  status: ('A' for Active; 'I' for Inactive)
REMARK    1  A    between atoms: C_1  and  O_2
REMARK    2  A    between atoms: O_2  and  C_3
REMARK    3  A    between atoms: C_4  and  N_5
REMARK    4  A    between atoms: N_5  and  C_6
REMARK    5  A    between atoms: C_6  and  C_7
REMARK    6  A    between atoms: C_6  and  C_11
REMARK    7  A    between atoms: C_7  and  C_8
REMARK    8  A    between atoms: C_8  and  C_9
REMARK    9  A    between atoms: C_8  and  C_10
REMARK   10  A    between atoms: N_13  and  N_14
REMARK   11  A    between atoms: C_15  and  C_17
REMARK   12  A    between atoms: C_18  and  S_19
REMARK   13  A    between atoms: S_19  and  C_22
REMARK                            x       y       z     vdW  Elec       q    Type
REMARK                         _______ _______ _______ _____ _____    ______ ____
ROOT
ATOM      1  C   UNL     1       7.481   5.604  18.887  0.00  0.00    +0.000 C 
ATOM      2  O   UNL     1       7.632   5.444  20.100  0.00  0.00    +0.000 OA
ATOM      3  N   UNL     1       7.959   6.748  18.263  0.00  0.00    +0.000 N 
ATOM      4  H   UNL     1       7.556   7.058  17.379  0.00  0.00    +0.000 HD
ENDROOT
BRANCH   3   5
ATOM      5  N   UNL     1       8.561   7.753  19.060  0.00  0.00    +0.000 N 
ATOM      6  C   UNL     1       8.566   9.050  18.596  0.00  0.00    +0.000 C 
ATOM      7  O   UNL     1       8.018   9.390  17.550  0.00  0.00    +0.000 OA
ATOM      8  H   UNL     1       9.007   7.438  19.921  0.00  0.00    +0.000 HD
BRANCH   6   9
ATOM      9  C   UNL     1       9.281  10.023  19.463  0.00  0.00    +0.000 C 
ATOM     10  C   UNL     1      10.123  10.911  18.903  0.00  0.00    +0.000 C 
BRANCH  10  11
ATOM     11  S   UNL     1      10.950  12.031  19.938  0.00  0.00    +0.000 S 
ATOM     12  O   UNL     1      10.138  12.255  21.121  0.00  0.00    +0.000 OA
ATOM     13  O   UNL     1      12.329  11.603  20.073  0.00  0.00    +0.000 OA
BRANCH  11  14
ATOM     14  C   UNL     1      10.965  13.563  19.017  0.00  0.00    +0.000 A 
ATOM     15  C   UNL     1      10.846  14.782  19.695  0.00  0.00    +0.000 A 
ATOM     16  C   UNL     1      10.908  15.980  18.979  0.00  0.00    +0.000 A 
ATOM     17  C   UNL     1      11.105  15.962  17.599  0.00  0.00    +0.000 A 
ATOM     18  C   UNL     1      11.256  14.747  16.929  0.00  0.00    +0.000 A 
ATOM     19  C   UNL     1      11.195  13.543  17.637  0.00  0.00    +0.000 A 
ENDBRANCH  11  14
ENDBRANCH  10  11
ENDBRANCH   6   9
ENDBRANCH   3   5
BRANCH   1  20
ATOM     20  C   UNL     1       6.762   4.556  17.966  0.00  0.00    +0.000 C 
BRANCH  20  21
ATOM     21  N   UNL     1       5.647   3.884  18.702  0.00  0.00    +0.000 N 
ATOM     22  H   UNL     1       5.928   3.514  19.612  0.00  0.00    +0.000 HD
BRANCH  21  24
ATOM     23  C   UNL     1       3.410   5.014  18.499  0.00  0.00    +0.000 C 
ATOM     24  C   UNL     1       4.358   4.015  18.435  0.00  0.00    +0.000 C 
ATOM     25  C   UNL     1       3.353   3.031  17.956  0.00  0.00    +0.000 C 
ATOM     26  O   UNL     1       3.287   1.862  17.658  0.00  0.00    +0.000 OA
ATOM     27  C   UNL     1       2.366   4.137  17.918  0.00  0.00    +0.000 C 
ATOM     28  O   UNL     1       1.227   4.216  17.534  0.00  0.00    +0.000 OA
BRANCH  23  30
ATOM     29  C   UNL     1       3.195   7.177  17.862  0.00  0.00    +0.000 C 
ATOM     30  O   UNL     1       3.465   6.236  18.898  0.00  0.00    +0.000 OA
ENDBRANCH  23  30
ENDBRANCH  21  24
ENDBRANCH  20  21
BRANCH  20  31
ATOM     31  C   UNL     1       6.205   5.213  16.672  0.00  0.00    +0.000 C 
BRANCH  31  32
ATOM     32  C   UNL     1       6.449   4.460  15.337  0.00  0.00    +0.000 C 
ATOM     33  C   UNL     1       5.196   4.315  14.469  0.00  0.00    +0.000 C 
ATOM     34  C   UNL     1       7.546   5.138  14.504  0.00  0.00    +0.000 C 
ENDBRANCH  31  32
ENDBRANCH  20  31
ENDBRANCH   1  20
TORSDOF 10
ENDMDL
MODEL 7
REMARK VINA RESULT:      -7.9      5.174      7.589
REMARK  Name = 
REMARK  13 active torsions:
REMARK  status: ('A' for Active; 'I' for Inactive)
REMARK    1  A    between atoms: C_1  and  O_2
REMARK    2  A    between atoms: O_2  and  C_3
REMARK    3  A    between atoms: C_4  and  N_5
REMARK    4  A    between atoms: N_5  and  C_6
REMARK    5  A    between atoms: C_6  and  C_7
REMARK    6  A    between atoms: C_6  and  C_11
REMARK    7  A    between atoms: C_7  and  C_8
REMARK    8  A    between atoms: C_8  and  C_9
REMARK    9  A    between atoms: C_8  and  C_10
REMARK   10  A    between atoms: N_13  and  N_14
REMARK   11  A    between atoms: C_15  and  C_17
REMARK   12  A    between atoms: C_18  and  S_19
REMARK   13  A    between atoms: S_19  and  C_22
REMARK                            x       y       z     vdW  Elec       q    Type
REMARK                         _______ _______ _______ _____ _____    ______ ____
ROOT
ATOM      1  C   UNL     1       7.303   5.515  18.928  0.00  0.00    +0.000 C 
ATOM      2  O   UNL     1       7.496   5.503  20.145  0.00  0.00    +0.000 OA
ATOM      3  N   UNL     1       7.792   6.553  18.147  0.00  0.00    +0.000 N 
ATOM      4  H   UNL     1       7.365   6.763  17.245  0.00  0.00    +0.000 HD
ENDROOT
BRANCH   3   5
ATOM      5  N   UNL     1       8.457   7.627  18.789  0.00  0.00    +0.000 N 
ATOM      6  C   UNL     1       8.329   8.894  18.260  0.00  0.00    +0.000 C 
ATOM      7  O   UNL     1       7.616   9.147  17.292  0.00  0.00    +0.000 OA
ATOM      8  H   UNL     1       9.041   7.384  19.588  0.00  0.00    +0.000 HD
BRANCH   6   9
ATOM      9  C   UNL     1       9.117   9.945  18.954  0.00  0.00    +0.000 C 
ATOM     10  C   UNL     1       9.563  11.005  18.256  0.00  0.00    +0.000 C 
BRANCH  10  11
ATOM     11  S   UNL     1      10.485  12.214  19.089  0.00  0.00    +0.000 S 
ATOM     12  O   UNL     1      10.359  11.990  20.519  0.00  0.00    +0.000 OA
ATOM     13  O   UNL     1      11.799  12.295  18.479  0.00  0.00    +0.000 OA
BRANCH  11  14
ATOM     14  C   UNL     1       9.644  13.749  18.724  0.00  0.00    +0.000 A 
ATOM     15  C   UNL     1       8.395  13.722  18.093  0.00  0.00    +0.000 A 
ATOM     16  C   UNL     1       7.716  14.919  17.853  0.00  0.00    +0.000 A 
ATOM     17  C   UNL     1       8.272  16.133  18.255  0.00  0.00    +0.000 A 
ATOM     18  C   UNL     1       9.503  16.155  18.914  0.00  0.00    +0.000 A 
ATOM     19  C   UNL     1      10.189  14.962  19.158  0.00  0.00    +0.000 A 
ENDBRANCH  11  14
ENDBRANCH  10  11
ENDBRANCH   6   9
ENDBRANCH   3   5
BRANCH   1  20
ATOM     20  C   UNL     1       6.515   4.386  18.173  0.00  0.00    +0.000 C 
BRANCH  20  21
ATOM     21  N   UNL     1       5.481   3.778  19.065  0.00  0.00    +0.000 N 
ATOM     22  H   UNL     1       5.797   3.661  20.031  0.00  0.00    +0.000 HD
BRANCH  21  24
ATOM     23  C   UNL     1       3.078   4.503  18.923  0.00  0.00    +0.000 C 
ATOM     24  C   UNL     1       4.188   3.693  18.802  0.00  0.00    +0.000 C 
ATOM     25  C   UNL     1       3.370   2.578  18.258  0.00  0.00    +0.000 C 
ATOM     26  O   UNL     1       3.510   1.437  17.889  0.00  0.00    +0.000 OA
ATOM     27  C   UNL     1       2.203   3.492  18.285  0.00  0.00    +0.000 C 
ATOM     28  O   UNL     1       1.065   3.391  17.901  0.00  0.00    +0.000 OA
BRANCH  23  30
ATOM     29  C   UNL     1       2.921   6.699  18.392  0.00  0.00    +0.000 C 
ATOM     30  O   UNL     1       2.918   5.688  19.397  0.00  0.00    +0.000 OA
ENDBRANCH  23  30
ENDBRANCH  21  24
ENDBRANCH  20  21
BRANCH  20  31
ATOM     31  C   UNL     1       5.834   4.923  16.883  0.00  0.00    +0.000 C 
BRANCH  31  32
ATOM     32  C   UNL     1       6.249   4.267  15.540  0.00  0.00    +0.000 C 
ATOM     33  C   UNL     1       5.100   4.119  14.540  0.00  0.00    +0.000 C 
ATOM     34  C   UNL     1       7.388   5.046  14.865  0.00  0.00    +0.000 C 
ENDBRANCH  31  32
ENDBRANCH  20  31
ENDBRANCH   1  20
TORSDOF 10
ENDMDL
MODEL 8
REMARK VINA RESULT:      -7.8      2.460      3.284
REMARK  Name = 
REMARK  13 active torsions:
REMARK  status: ('A' for Active; 'I' for Inactive)
REMARK    1  A    between atoms: C_1  and  O_2
REMARK    2  A    between atoms: O_2  and  C_3
REMARK    3  A    between atoms: C_4  and  N_5
REMARK    4  A    between atoms: N_5  and  C_6
REMARK    5  A    between atoms: C_6  and  C_7
REMARK    6  A    between atoms: C_6  and  C_11
REMARK    7  A    between atoms: C_7  and  C_8
REMARK    8  A    between atoms: C_8  and  C_9
REMARK    9  A    between atoms: C_8  and  C_10
REMARK   10  A    between atoms: N_13  and  N_14
REMARK   11  A    between atoms: C_15  and  C_17
REMARK   12  A    between atoms: C_18  and  S_19
REMARK   13  A    between atoms: S_19  and  C_22
REMARK                            x       y       z     vdW  Elec       q    Type
REMARK                         _______ _______ _______ _____ _____    ______ ____
ROOT
ATOM      1  C   UNL     1       2.685   5.860  19.636  0.00  0.00    +0.000 C 
ATOM      2  O   UNL     1       1.956   5.752  20.623  0.00  0.00    +0.000 OA
ATOM      3  N   UNL     1       2.775   7.065  18.954  0.00  0.00    +0.000 N 
ATOM      4  H   UNL     1       3.074   7.085  17.979  0.00  0.00    +0.000 HD
ENDROOT
BRANCH   3   5
ATOM      5  N   UNL     1       1.961   8.145  19.379  0.00  0.00    +0.000 N 
ATOM      6  C   UNL     1       1.673   9.149  18.480  0.00  0.00    +0.000 C 
ATOM      7  O   UNL     1       2.037   9.122  17.307  0.00  0.00    +0.000 OA
ATOM      8  H   UNL     1       1.676   8.137  20.358  0.00  0.00    +0.000 HD
BRANCH   6   9
ATOM      9  C   UNL     1       0.874  10.274  19.032  0.00  0.00    +0.000 C 
ATOM     10  C   UNL     1      -0.225  10.688  18.375  0.00  0.00    +0.000 C 
BRANCH  10  11
ATOM     11  S   UNL     1      -1.135  12.007  19.037  0.00  0.00    +0.000 S 
ATOM     12  O   UNL     1      -1.172  11.866  20.482  0.00  0.00    +0.000 OA
ATOM     13  O   UNL     1      -0.663  13.241  18.439  0.00  0.00    +0.000 OA
BRANCH  11  14
ATOM     14  C   UNL     1      -2.801  11.743  18.444  0.00  0.00    +0.000 A 
ATOM     15  C   UNL     1      -3.889  12.135  19.233  0.00  0.00    +0.000 A 
ATOM     16  C   UNL     1      -5.189  11.974  18.747  0.00  0.00    +0.000 A 
ATOM     17  C   UNL     1      -5.401  11.441  17.476  0.00  0.00    +0.000 A 
ATOM     18  C   UNL     1      -4.313  11.081  16.678  0.00  0.00    +0.000 A 
ATOM     19  C   UNL     1      -3.010  11.238  17.156  0.00  0.00    +0.000 A 
ENDBRANCH  11  14
ENDBRANCH  10  11
ENDBRANCH   6   9
ENDBRANCH   3   5
BRANCH   1  20
ATOM     20  C   UNL     1       3.557   4.678  19.079  0.00  0.00    +0.000 C 
BRANCH  20  21
ATOM     21  N   UNL     1       5.005   5.052  19.069  0.00  0.00    +0.000 N 
ATOM     22  H   UNL     1       5.473   4.889  19.964  0.00  0.00    +0.000 HD
BRANCH  21  24
ATOM     23  C   UNL     1       6.864   5.977  17.650  0.00  0.00    +0.000 C 
ATOM     24  C   UNL     1       5.743   5.248  17.989  0.00  0.00    +0.000 C 
ATOM     25  C   UNL     1       5.604   4.733  16.602  0.00  0.00    +0.000 C 
ATOM     26  O   UNL     1       4.864   4.029  15.957  0.00  0.00    +0.000 OA
ATOM     27  C   UNL     1       6.873   5.428  16.274  0.00  0.00    +0.000 C 
ATOM     28  O   UNL     1       7.569   5.457  15.291  0.00  0.00    +0.000 OA
BRANCH  23  30
ATOM     29  C   UNL     1       7.796   8.042  17.658  0.00  0.00    +0.000 C 
ATOM     30  O   UNL     1       7.600   6.793  18.317  0.00  0.00    +0.000 OA
ENDBRANCH  23  30
ENDBRANCH  21  24
ENDBRANCH  20  21
BRANCH  20  31
ATOM     31  C   UNL     1       3.364   3.379  19.910  0.00  0.00    +0.000 C 
BRANCH  31  32
ATOM     32  C   UNL     1       2.430   2.293  19.314  0.00  0.00    +0.000 C 
ATOM     33  C   UNL     1       0.942   2.637  19.407  0.00  0.00    +0.000 C 
ATOM     34  C   UNL     1       2.775   2.001  17.847  0.00  0.00    +0.000 C 
ENDBRANCH  31  32
ENDBRANCH  20  31
ENDBRANCH   1  20
TORSDOF 10
ENDMDL
MODEL 9
REMARK VINA RESULT:      -7.7      2.307      3.375
REMARK  Name = 
REMARK  13 active torsions:
REMARK  status: ('A' for Active; 'I' for Inactive)
REMARK    1  A    between atoms: C_1  and  O_2
REMARK    2  A    between atoms: O_2  and  C_3
REMARK    3  A    between atoms: C_4  and  N_5
REMARK    4  A    between atoms: N_5  and  C_6
REMARK    5  A    between atoms: C_6  and  C_7
REMARK    6  A    between atoms: C_6  and  C_11
REMARK    7  A    between atoms: C_7  and  C_8
REMARK    8  A    between atoms: C_8  and  C_9
REMARK    9  A    between atoms: C_8  and  C_10
REMARK   10  A    between atoms: N_13  and  N_14
REMARK   11  A    between atoms: C_15  and  C_17
REMARK   12  A    between atoms: C_18  and  S_19
REMARK   13  A    between atoms: S_19  and  C_22
REMARK                            x       y       z     vdW  Elec       q    Type
REMARK                         _______ _______ _______ _____ _____    ______ ____
ROOT
ATOM      1  C   UNL     1       2.549   6.604  19.090  0.00  0.00    +0.000 C 
ATOM      2  O   UNL     1       2.296   7.014  17.956  0.00  0.00    +0.000 OA
ATOM      3  N   UNL     1       2.185   7.345  20.206  0.00  0.00    +0.000 N 
ATOM      4  H   UNL     1       2.671   7.215  21.092  0.00  0.00    +0.000 HD
ENDROOT
BRANCH   3   5
ATOM      5  N   UNL     1       1.578   8.611  20.007  0.00  0.00    +0.000 N 
ATOM      6  C   UNL     1       0.796   9.134  21.015  0.00  0.00    +0.000 C 
ATOM      7  O   UNL     1       0.648   8.583  22.103  0.00  0.00    +0.000 OA
ATOM      8  H   UNL     1       1.719   9.041  19.094  0.00  0.00    +0.000 HD
BRANCH   6   9
ATOM      9  C   UNL     1       0.143  10.429  20.692  0.00  0.00    +0.000 C 
ATOM     10  C   UNL     1       0.731  11.265  19.817  0.00  0.00    +0.000 C 
BRANCH  10  11
ATOM     11  S   UNL     1      -0.050  12.773  19.463  0.00  0.00    +0.000 S 
ATOM     12  O   UNL     1      -0.196  13.521  20.699  0.00  0.00    +0.000 OA
ATOM     13  O   UNL     1       0.610  13.377  18.322  0.00  0.00    +0.000 OA
BRANCH  11  14
ATOM     14  C   UNL     1      -1.694  12.312  18.934  0.00  0.00    +0.000 A 
ATOM     15  C   UNL     1      -1.868  11.629  17.724  0.00  0.00    +0.000 A 
ATOM     16  C   UNL     1      -3.147  11.226  17.335  0.00  0.00    +0.000 A 
ATOM     17  C   UNL     1      -4.244  11.488  18.156  0.00  0.00    +0.000 A 
ATOM     18  C   UNL     1      -4.064  12.140  19.377  0.00  0.00    +0.000 A 
ATOM     19  C   UNL     1      -2.787  12.547  19.773  0.00  0.00    +0.000 A 
ENDBRANCH  11  14
ENDBRANCH  10  11
ENDBRANCH   6   9
ENDBRANCH   3   5
BRANCH   1  20
ATOM     20  C   UNL     1       3.280   5.242  19.368  0.00  0.00    +0.000 C 
BRANCH  20  21
ATOM     21  N   UNL     1       4.758   5.447  19.462  0.00  0.00    +0.000 N 
ATOM     22  H   UNL     1       5.097   5.521  20.424  0.00  0.00    +0.000 HD
BRANCH  21  24
ATOM     23  C   UNL     1       6.883   5.680  18.137  0.00  0.00    +0.000 C 
ATOM     24  C   UNL     1       5.630   5.225  18.493  0.00  0.00    +0.000 C 
ATOM     25  C   UNL     1       5.562   4.346  17.297  0.00  0.00    +0.000 C 
ATOM     26  O   UNL     1       4.793   3.579  16.768  0.00  0.00    +0.000 OA
ATOM     27  C   UNL     1       6.953   4.753  16.983  0.00  0.00    +0.000 C 
ATOM     28  O   UNL     1       7.747   4.407  16.146  0.00  0.00    +0.000 OA
BRANCH  23  30
ATOM     29  C   UNL     1       7.807   7.729  17.852  0.00  0.00    +0.000 C 
ATOM     30  O   UNL     1       7.663   6.561  18.656  0.00  0.00    +0.000 OA
ENDBRANCH  23  30
ENDBRANCH  21  24
ENDBRANCH  20  21
BRANCH  20  31
ATOM     31  C   UNL     1       2.767   4.568  20.671  0.00  0.00    +0.000 C 
BRANCH  31  32
ATOM     32  C   UNL     1       1.426   3.791  20.584  0.00  0.00    +0.000 C 
ATOM     33  C   UNL     1       1.124   3.231  19.192  0.00  0.00    +0.000 C 
ATOM     34  C   UNL     1       1.381   2.638  21.597  0.00  0.00    +0.000 C 
ENDBRANCH  31  32
ENDBRANCH  20  31
ENDBRANCH   1  20
TORSDOF 10
ENDMDL
