MODEL 1
REMARK VINA RESULT:      -7.0      0.000      0.000
REMARK  Name = 
REMARK  4 active torsions:
REMARK  status: ('A' for Active; 'I' for Inactive)
REMARK    1  A    between atoms: O_1  and  C_2
REMARK    2  A    between atoms: C_2  and  C_14
REMARK    3  A    between atoms: C_3  and  C_4
REMARK    4  A    between atoms: C_3  and  N_9
REMARK                            x       y       z     vdW  Elec       q    Type
REMARK                         _______ _______ _______ _____ _____    ______ ____
ROOT
ATOM      1  C   UNL     1       4.346   3.975  19.287  0.00  0.00    +0.000 C 
ATOM      2  C   UNL     1       4.535   5.297  19.036  0.00  0.00    +0.000 C 
ENDROOT
BRANCH   2   3
ATOM      3  C   UNL     1       5.971   5.721  18.835  0.00  0.00    +0.000 C 
ATOM      4  N   UNL     1       6.924   5.375  19.672  0.00  0.00    +0.000 NA
ATOM      5  C   UNL     1       8.145   6.081  19.187  0.00  0.00    +0.000 C 
ATOM      6  C   UNL     1       7.800   6.703  17.836  0.00  0.00    +0.000 C 
ATOM      7  N   UNL     1       6.387   6.462  17.750  0.00  0.00    +0.000 N 
ATOM      8  H   UNL     1       5.773   7.240  17.501  0.00  0.00    +0.000 HD
ENDBRANCH   2   3
BRANCH   1   9
ATOM      9  C   UNL     1       3.035   3.359  19.528  0.00  0.00    +0.000 A 
ATOM     10  C   UNL     1       2.241   2.948  18.449  0.00  0.00    +0.000 A 
ATOM     11  C   UNL     1       0.918   2.556  18.667  0.00  0.00    +0.000 A 
ATOM     12  C   UNL     1       0.403   2.529  19.963  0.00  0.00    +0.000 A 
ATOM     13  C   UNL     1       1.216   2.864  21.048  0.00  0.00    +0.000 A 
ATOM     14  C   UNL     1       2.531   3.277  20.832  0.00  0.00    +0.000 A 
ENDBRANCH   1   9
BRANCH   2  15
ATOM     15  N   UNL     1       3.549   6.307  18.906  0.00  0.00    +0.000 N 
ATOM     16  C   UNL     1       2.593   6.738  19.820  0.00  0.00    +0.000 A 
ATOM     17  N   UNL     1       1.882   7.739  19.364  0.00  0.00    +0.000 NA
ATOM     18  C   UNL     1       2.379   7.907  18.122  0.00  0.00    +0.000 A 
ATOM     19  N   UNL     1       3.337   7.056  17.761  0.00  0.00    +0.000 NA
ENDBRANCH   2  15
BRANCH   1  20
ATOM     20  O   UNL     1       5.365   3.043  19.400  0.00  0.00    +0.000 OA
ATOM     21  H   UNL     1       6.029   3.397  20.037  0.00  0.00    +0.000 HD
ENDBRANCH   1  20
TORSDOF 4
ENDMDL
MODEL 2
REMARK VINA RESULT:      -6.7      0.260      1.141
REMARK  Name = 
REMARK  4 active torsions:
REMARK  status: ('A' for Active; 'I' for Inactive)
REMARK    1  A    between atoms: O_1  and  C_2
REMARK    2  A    between atoms: C_2  and  C_14
REMARK    3  A    between atoms: C_3  and  C_4
REMARK    4  A    between atoms: C_3  and  N_9
REMARK                            x       y       z     vdW  Elec       q    Type
REMARK                         _______ _______ _______ _____ _____    ______ ____
ROOT
ATOM      1  C   UNL     1       4.200   4.200  19.218  0.00  0.00    +0.000 C 
ATOM      2  C   UNL     1       4.466   5.504  18.937  0.00  0.00    +0.000 C 
ENDROOT
BRANCH   2   3
ATOM      3  C   UNL     1       5.926   5.844  18.757  0.00  0.00    +0.000 C 
ATOM      4  N   UNL     1       6.847   5.442  19.606  0.00  0.00    +0.000 NA
ATOM      5  C   UNL     1       8.113   6.078  19.139  0.00  0.00    +0.000 C 
ATOM      6  C   UNL     1       7.822   6.720  17.785  0.00  0.00    +0.000 C 
ATOM      7  N   UNL     1       6.399   6.562  17.679  0.00  0.00    +0.000 N 
ATOM      8  H   UNL     1       5.835   7.374  17.424  0.00  0.00    +0.000 HD
ENDBRANCH   2   3
BRANCH   1   9
ATOM      9  C   UNL     1       2.853   3.662  19.447  0.00  0.00    +0.000 A 
ATOM     10  C   UNL     1       2.368   3.513  20.753  0.00  0.00    +0.000 A 
ATOM     11  C   UNL     1       1.180   2.814  20.979  0.00  0.00    +0.000 A 
ATOM     12  C   UNL     1       0.454   2.306  19.902  0.00  0.00    +0.000 A 
ATOM     13  C   UNL     1       0.895   2.520  18.595  0.00  0.00    +0.000 A 
ATOM     14  C   UNL     1       2.093   3.199  18.367  0.00  0.00    +0.000 A 
ENDBRANCH   1   9
BRANCH   2  15
ATOM     15  N   UNL     1       3.538   6.561  18.760  0.00  0.00    +0.000 N 
ATOM     16  C   UNL     1       2.541   7.020  19.614  0.00  0.00    +0.000 A 
ATOM     17  N   UNL     1       1.911   8.061  19.132  0.00  0.00    +0.000 NA
ATOM     18  C   UNL     1       2.502   8.229  17.932  0.00  0.00    +0.000 A 
ATOM     19  N   UNL     1       3.443   7.340  17.620  0.00  0.00    +0.000 NA
ENDBRANCH   2  15
BRANCH   1  20
ATOM     20  O   UNL     1       5.164   3.218  19.377  0.00  0.00    +0.000 OA
ATOM     21  H   UNL     1       4.736   2.440  19.804  0.00  0.00    +0.000 HD
ENDBRANCH   1  20
TORSDOF 4
ENDMDL
MODEL 3
REMARK VINA RESULT:      -6.6      2.675      3.645
REMARK  Name = 
REMARK  4 active torsions:
REMARK  status: ('A' for Active; 'I' for Inactive)
REMARK    1  A    between atoms: O_1  and  C_2
REMARK    2  A    between atoms: C_2  and  C_14
REMARK    3  A    between atoms: C_3  and  C_4
REMARK    4  A    between atoms: C_3  and  N_9
REMARK                            x       y       z     vdW  Elec       q    Type
REMARK                         _______ _______ _______ _____ _____    ______ ____
ROOT
ATOM      1  C   UNL     1       5.065   5.232  18.226  0.00  0.00    +0.000 C 
ATOM      2  C   UNL     1       5.963   5.605  17.276  0.00  0.00    +0.000 C 
ENDROOT
BRANCH   2   3
ATOM      3  C   UNL     1       6.946   6.673  17.696  0.00  0.00    +0.000 C 
ATOM      4  N   UNL     1       7.825   6.475  18.653  0.00  0.00    +0.000 NA
ATOM      5  C   UNL     1       8.510   7.787  18.833  0.00  0.00    +0.000 C 
ATOM      6  C   UNL     1       8.046   8.696  17.697  0.00  0.00    +0.000 C 
ATOM      7  N   UNL     1       7.016   7.906  17.084  0.00  0.00    +0.000 N 
ATOM      8  H   UNL     1       6.113   8.343  16.894  0.00  0.00    +0.000 HD
ENDBRANCH   2   3
BRANCH   1   9
ATOM      9  C   UNL     1       4.014   4.226  18.021  0.00  0.00    +0.000 A 
ATOM     10  C   UNL     1       2.701   4.628  17.741  0.00  0.00    +0.000 A 
ATOM     11  C   UNL     1       1.668   3.688  17.752  0.00  0.00    +0.000 A 
ATOM     12  C   UNL     1       1.951   2.344  17.995  0.00  0.00    +0.000 A 
ATOM     13  C   UNL     1       3.268   1.930  18.197  0.00  0.00    +0.000 A 
ATOM     14  C   UNL     1       4.300   2.869  18.209  0.00  0.00    +0.000 A 
ENDBRANCH   1   9
BRANCH   2  15
ATOM     15  N   UNL     1       6.105   5.088  15.964  0.00  0.00    +0.000 N 
ATOM     16  C   UNL     1       5.199   4.373  15.188  0.00  0.00    +0.000 A 
ATOM     17  N   UNL     1       5.665   4.107  13.994  0.00  0.00    +0.000 NA
ATOM     18  C   UNL     1       6.905   4.634  14.042  0.00  0.00    +0.000 A 
ATOM     19  N   UNL     1       7.255   5.187  15.201  0.00  0.00    +0.000 NA
ENDBRANCH   2  15
BRANCH   1  20
ATOM     20  O   UNL     1       4.986   5.785  19.494  0.00  0.00    +0.000 OA
ATOM     21  H   UNL     1       4.034   5.833  19.744  0.00  0.00    +0.000 HD
ENDBRANCH   1  20
TORSDOF 4
ENDMDL
MODEL 4
REMARK VINA RESULT:      -6.4      2.616      3.539
REMARK  Name = 
REMARK  4 active torsions:
REMARK  status: ('A' for Active; 'I' for Inactive)
REMARK    1  A    between atoms: O_1  and  C_2
REMARK    2  A    between atoms: C_2  and  C_14
REMARK    3  A    between atoms: C_3  and  C_4
REMARK    4  A    between atoms: C_3  and  N_9
REMARK                            x       y       z     vdW  Elec       q    Type
REMARK                         _______ _______ _______ _____ _____    ______ ____
ROOT
ATOM      1  C   UNL     1       5.082   5.202  18.526  0.00  0.00    +0.000 C 
ATOM      2  C   UNL     1       5.890   5.568  17.496  0.00  0.00    +0.000 C 
ENDROOT
BRANCH   2   3
ATOM      3  C   UNL     1       6.901   6.644  17.813  0.00  0.00    +0.000 C 
ATOM      4  N   UNL     1       7.834   6.479  18.725  0.00  0.00    +0.000 NA
ATOM      5  C   UNL     1       8.535   7.792  18.811  0.00  0.00    +0.000 C 
ATOM      6  C   UNL     1       8.010   8.658  17.668  0.00  0.00    +0.000 C 
ATOM      7  N   UNL     1       6.942   7.851  17.148  0.00  0.00    +0.000 N 
ATOM      8  H   UNL     1       6.031   8.286  16.994  0.00  0.00    +0.000 HD
ENDBRANCH   2   3
BRANCH   1   9
ATOM      9  C   UNL     1       4.023   4.190  18.427  0.00  0.00    +0.000 A 
ATOM     10  C   UNL     1       4.280   2.864  18.800  0.00  0.00    +0.000 A 
ATOM     11  C   UNL     1       3.345   1.867  18.514  0.00  0.00    +0.000 A 
ATOM     12  C   UNL     1       2.137   2.198  17.900  0.00  0.00    +0.000 A 
ATOM     13  C   UNL     1       1.846   3.529  17.598  0.00  0.00    +0.000 A 
ATOM     14  C   UNL     1       2.787   4.526  17.862  0.00  0.00    +0.000 A 
ENDBRANCH   1   9
BRANCH   2  15
ATOM     15  N   UNL     1       5.917   5.036  16.182  0.00  0.00    +0.000 N 
ATOM     16  C   UNL     1       6.315   3.778  15.741  0.00  0.00    +0.000 A 
ATOM     17  N   UNL     1       6.148   3.625  14.452  0.00  0.00    +0.000 NA
ATOM     18  C   UNL     1       5.674   4.830  14.075  0.00  0.00    +0.000 A 
ATOM     19  N   UNL     1       5.562   5.737  15.043  0.00  0.00    +0.000 NA
ENDBRANCH   2  15
BRANCH   1  20
ATOM     20  O   UNL     1       5.114   5.771  19.789  0.00  0.00    +0.000 OA
ATOM     21  H   UNL     1       4.439   5.314  20.343  0.00  0.00    +0.000 HD
ENDBRANCH   1  20
TORSDOF 4
ENDMDL
MODEL 5
REMARK VINA RESULT:      -6.4      1.579      5.189
REMARK  Name = 
REMARK  4 active torsions:
REMARK  status: ('A' for Active; 'I' for Inactive)
REMARK    1  A    between atoms: O_1  and  C_2
REMARK    2  A    between atoms: C_2  and  C_14
REMARK    3  A    between atoms: C_3  and  C_4
REMARK    4  A    between atoms: C_3  and  N_9
REMARK                            x       y       z     vdW  Elec       q    Type
REMARK                         _______ _______ _______ _____ _____    ______ ____
ROOT
ATOM      1  C   UNL     1       4.843   4.228  19.054  0.00  0.00    +0.000 C 
ATOM      2  C   UNL     1       3.603   4.728  19.299  0.00  0.00    +0.000 C 
ENDROOT
BRANCH   2   3
ATOM      3  C   UNL     1       2.633   3.770  19.948  0.00  0.00    +0.000 C 
ATOM      4  N   UNL     1       2.070   2.787  19.280  0.00  0.00    +0.000 NA
ATOM      5  C   UNL     1       1.111   2.163  20.237  0.00  0.00    +0.000 C 
ATOM      6  C   UNL     1       1.365   2.792  21.605  0.00  0.00    +0.000 C 
ATOM      7  N   UNL     1       2.301   3.833  21.285  0.00  0.00    +0.000 N 
ATOM      8  H   UNL     1       2.125   4.774  21.638  0.00  0.00    +0.000 HD
ENDBRANCH   2   3
BRANCH   1   9
ATOM      9  C   UNL     1       5.929   4.983  18.416  0.00  0.00    +0.000 A 
ATOM     10  C   UNL     1       6.852   5.688  19.200  0.00  0.00    +0.000 A 
ATOM     11  C   UNL     1       7.752   6.568  18.595  0.00  0.00    +0.000 A 
ATOM     12  C   UNL     1       7.762   6.710  17.208  0.00  0.00    +0.000 A 
ATOM     13  C   UNL     1       6.896   5.952  16.418  0.00  0.00    +0.000 A 
ATOM     14  C   UNL     1       5.981   5.088  17.021  0.00  0.00    +0.000 A 
ENDBRANCH   1   9
BRANCH   2  15
ATOM     15  N   UNL     1       3.133   6.042  19.052  0.00  0.00    +0.000 N 
ATOM     16  C   UNL     1       3.322   6.860  17.943  0.00  0.00    +0.000 A 
ATOM     17  N   UNL     1       2.685   7.999  18.048  0.00  0.00    +0.000 NA
ATOM     18  C   UNL     1       2.120   7.905  19.269  0.00  0.00    +0.000 A 
ATOM     19  N   UNL     1       2.387   6.791  19.946  0.00  0.00    +0.000 NA
ENDBRANCH   2  15
BRANCH   1  20
ATOM     20  O   UNL     1       5.233   2.926  19.324  0.00  0.00    +0.000 OA
ATOM     21  H   UNL     1       5.686   2.921  20.199  0.00  0.00    +0.000 HD
ENDBRANCH   1  20
TORSDOF 4
ENDMDL
MODEL 6
REMARK VINA RESULT:      -6.4      1.928      2.237
REMARK  Name = 
REMARK  4 active torsions:
REMARK  status: ('A' for Active; 'I' for Inactive)
REMARK    1  A    between atoms: O_1  and  C_2
REMARK    2  A    between atoms: C_2  and  C_14
REMARK    3  A    between atoms: C_3  and  C_4
REMARK    4  A    between atoms: C_3  and  N_9
REMARK                            x       y       z     vdW  Elec       q    Type
REMARK                         _______ _______ _______ _____ _____    ______ ____
ROOT
ATOM      1  C   UNL     1       3.843   3.301  18.023  0.00  0.00    +0.000 C 
ATOM      2  C   UNL     1       4.152   4.540  17.556  0.00  0.00    +0.000 C 
ENDROOT
BRANCH   2   3
ATOM      3  C   UNL     1       5.177   4.580  16.447  0.00  0.00    +0.000 C 
ATOM      4  N   UNL     1       4.999   3.945  15.309  0.00  0.00    +0.000 NA
ATOM      5  C   UNL     1       6.268   4.139  14.551  0.00  0.00    +0.000 C 
ATOM      6  C   UNL     1       7.106   5.153  15.326  0.00  0.00    +0.000 C 
ATOM      7  N   UNL     1       6.343   5.310  16.533  0.00  0.00    +0.000 N 
ATOM      8  H   UNL     1       6.827   5.241  17.429  0.00  0.00    +0.000 HD
ENDBRANCH   2   3
BRANCH   1   9
ATOM      9  C   UNL     1       2.888   3.040  19.107  0.00  0.00    +0.000 A 
ATOM     10  C   UNL     1       1.510   3.096  18.860  0.00  0.00    +0.000 A 
ATOM     11  C   UNL     1       0.609   3.054  19.925  0.00  0.00    +0.000 A 
ATOM     12  C   UNL     1       1.079   2.909  21.231  0.00  0.00    +0.000 A 
ATOM     13  C   UNL     1       2.446   2.776  21.473  0.00  0.00    +0.000 A 
ATOM     14  C   UNL     1       3.351   2.840  20.413  0.00  0.00    +0.000 A 
ENDBRANCH   1   9
BRANCH   2  15
ATOM     15  N   UNL     1       3.603   5.782  17.961  0.00  0.00    +0.000 N 
ATOM     16  C   UNL     1       2.927   6.116  19.130  0.00  0.00    +0.000 A 
ATOM     17  N   UNL     1       2.612   7.386  19.179  0.00  0.00    +0.000 NA
ATOM     18  C   UNL     1       3.066   7.845  17.995  0.00  0.00    +0.000 A 
ATOM     19  N   UNL     1       3.619   6.936  17.196  0.00  0.00    +0.000 NA
ENDBRANCH   2  15
BRANCH   1  20
ATOM     20  O   UNL     1       4.425   2.126  17.576  0.00  0.00    +0.000 OA
ATOM     21  H   UNL     1       4.893   1.712  18.337  0.00  0.00    +0.000 HD
ENDBRANCH   1  20
TORSDOF 4
ENDMDL
MODEL 7
REMARK VINA RESULT:      -6.3      1.990      2.322
REMARK  Name = 
REMARK  4 active torsions:
REMARK  status: ('A' for Active; 'I' for Inactive)
REMARK    1  A    between atoms: O_1  and  C_2
REMARK    2  A    between atoms: C_2  and  C_14
REMARK    3  A    between atoms: C_3  and  C_4
REMARK    4  A    between atoms: C_3  and  N_9
REMARK                            x       y       z     vdW  Elec       q    Type
REMARK                         _______ _______ _______ _____ _____    ______ ____
ROOT
ATOM      1  C   UNL     1       3.880   3.265  18.038  0.00  0.00    +0.000 C 
ATOM      2  C   UNL     1       4.219   4.499  17.581  0.00  0.00    +0.000 C 
ENDROOT
BRANCH   2   3
ATOM      3  C   UNL     1       5.252   4.523  16.479  0.00  0.00    +0.000 C 
ATOM      4  N   UNL     1       6.531   4.705  16.725  0.00  0.00    +0.000 NA
ATOM      5  C   UNL     1       7.180   4.777  15.385  0.00  0.00    +0.000 C 
ATOM      6  C   UNL     1       6.123   4.397  14.351  0.00  0.00    +0.000 C 
ATOM      7  N   UNL     1       4.935   4.320  15.153  0.00  0.00    +0.000 N 
ATOM      8  H   UNL     1       4.097   4.808  14.833  0.00  0.00    +0.000 HD
ENDBRANCH   2   3
BRANCH   1   9
ATOM      9  C   UNL     1       2.911   3.018  19.114  0.00  0.00    +0.000 A 
ATOM     10  C   UNL     1       1.537   3.105  18.856  0.00  0.00    +0.000 A 
ATOM     11  C   UNL     1       0.627   3.076  19.915  0.00  0.00    +0.000 A 
ATOM     12  C   UNL     1       1.084   2.914  21.223  0.00  0.00    +0.000 A 
ATOM     13  C   UNL     1       2.446   2.749  21.474  0.00  0.00    +0.000 A 
ATOM     14  C   UNL     1       3.360   2.799  20.421  0.00  0.00    +0.000 A 
ENDBRANCH   1   9
BRANCH   2  15
ATOM     15  N   UNL     1       3.693   5.751  17.989  0.00  0.00    +0.000 N 
ATOM     16  C   UNL     1       3.676   6.969  17.318  0.00  0.00    +0.000 A 
ATOM     17  N   UNL     1       3.050   7.901  17.991  0.00  0.00    +0.000 NA
ATOM     18  C   UNL     1       2.706   7.259  19.126  0.00  0.00    +0.000 A 
ATOM     19  N   UNL     1       3.102   5.992  19.217  0.00  0.00    +0.000 NA
ENDBRANCH   2  15
BRANCH   1  20
ATOM     20  O   UNL     1       4.439   2.079  17.588  0.00  0.00    +0.000 OA
ATOM     21  H   UNL     1       5.063   1.758  18.280  0.00  0.00    +0.000 HD
ENDBRANCH   1  20
TORSDOF 4
ENDMDL
MODEL 8
REMARK VINA RESULT:      -6.3      2.795      4.290
REMARK  Name = 
REMARK  4 active torsions:
REMARK  status: ('A' for Active; 'I' for Inactive)
REMARK    1  A    between atoms: O_1  and  C_2
REMARK    2  A    between atoms: C_2  and  C_14
REMARK    3  A    between atoms: C_3  and  C_4
REMARK    4  A    between atoms: C_3  and  N_9
REMARK                            x       y       z     vdW  Elec       q    Type
REMARK                         _______ _______ _______ _____ _____    ______ ____
ROOT
ATOM      1  C   UNL     1       4.761   4.655  16.735  0.00  0.00    +0.000 C 
ATOM      2  C   UNL     1       5.932   5.234  16.358  0.00  0.00    +0.000 C 
ENDROOT
BRANCH   2   3
ATOM      3  C   UNL     1       6.400   4.901  14.961  0.00  0.00    +0.000 C 
ATOM      4  N   UNL     1       5.756   4.051  14.192  0.00  0.00    +0.000 NA
ATOM      5  C   UNL     1       6.595   3.919  12.967  0.00  0.00    +0.000 C 
ATOM      6  C   UNL     1       7.694   4.975  13.056  0.00  0.00    +0.000 C 
ATOM      7  N   UNL     1       7.506   5.488  14.384  0.00  0.00    +0.000 N 
ATOM      8  H   UNL     1       8.319   5.567  14.997  0.00  0.00    +0.000 HD
ENDBRANCH   2   3
BRANCH   1   9
ATOM      9  C   UNL     1       4.139   4.831  18.054  0.00  0.00    +0.000 A 
ATOM     10  C   UNL     1       4.141   3.778  18.979  0.00  0.00    +0.000 A 
ATOM     11  C   UNL     1       3.375   3.872  20.143  0.00  0.00    +0.000 A 
ATOM     12  C   UNL     1       2.646   5.032  20.406  0.00  0.00    +0.000 A 
ATOM     13  C   UNL     1       2.704   6.112  19.524  0.00  0.00    +0.000 A 
ATOM     14  C   UNL     1       3.450   6.013  18.349  0.00  0.00    +0.000 A 
ENDBRANCH   1   9
BRANCH   2  15
ATOM     15  N   UNL     1       6.735   6.133  17.102  0.00  0.00    +0.000 N 
ATOM     16  C   UNL     1       7.496   5.908  18.245  0.00  0.00    +0.000 A 
ATOM     17  N   UNL     1       8.156   6.974  18.624  0.00  0.00    +0.000 NA
ATOM     18  C   UNL     1       7.763   7.895  17.720  0.00  0.00    +0.000 A 
ATOM     19  N   UNL     1       6.878   7.480  16.817  0.00  0.00    +0.000 NA
ENDBRANCH   2  15
BRANCH   1  20
ATOM     20  O   UNL     1       4.027   3.781  15.949  0.00  0.00    +0.000 OA
ATOM     21  H   UNL     1       4.165   2.870  16.300  0.00  0.00    +0.000 HD
ENDBRANCH   1  20
TORSDOF 4
ENDMDL
MODEL 9
REMARK VINA RESULT:      -6.3      2.039      2.544
REMARK  Name = 
REMARK  4 active torsions:
REMARK  status: ('A' for Active; 'I' for Inactive)
REMARK    1  A    between atoms: O_1  and  C_2
REMARK    2  A    between atoms: C_2  and  C_14
REMARK    3  A    between atoms: C_3  and  C_4
REMARK    4  A    between atoms: C_3  and  N_9
REMARK                            x       y       z     vdW  Elec       q    Type
REMARK                         _______ _______ _______ _____ _____    ______ ____
ROOT
ATOM      1  C   UNL     1       3.881   3.499  17.930  0.00  0.00    +0.000 C 
ATOM      2  C   UNL     1       4.201   4.677  17.332  0.00  0.00    +0.000 C 
ENDROOT
BRANCH   2   3
ATOM      3  C   UNL     1       5.247   4.590  16.246  0.00  0.00    +0.000 C 
ATOM      4  N   UNL     1       5.011   4.003  15.094  0.00  0.00    +0.000 NA
ATOM      5  C   UNL     1       6.312   4.031  14.366  0.00  0.00    +0.000 C 
ATOM      6  C   UNL     1       7.264   4.907  15.178  0.00  0.00    +0.000 C 
ATOM      7  N   UNL     1       6.501   5.150  16.370  0.00  0.00    +0.000 N 
ATOM      8  H   UNL     1       6.949   5.001  17.275  0.00  0.00    +0.000 HD
ENDBRANCH   2   3
BRANCH   1   9
ATOM      9  C   UNL     1       2.904   3.362  19.018  0.00  0.00    +0.000 A 
ATOM     10  C   UNL     1       3.321   3.446  20.353  0.00  0.00    +0.000 A 
ATOM     11  C   UNL     1       2.438   3.113  21.382  0.00  0.00    +0.000 A 
ATOM     12  C   UNL     1       1.127   2.742  21.082  0.00  0.00    +0.000 A 
ATOM     13  C   UNL     1       0.686   2.733  19.758  0.00  0.00    +0.000 A 
ATOM     14  C   UNL     1       1.572   3.044  18.726  0.00  0.00    +0.000 A 
ENDBRANCH   1   9
BRANCH   2  15
ATOM     15  N   UNL     1       3.646   5.957  17.582  0.00  0.00    +0.000 N 
ATOM     16  C   UNL     1       2.466   6.302  18.232  0.00  0.00    +0.000 A 
ATOM     17  N   UNL     1       2.306   7.598  18.322  0.00  0.00    +0.000 NA
ATOM     18  C   UNL     1       3.392   8.070  17.676  0.00  0.00    +0.000 A 
ATOM     19  N   UNL     1       4.206   7.151  17.163  0.00  0.00    +0.000 NA
ENDBRANCH   2  15
BRANCH   1  20
ATOM     20  O   UNL     1       4.469   2.280  17.632  0.00  0.00    +0.000 OA
ATOM     21  H   UNL     1       4.127   1.614  18.273  0.00  0.00    +0.000 HD
ENDBRANCH   1  20
TORSDOF 4
ENDMDL
