MODEL 1
REMARK VINA RESULT:      -6.5      0.000      0.000
REMARK  Name = 
REMARK  7 active torsions:
REMARK  status: ('A' for Active; 'I' for Inactive)
REMARK    1  A    between atoms: C_1  and  C_2
REMARK    2  A    between atoms: C_5  and  N_6
REMARK    3  A    between atoms: N_9  and  C_10
REMARK    4  A    between atoms: C_10  and  C_11
REMARK    5  A    between atoms: C_11  and  O_12
REMARK    6  A    between atoms: O_12  and  C_13
REMARK    7  A    between atoms: C_13  and  C_14
REMARK                            x       y       z     vdW  Elec       q    Type
REMARK                         _______ _______ _______ _____ _____    ______ ____
ROOT
ATOM      1  C   UNL     1       4.438   5.458  18.760  0.00  0.00    +0.000 C 
ENDROOT
BRANCH   1   7
ATOM      2  C   UNL     1       2.179   7.059  20.043  0.00  0.00    +0.000 C 
ATOM      3  C   UNL     1       2.358   5.588  20.164  0.00  0.00    +0.000 A 
ATOM      4  N   UNL     1       1.586   4.790  20.876  0.00  0.00    +0.000 NA
ATOM      5  C   UNL     1       2.105   3.531  20.738  0.00  0.00    +0.000 A 
ATOM      6  C   UNL     1       3.204   3.559  19.919  0.00  0.00    +0.000 A 
ATOM      7  N   UNL     1       3.372   4.872  19.549  0.00  0.00    +0.000 N 
BRANCH   6   8
ATOM      8  N   UNL     1       4.016   2.458  19.524  0.00  0.00    +0.000 N 
ATOM      9  O   UNL     1       3.802   1.988  18.400  0.00  0.00    +0.000 OA
ATOM     10  O   UNL     1       4.877   2.061  20.316  0.00  0.00    +0.000 OA
ENDBRANCH   6   8
ENDBRANCH   1   7
BRANCH   1  11
ATOM     11  C   UNL     1       5.824   5.290  19.380  0.00  0.00    +0.000 C 
BRANCH  11  12
ATOM     12  O   UNL     1       6.660   4.439  18.590  0.00  0.00    +0.000 OA
BRANCH  12  13
ATOM     13  C   UNL     1       7.375   5.155  17.582  0.00  0.00    +0.000 C 
BRANCH  13  14
ATOM     14  C   UNL     1       6.901   4.728  16.215  0.00  0.00    +0.000 A 
ATOM     15  C   UNL     1       7.529   5.220  15.063  0.00  0.00    +0.000 A 
ATOM     16  C   UNL     1       7.133   4.783  13.797  0.00  0.00    +0.000 A 
ATOM     17  C   UNL     1       6.100   3.857  13.682  0.00  0.00    +0.000 A 
ATOM     18 BR   UNL     1       5.579   3.246  11.971  0.00  0.00    +0.000 Br
ATOM     19  C   UNL     1       5.454   3.370  14.818  0.00  0.00    +0.000 A 
ATOM     20  C   UNL     1       5.853   3.808  16.084  0.00  0.00    +0.000 A 
ENDBRANCH  13  14
ENDBRANCH  12  13
ENDBRANCH  11  12
ENDBRANCH   1  11
TORSDOF 6
ENDMDL
MODEL 2
REMARK VINA RESULT:      -6.4      4.324      6.916
REMARK  Name = 
REMARK  7 active torsions:
REMARK  status: ('A' for Active; 'I' for Inactive)
REMARK    1  A    between atoms: C_1  and  C_2
REMARK    2  A    between atoms: C_5  and  N_6
REMARK    3  A    between atoms: N_9  and  C_10
REMARK    4  A    between atoms: C_10  and  C_11
REMARK    5  A    between atoms: C_11  and  O_12
REMARK    6  A    between atoms: O_12  and  C_13
REMARK    7  A    between atoms: C_13  and  C_14
REMARK                            x       y       z     vdW  Elec       q    Type
REMARK                         _______ _______ _______ _____ _____    ______ ____
ROOT
ATOM      1  C   UNL     1       4.215   5.783  17.016  0.00  0.00    +0.000 C 
ENDROOT
BRANCH   1   7
ATOM      2  C   UNL     1       1.689   4.187  17.637  0.00  0.00    +0.000 C 
ATOM      3  C   UNL     1       3.005   3.996  18.303  0.00  0.00    +0.000 A 
ATOM      4  N   UNL     1       3.240   3.138  19.277  0.00  0.00    +0.000 NA
ATOM      5  C   UNL     1       4.557   3.296  19.616  0.00  0.00    +0.000 A 
ATOM      6  C   UNL     1       5.138   4.256  18.829  0.00  0.00    +0.000 A 
ATOM      7  N   UNL     1       4.150   4.709  17.987  0.00  0.00    +0.000 N 
BRANCH   6   8
ATOM      8  N   UNL     1       6.489   4.703  18.865  0.00  0.00    +0.000 N 
ATOM      9  O   UNL     1       6.800   5.445  19.803  0.00  0.00    +0.000 OA
ATOM     10  O   UNL     1       7.251   4.313  17.974  0.00  0.00    +0.000 OA
ENDBRANCH   6   8
ENDBRANCH   1   7
BRANCH   1  11
ATOM     11  C   UNL     1       4.163   7.178  17.639  0.00  0.00    +0.000 C 
BRANCH  11  12
ATOM     12  O   UNL     1       3.036   7.330  18.506  0.00  0.00    +0.000 OA
BRANCH  12  13
ATOM     13  C   UNL     1       2.156   8.373  18.084  0.00  0.00    +0.000 C 
BRANCH  13  14
ATOM     14  C   UNL     1       1.368   8.887  19.262  0.00  0.00    +0.000 A 
ATOM     15  C   UNL     1       1.506   8.288  20.522  0.00  0.00    +0.000 A 
ATOM     16  C   UNL     1       0.824   8.797  21.629  0.00  0.00    +0.000 A 
ATOM     17  C   UNL     1      -0.007   9.904  21.474  0.00  0.00    +0.000 A 
ATOM     18 BR   UNL     1      -0.913  10.609  22.976  0.00  0.00    +0.000 Br
ATOM     19  C   UNL     1      -0.168  10.501  20.225  0.00  0.00    +0.000 A 
ATOM     20  C   UNL     1       0.517   9.991  19.119  0.00  0.00    +0.000 A 
ENDBRANCH  13  14
ENDBRANCH  12  13
ENDBRANCH  11  12
ENDBRANCH   1  11
TORSDOF 6
ENDMDL
MODEL 3
REMARK VINA RESULT:      -6.3      5.668      6.980
REMARK  Name = 
REMARK  7 active torsions:
REMARK  status: ('A' for Active; 'I' for Inactive)
REMARK    1  A    between atoms: C_1  and  C_2
REMARK    2  A    between atoms: C_5  and  N_6
REMARK    3  A    between atoms: N_9  and  C_10
REMARK    4  A    between atoms: C_10  and  C_11
REMARK    5  A    between atoms: C_11  and  O_12
REMARK    6  A    between atoms: O_12  and  C_13
REMARK    7  A    between atoms: C_13  and  C_14
REMARK                            x       y       z     vdW  Elec       q    Type
REMARK                         _______ _______ _______ _____ _____    ______ ____
ROOT
ATOM      1  C   UNL     1       6.546   7.357  17.465  0.00  0.00    +0.000 C 
ENDROOT
BRANCH   1   7
ATOM      2  C   UNL     1       3.581   7.180  18.163  0.00  0.00    +0.000 C 
ATOM      3  C   UNL     1       4.346   6.143  17.423  0.00  0.00    +0.000 A 
ATOM      4  N   UNL     1       3.852   4.993  17.007  0.00  0.00    +0.000 NA
ATOM      5  C   UNL     1       4.883   4.330  16.399  0.00  0.00    +0.000 A 
ATOM      6  C   UNL     1       6.022   5.092  16.432  0.00  0.00    +0.000 A 
ATOM      7  N   UNL     1       5.686   6.253  17.087  0.00  0.00    +0.000 N 
BRANCH   6   8
ATOM      8  N   UNL     1       7.300   4.761  15.900  0.00  0.00    +0.000 N 
ATOM      9  O   UNL     1       8.061   4.129  16.642  0.00  0.00    +0.000 OA
ATOM     10  O   UNL     1       7.554   5.113  14.743  0.00  0.00    +0.000 OA
ENDBRANCH   6   8
ENDBRANCH   1   7
BRANCH   1  11
ATOM     11  C   UNL     1       7.747   6.938  18.312  0.00  0.00    +0.000 C 
BRANCH  11  12
ATOM     12  O   UNL     1       8.577   8.054  18.644  0.00  0.00    +0.000 OA
BRANCH  12  13
ATOM     13  C   UNL     1       8.149   9.263  18.016  0.00  0.00    +0.000 C 
BRANCH  13  14
ATOM     14  C   UNL     1       8.944  10.428  18.549  0.00  0.00    +0.000 A 
ATOM     15  C   UNL     1       9.247  11.517  17.720  0.00  0.00    +0.000 A 
ATOM     16  C   UNL     1       9.931  12.625  18.224  0.00  0.00    +0.000 A 
ATOM     17  C   UNL     1      10.322  12.641  19.560  0.00  0.00    +0.000 A 
ATOM     18 BR   UNL     1      11.228  14.150  20.250  0.00  0.00    +0.000 Br
ATOM     19  C   UNL     1      10.043  11.560  20.394  0.00  0.00    +0.000 A 
ATOM     20  C   UNL     1       9.356  10.453  19.888  0.00  0.00    +0.000 A 
ENDBRANCH  13  14
ENDBRANCH  12  13
ENDBRANCH  11  12
ENDBRANCH   1  11
TORSDOF 6
ENDMDL
MODEL 4
REMARK VINA RESULT:      -6.3      5.776      6.944
REMARK  Name = 
REMARK  7 active torsions:
REMARK  status: ('A' for Active; 'I' for Inactive)
REMARK    1  A    between atoms: C_1  and  C_2
REMARK    2  A    between atoms: C_5  and  N_6
REMARK    3  A    between atoms: N_9  and  C_10
REMARK    4  A    between atoms: C_10  and  C_11
REMARK    5  A    between atoms: C_11  and  O_12
REMARK    6  A    between atoms: O_12  and  C_13
REMARK    7  A    between atoms: C_13  and  C_14
REMARK                            x       y       z     vdW  Elec       q    Type
REMARK                         _______ _______ _______ _____ _____    ______ ____
ROOT
ATOM      1  C   UNL     1       6.224   7.470  16.976  0.00  0.00    +0.000 C 
ENDROOT
BRANCH   1   7
ATOM      2  C   UNL     1       3.346   7.211  17.958  0.00  0.00    +0.000 C 
ATOM      3  C   UNL     1       4.245   6.071  17.638  0.00  0.00    +0.000 A 
ATOM      4  N   UNL     1       3.927   4.798  17.776  0.00  0.00    +0.000 NA
ATOM      5  C   UNL     1       5.031   4.084  17.397  0.00  0.00    +0.000 A 
ATOM      6  C   UNL     1       6.035   4.933  17.010  0.00  0.00    +0.000 A 
ATOM      7  N   UNL     1       5.539   6.206  17.163  0.00  0.00    +0.000 N 
BRANCH   6   8
ATOM      8  N   UNL     1       7.333   4.582  16.544  0.00  0.00    +0.000 N 
ATOM      9  O   UNL     1       7.540   4.714  15.332  0.00  0.00    +0.000 OA
ATOM     10  O   UNL     1       8.159   4.186  17.374  0.00  0.00    +0.000 OA
ENDBRANCH   6   8
ENDBRANCH   1   7
BRANCH   1  11
ATOM     11  C   UNL     1       7.489   7.614  17.821  0.00  0.00    +0.000 C 
BRANCH  11  12
ATOM     12  O   UNL     1       8.077   8.910  17.680  0.00  0.00    +0.000 OA
BRANCH  12  13
ATOM     13  C   UNL     1       8.814   9.307  18.837  0.00  0.00    +0.000 C 
BRANCH  13  14
ATOM     14  C   UNL     1       9.330  10.713  18.659  0.00  0.00    +0.000 A 
ATOM     15  C   UNL     1       8.651  11.616  17.828  0.00  0.00    +0.000 A 
ATOM     16  C   UNL     1       9.090  12.936  17.707  0.00  0.00    +0.000 A 
ATOM     17  C   UNL     1      10.216  13.354  18.412  0.00  0.00    +0.000 A 
ATOM     18 BR   UNL     1      10.797  15.146  18.267  0.00  0.00    +0.000 Br
ATOM     19  C   UNL     1      10.911  12.464  19.230  0.00  0.00    +0.000 A 
ATOM     20  C   UNL     1      10.469  11.144  19.351  0.00  0.00    +0.000 A 
ENDBRANCH  13  14
ENDBRANCH  12  13
ENDBRANCH  11  12
ENDBRANCH   1  11
TORSDOF 6
ENDMDL
MODEL 5
REMARK VINA RESULT:      -6.3      4.517      7.433
REMARK  Name = 
REMARK  7 active torsions:
REMARK  status: ('A' for Active; 'I' for Inactive)
REMARK    1  A    between atoms: C_1  and  C_2
REMARK    2  A    between atoms: C_5  and  N_6
REMARK    3  A    between atoms: N_9  and  C_10
REMARK    4  A    between atoms: C_10  and  C_11
REMARK    5  A    between atoms: C_11  and  O_12
REMARK    6  A    between atoms: O_12  and  C_13
REMARK    7  A    between atoms: C_13  and  C_14
REMARK                            x       y       z     vdW  Elec       q    Type
REMARK                         _______ _______ _______ _____ _____    ______ ____
ROOT
ATOM      1  C   UNL     1       3.933   5.359  19.271  0.00  0.00    +0.000 C 
ENDROOT
BRANCH   1   7
ATOM      2  C   UNL     1       4.915   3.723  16.890  0.00  0.00    +0.000 C 
ATOM      3  C   UNL     1       3.934   3.252  17.903  0.00  0.00    +0.000 A 
ATOM      4  N   UNL     1       3.330   2.079  17.880  0.00  0.00    +0.000 NA
ATOM      5  C   UNL     1       2.500   2.055  18.968  0.00  0.00    +0.000 A 
ATOM      6  C   UNL     1       2.607   3.226  19.672  0.00  0.00    +0.000 A 
ATOM      7  N   UNL     1       3.522   3.997  18.995  0.00  0.00    +0.000 N 
BRANCH   6   8
ATOM      8  N   UNL     1       1.916   3.585  20.864  0.00  0.00    +0.000 N 
ATOM      9  O   UNL     1       2.327   3.079  21.915  0.00  0.00    +0.000 OA
ATOM     10  O   UNL     1       0.972   4.377  20.769  0.00  0.00    +0.000 OA
ENDBRANCH   6   8
ENDBRANCH   1   7
BRANCH   1  11
ATOM     11  C   UNL     1       3.060   6.414  18.590  0.00  0.00    +0.000 C 
BRANCH  11  12
ATOM     12  O   UNL     1       2.416   7.264  19.543  0.00  0.00    +0.000 OA
BRANCH  12  13
ATOM     13  C   UNL     1       1.889   8.452  18.950  0.00  0.00    +0.000 C 
BRANCH  13  14
ATOM     14  C   UNL     1       1.009   9.173  19.940  0.00  0.00    +0.000 A 
ATOM     15  C   UNL     1       0.860   8.680  21.244  0.00  0.00    +0.000 A 
ATOM     16  C   UNL     1       0.094   9.375  22.182  0.00  0.00    +0.000 A 
ATOM     17  C   UNL     1      -0.533  10.563  21.813  0.00  0.00    +0.000 A 
ATOM     18 BR   UNL     1      -1.551  11.518  23.087  0.00  0.00    +0.000 Br
ATOM     19  C   UNL     1      -0.408  11.057  20.515  0.00  0.00    +0.000 A 
ATOM     20  C   UNL     1       0.361  10.361  19.579  0.00  0.00    +0.000 A 
ENDBRANCH  13  14
ENDBRANCH  12  13
ENDBRANCH  11  12
ENDBRANCH   1  11
TORSDOF 6
ENDMDL
MODEL 6
REMARK VINA RESULT:      -6.2      4.506      7.439
REMARK  Name = 
REMARK  7 active torsions:
REMARK  status: ('A' for Active; 'I' for Inactive)
REMARK    1  A    between atoms: C_1  and  C_2
REMARK    2  A    between atoms: C_5  and  N_6
REMARK    3  A    between atoms: N_9  and  C_10
REMARK    4  A    between atoms: C_10  and  C_11
REMARK    5  A    between atoms: C_11  and  O_12
REMARK    6  A    between atoms: O_12  and  C_13
REMARK    7  A    between atoms: C_13  and  C_14
REMARK                            x       y       z     vdW  Elec       q    Type
REMARK                         _______ _______ _______ _____ _____    ______ ____
ROOT
ATOM      1  C   UNL     1       3.601   5.651  19.113  0.00  0.00    +0.000 C 
ENDROOT
BRANCH   1   7
ATOM      2  C   UNL     1       4.896   4.013  16.888  0.00  0.00    +0.000 C 
ATOM      3  C   UNL     1       3.973   3.471  17.920  0.00  0.00    +0.000 A 
ATOM      4  N   UNL     1       3.562   2.219  17.982  0.00  0.00    +0.000 NA
ATOM      5  C   UNL     1       2.715   2.147  19.055  0.00  0.00    +0.000 A 
ATOM      6  C   UNL     1       2.616   3.371  19.664  0.00  0.00    +0.000 A 
ATOM      7  N   UNL     1       3.417   4.224  18.942  0.00  0.00    +0.000 N 
BRANCH   6   8
ATOM      8  N   UNL     1       1.843   3.706  20.812  0.00  0.00    +0.000 N 
ATOM      9  O   UNL     1       0.765   4.274  20.606  0.00  0.00    +0.000 OA
ATOM     10  O   UNL     1       2.292   3.398  21.921  0.00  0.00    +0.000 OA
ENDBRANCH   6   8
ENDBRANCH   1   7
BRANCH   1  11
ATOM     11  C   UNL     1       2.579   6.497  18.353  0.00  0.00    +0.000 C 
BRANCH  11  12
ATOM     12  O   UNL     1       2.282   7.715  19.041  0.00  0.00    +0.000 OA
BRANCH  12  13
ATOM     13  C   UNL     1       1.899   7.498  20.400  0.00  0.00    +0.000 C 
BRANCH  13  14
ATOM     14  C   UNL     1       1.087   8.667  20.897  0.00  0.00    +0.000 A 
ATOM     15  C   UNL     1       0.566   9.603  19.993  0.00  0.00    +0.000 A 
ATOM     16  C   UNL     1      -0.236  10.654  20.442  0.00  0.00    +0.000 A 
ATOM     17  C   UNL     1      -0.512  10.775  21.801  0.00  0.00    +0.000 A 
ATOM     18 BR   UNL     1      -1.618  12.183  22.408  0.00  0.00    +0.000 Br
ATOM     19  C   UNL     1       0.011   9.863  22.716  0.00  0.00    +0.000 A 
ATOM     20  C   UNL     1       0.813   8.810  22.263  0.00  0.00    +0.000 A 
ENDBRANCH  13  14
ENDBRANCH  12  13
ENDBRANCH  11  12
ENDBRANCH   1  11
TORSDOF 6
ENDMDL
MODEL 7
REMARK VINA RESULT:      -6.2      4.106      5.869
REMARK  Name = 
REMARK  7 active torsions:
REMARK  status: ('A' for Active; 'I' for Inactive)
REMARK    1  A    between atoms: C_1  and  C_2
REMARK    2  A    between atoms: C_5  and  N_6
REMARK    3  A    between atoms: N_9  and  C_10
REMARK    4  A    between atoms: C_10  and  C_11
REMARK    5  A    between atoms: C_11  and  O_12
REMARK    6  A    between atoms: O_12  and  C_13
REMARK    7  A    between atoms: C_13  and  C_14
REMARK                            x       y       z     vdW  Elec       q    Type
REMARK                         _______ _______ _______ _____ _____    ______ ____
ROOT
ATOM      1  C   UNL     1       4.503   3.565  19.189  0.00  0.00    +0.000 C 
ENDROOT
BRANCH   1   7
ATOM      2  C   UNL     1       2.894   3.252  16.614  0.00  0.00    +0.000 C 
ATOM      3  C   UNL     1       2.378   2.979  17.982  0.00  0.00    +0.000 A 
ATOM      4  N   UNL     1       1.144   2.605  18.262  0.00  0.00    +0.000 NA
ATOM      5  C   UNL     1       1.081   2.485  19.624  0.00  0.00    +0.000 A 
ATOM      6  C   UNL     1       2.298   2.778  20.183  0.00  0.00    +0.000 A 
ATOM      7  N   UNL     1       3.132   3.097  19.138  0.00  0.00    +0.000 N 
BRANCH   6   8
ATOM      8  N   UNL     1       2.641   2.761  21.564  0.00  0.00    +0.000 N 
ATOM      9  O   UNL     1       3.401   1.859  21.934  0.00  0.00    +0.000 OA
ATOM     10  O   UNL     1       2.171   3.646  22.288  0.00  0.00    +0.000 OA
ENDBRANCH   6   8
ENDBRANCH   1   7
BRANCH   1  11
ATOM     11  C   UNL     1       4.635   5.040  19.566  0.00  0.00    +0.000 C 
BRANCH  11  12
ATOM     12  O   UNL     1       3.370   5.707  19.546  0.00  0.00    +0.000 OA
BRANCH  12  13
ATOM     13  C   UNL     1       3.222   6.570  18.417  0.00  0.00    +0.000 C 
BRANCH  13  14
ATOM     14  C   UNL     1       2.337   7.737  18.775  0.00  0.00    +0.000 A 
ATOM     15  C   UNL     1       1.953   8.661  17.793  0.00  0.00    +0.000 A 
ATOM     16  C   UNL     1       1.086   9.709  18.105  0.00  0.00    +0.000 A 
ATOM     17  C   UNL     1       0.607   9.841  19.407  0.00  0.00    +0.000 A 
ATOM     18 BR   UNL     1      -0.586  11.245  19.826  0.00  0.00    +0.000 Br
ATOM     19  C   UNL     1       0.993   8.940  20.398  0.00  0.00    +0.000 A 
ATOM     20  C   UNL     1       1.859   7.890  20.083  0.00  0.00    +0.000 A 
ENDBRANCH  13  14
ENDBRANCH  12  13
ENDBRANCH  11  12
ENDBRANCH   1  11
TORSDOF 6
ENDMDL
MODEL 8
REMARK VINA RESULT:      -6.2      1.570      1.764
REMARK  Name = 
REMARK  7 active torsions:
REMARK  status: ('A' for Active; 'I' for Inactive)
REMARK    1  A    between atoms: C_1  and  C_2
REMARK    2  A    between atoms: C_5  and  N_6
REMARK    3  A    between atoms: N_9  and  C_10
REMARK    4  A    between atoms: C_10  and  C_11
REMARK    5  A    between atoms: C_11  and  O_12
REMARK    6  A    between atoms: O_12  and  C_13
REMARK    7  A    between atoms: C_13  and  C_14
REMARK                            x       y       z     vdW  Elec       q    Type
REMARK                         _______ _______ _______ _____ _____    ______ ____
ROOT
ATOM      1  C   UNL     1       3.690   5.151  19.792  0.00  0.00    +0.000 C 
ENDROOT
BRANCH   1   7
ATOM      2  C   UNL     1       1.681   5.294  17.499  0.00  0.00    +0.000 C 
ATOM      3  C   UNL     1       1.960   4.083  18.315  0.00  0.00    +0.000 A 
ATOM      4  N   UNL     1       1.345   2.924  18.180  0.00  0.00    +0.000 NA
ATOM      5  C   UNL     1       1.878   2.095  19.129  0.00  0.00    +0.000 A 
ATOM      6  C   UNL     1       2.842   2.754  19.848  0.00  0.00    +0.000 A 
ATOM      7  N   UNL     1       2.898   4.027  19.333  0.00  0.00    +0.000 N 
BRANCH   6   8
ATOM      8  N   UNL     1       3.630   2.237  20.914  0.00  0.00    +0.000 N 
ATOM      9  O   UNL     1       3.079   2.147  22.017  0.00  0.00    +0.000 OA
ATOM     10  O   UNL     1       4.795   1.906  20.665  0.00  0.00    +0.000 OA
ENDBRANCH   6   8
ENDBRANCH   1   7
BRANCH   1  11
ATOM     11  C   UNL     1       5.108   5.177  19.221  0.00  0.00    +0.000 C 
BRANCH  11  12
ATOM     12  O   UNL     1       5.258   6.187  18.220  0.00  0.00    +0.000 OA
BRANCH  12  13
ATOM     13  C   UNL     1       6.512   6.105  17.541  0.00  0.00    +0.000 C 
BRANCH  13  14
ATOM     14  C   UNL     1       6.330   5.430  16.206  0.00  0.00    +0.000 A 
ATOM     15  C   UNL     1       7.424   5.258  15.345  0.00  0.00    +0.000 A 
ATOM     16  C   UNL     1       7.273   4.581  14.133  0.00  0.00    +0.000 A 
ATOM     17  C   UNL     1       6.023   4.081  13.776  0.00  0.00    +0.000 A 
ATOM     18 BR   UNL     1       5.823   3.143  12.147  0.00  0.00    +0.000 Br
ATOM     19  C   UNL     1       4.923   4.258  14.613  0.00  0.00    +0.000 A 
ATOM     20  C   UNL     1       5.076   4.935  15.826  0.00  0.00    +0.000 A 
ENDBRANCH  13  14
ENDBRANCH  12  13
ENDBRANCH  11  12
ENDBRANCH   1  11
TORSDOF 6
ENDMDL
MODEL 9
REMARK VINA RESULT:      -6.1      5.379      6.865
REMARK  Name = 
REMARK  7 active torsions:
REMARK  status: ('A' for Active; 'I' for Inactive)
REMARK    1  A    between atoms: C_1  and  C_2
REMARK    2  A    between atoms: C_5  and  N_6
REMARK    3  A    between atoms: N_9  and  C_10
REMARK    4  A    between atoms: C_10  and  C_11
REMARK    5  A    between atoms: C_11  and  O_12
REMARK    6  A    between atoms: O_12  and  C_13
REMARK    7  A    between atoms: C_13  and  C_14
REMARK                            x       y       z     vdW  Elec       q    Type
REMARK                         _______ _______ _______ _____ _____    ______ ____
ROOT
ATOM      1  C   UNL     1       6.506   6.901  17.333  0.00  0.00    +0.000 C 
ENDROOT
BRANCH   1   7
ATOM      2  C   UNL     1       7.131   4.879  15.134  0.00  0.00    +0.000 C 
ATOM      3  C   UNL     1       5.932   4.842  16.012  0.00  0.00    +0.000 A 
ATOM      4  N   UNL     1       4.962   3.952  15.928  0.00  0.00    +0.000 NA
ATOM      5  C   UNL     1       4.051   4.285  16.893  0.00  0.00    +0.000 A 
ATOM      6  C   UNL     1       4.477   5.389  17.586  0.00  0.00    +0.000 A 
ATOM      7  N   UNL     1       5.679   5.751  17.027  0.00  0.00    +0.000 N 
BRANCH   6   8
ATOM      8  N   UNL     1       3.817   6.038  18.668  0.00  0.00    +0.000 N 
ATOM      9  O   UNL     1       3.980   5.547  19.790  0.00  0.00    +0.000 OA
ATOM     10  O   UNL     1       3.145   7.044  18.414  0.00  0.00    +0.000 OA
ENDBRANCH   6   8
ENDBRANCH   1   7
BRANCH   1  11
ATOM     11  C   UNL     1       7.632   6.602  18.323  0.00  0.00    +0.000 C 
BRANCH  11  12
ATOM     12  O   UNL     1       8.438   7.756  18.574  0.00  0.00    +0.000 OA
BRANCH  12  13
ATOM     13  C   UNL     1       8.007   8.899  17.834  0.00  0.00    +0.000 C 
BRANCH  13  14
ATOM     14  C   UNL     1       8.655  10.143  18.386  0.00  0.00    +0.000 A 
ATOM     15  C   UNL     1       9.347  10.099  19.604  0.00  0.00    +0.000 A 
ATOM     16  C   UNL     1       9.999  11.234  20.091  0.00  0.00    +0.000 A 
ATOM     17  C   UNL     1       9.951  12.420  19.363  0.00  0.00    +0.000 A 
ATOM     18 BR   UNL     1      10.853  13.950  20.009  0.00  0.00    +0.000 Br
ATOM     19  C   UNL     1       9.253  12.485  18.158  0.00  0.00    +0.000 A 
ATOM     20  C   UNL     1       8.603  11.347  17.672  0.00  0.00    +0.000 A 
ENDBRANCH  13  14
ENDBRANCH  12  13
ENDBRANCH  11  12
ENDBRANCH   1  11
TORSDOF 6
ENDMDL
