MODEL 1
REMARK VINA RESULT:      -7.9      0.000      0.000
REMARK  Name = 
REMARK  7 active torsions:
REMARK  status: ('A' for Active; 'I' for Inactive)
REMARK    1  A    between atoms: C_1  and  C_2
REMARK    2  A    between atoms: C_2  and  C_3
REMARK    3  A    between atoms: C_3  and  S_4
REMARK    4  A    between atoms: C_3  and  C_13
REMARK    5  A    between atoms: S_4  and  C_5
REMARK    6  A    between atoms: C_10  and  O_11
REMARK    7  A    between atoms: C_18  and  C_19
REMARK                            x       y       z     vdW  Elec       q    Type
REMARK                         _______ _______ _______ _____ _____    ______ ____
ROOT
ATOM      1  C   UNL     1       2.973   5.109  20.154  0.00  0.00    +0.000 C 
ENDROOT
BRANCH   1   2
ATOM      2  C   UNL     1       2.511   6.547  19.875  0.00  0.00    +0.000 C 
ATOM      3  O   UNL     1       2.733   7.039  18.764  0.00  0.00    +0.000 OA
ATOM      4  N   UNL     1       1.801   7.181  20.871  0.00  0.00    +0.000 N 
ATOM      5  C   UNL     1       1.271   8.452  20.722  0.00  0.00    +0.000 A 
ATOM      6  C   UNL     1       0.879   9.291  21.794  0.00  0.00    +0.000 A 
ATOM      7  C   UNL     1       0.473  10.457  21.191  0.00  0.00    +0.000 A 
ATOM      8  C   UNL     1       0.005  11.770  21.662  0.00  0.00    +0.000 C 
ATOM      9  O   UNL     1       0.561  10.313  19.845  0.00  0.00    +0.000 OA
ATOM     10  N   UNL     1       1.049   9.062  19.551  0.00  0.00    +0.000 NA
ATOM     11  H   UNL     1       1.907   6.842  21.821  0.00  0.00    +0.000 HD
ENDBRANCH   1   2
BRANCH   1  13
ATOM     12  C   UNL     1       0.943   3.497  19.990  0.00  0.00    +0.000 C 
ATOM     13  C   UNL     1       1.845   4.341  20.876  0.00  0.00    +0.000 C 
ENDBRANCH   1  13
BRANCH   1  14
ATOM     14  S   UNL     1       3.711   4.227  18.732  0.00  0.00    +0.000 S 
BRANCH  14  15
ATOM     15  C   UNL     1       5.276   5.041  18.578  0.00  0.00    +0.000 A 
ATOM     16  N   UNL     1       5.672   5.420  17.353  0.00  0.00    +0.000 NA
ATOM     17  C   UNL     1       6.934   5.854  17.240  0.00  0.00    +0.000 A 
ATOM     18  N   UNL     1       7.390   6.148  15.957  0.00  0.00    +0.000 N 
ATOM     19  C   UNL     1       7.796   5.915  18.308  0.00  0.00    +0.000 A 
ATOM     20  C   UNL     1       7.278   5.512  19.512  0.00  0.00    +0.000 A 
ATOM     21  N   UNL     1       6.031   5.063  19.683  0.00  0.00    +0.000 NA
ATOM     22  H   UNL     1       6.605   6.110  15.312  0.00  0.00    +0.000 HD
ATOM     23  H   UNL     1       7.906   7.018  15.890  0.00  0.00    +0.000 HD
BRANCH  20  24
ATOM     24  O   UNL     1       8.039   5.508  20.646  0.00  0.00    +0.000 OA
ATOM     25  H   UNL     1       8.793   4.916  20.508  0.00  0.00    +0.000 HD
ENDBRANCH  20  24
ENDBRANCH  14  15
ENDBRANCH   1  14
TORSDOF 5
ENDMDL
MODEL 2
REMARK VINA RESULT:      -7.8      2.352      3.078
REMARK  Name = 
REMARK  7 active torsions:
REMARK  status: ('A' for Active; 'I' for Inactive)
REMARK    1  A    between atoms: C_1  and  C_2
REMARK    2  A    between atoms: C_2  and  C_3
REMARK    3  A    between atoms: C_3  and  S_4
REMARK    4  A    between atoms: C_3  and  C_13
REMARK    5  A    between atoms: S_4  and  C_5
REMARK    6  A    between atoms: C_10  and  O_11
REMARK    7  A    between atoms: C_18  and  C_19
REMARK                            x       y       z     vdW  Elec       q    Type
REMARK                         _______ _______ _______ _____ _____    ______ ____
ROOT
ATOM      1  C   UNL     1       4.216   3.851  17.972  0.00  0.00    +0.000 C 
ENDROOT
BRANCH   1   2
ATOM      2  C   UNL     1       3.340   4.949  18.595  0.00  0.00    +0.000 C 
ATOM      3  O   UNL     1       2.733   4.703  19.643  0.00  0.00    +0.000 OA
ATOM      4  N   UNL     1       3.345   6.180  17.977  0.00  0.00    +0.000 N 
ATOM      5  C   UNL     1       2.653   7.272  18.475  0.00  0.00    +0.000 A 
ATOM      6  C   UNL     1       2.309   8.419  17.718  0.00  0.00    +0.000 A 
ATOM      7  C   UNL     1       1.590   9.204  18.587  0.00  0.00    +0.000 A 
ATOM      8  C   UNL     1       0.873  10.485  18.489  0.00  0.00    +0.000 C 
ATOM      9  O   UNL     1       1.550   8.599  19.800  0.00  0.00    +0.000 OA
ATOM     10  N   UNL     1       2.219   7.400  19.734  0.00  0.00    +0.000 NA
ATOM     11  H   UNL     1       3.619   6.223  17.002  0.00  0.00    +0.000 HD
ENDBRANCH   1   2
BRANCH   1  13
ATOM     12  C   UNL     1       3.688   1.388  18.604  0.00  0.00    +0.000 C 
ATOM     13  C   UNL     1       3.360   2.589  17.732  0.00  0.00    +0.000 C 
ENDBRANCH   1  13
BRANCH   1  14
ATOM     14  S   UNL     1       5.234   4.369  16.545  0.00  0.00    +0.000 S 
BRANCH  14  15
ATOM     15  C   UNL     1       6.488   5.339  17.332  0.00  0.00    +0.000 A 
ATOM     16  N   UNL     1       7.054   4.853  18.448  0.00  0.00    +0.000 NA
ATOM     17  C   UNL     1       7.854   5.687  19.126  0.00  0.00    +0.000 A 
ATOM     18  N   UNL     1       8.362   5.230  20.340  0.00  0.00    +0.000 N 
ATOM     19  C   UNL     1       8.094   6.978  18.721  0.00  0.00    +0.000 A 
ATOM     20  C   UNL     1       7.470   7.361  17.562  0.00  0.00    +0.000 A 
ATOM     21  N   UNL     1       6.657   6.576  16.848  0.00  0.00    +0.000 NA
ATOM     22  H   UNL     1       8.136   4.244  20.442  0.00  0.00    +0.000 HD
ATOM     23  H   UNL     1       9.349   5.418  20.474  0.00  0.00    +0.000 HD
BRANCH  20  24
ATOM     24  O   UNL     1       7.613   8.624  17.063  0.00  0.00    +0.000 OA
ATOM     25  H   UNL     1       6.747   9.058  17.074  0.00  0.00    +0.000 HD
ENDBRANCH  20  24
ENDBRANCH  14  15
ENDBRANCH   1  14
TORSDOF 5
ENDMDL
MODEL 3
REMARK VINA RESULT:      -7.8      3.837      5.853
REMARK  Name = 
REMARK  7 active torsions:
REMARK  status: ('A' for Active; 'I' for Inactive)
REMARK    1  A    between atoms: C_1  and  C_2
REMARK    2  A    between atoms: C_2  and  C_3
REMARK    3  A    between atoms: C_3  and  S_4
REMARK    4  A    between atoms: C_3  and  C_13
REMARK    5  A    between atoms: S_4  and  C_5
REMARK    6  A    between atoms: C_10  and  O_11
REMARK    7  A    between atoms: C_18  and  C_19
REMARK                            x       y       z     vdW  Elec       q    Type
REMARK                         _______ _______ _______ _____ _____    ______ ____
ROOT
ATOM      1  C   UNL     1       6.061   6.023  16.845  0.00  0.00    +0.000 C 
ENDROOT
BRANCH   1   2
ATOM      2  C   UNL     1       4.812   5.890  17.729  0.00  0.00    +0.000 C 
ATOM      3  O   UNL     1       4.044   6.853  17.824  0.00  0.00    +0.000 OA
ATOM      4  N   UNL     1       4.584   4.662  18.309  0.00  0.00    +0.000 N 
ATOM      5  C   UNL     1       3.460   4.390  19.073  0.00  0.00    +0.000 A 
ATOM      6  C   UNL     1       3.351   3.314  19.987  0.00  0.00    +0.000 A 
ATOM      7  C   UNL     1       2.107   3.465  20.553  0.00  0.00    +0.000 A 
ATOM      8  C   UNL     1       1.346   2.774  21.605  0.00  0.00    +0.000 C 
ATOM      9  O   UNL     1       1.487   4.526  19.979  0.00  0.00    +0.000 OA
ATOM     10  N   UNL     1       2.325   5.098  19.052  0.00  0.00    +0.000 NA
ATOM     11  H   UNL     1       5.372   4.035  18.424  0.00  0.00    +0.000 HD
ENDBRANCH   1   2
BRANCH   1  13
ATOM     12  C   UNL     1       7.891   6.636  18.583  0.00  0.00    +0.000 C 
ATOM     13  C   UNL     1       6.998   7.095  17.442  0.00  0.00    +0.000 C 
ENDBRANCH   1  13
BRANCH   1  14
ATOM     14  S   UNL     1       6.882   4.453  16.397  0.00  0.00    +0.000 S 
BRANCH  14  15
ATOM     15  C   UNL     1       6.882   4.540  14.628  0.00  0.00    +0.000 A 
ATOM     16  N   UNL     1       6.239   3.577  13.949  0.00  0.00    +0.000 NA
ATOM     17  C   UNL     1       6.417   3.559  12.622  0.00  0.00    +0.000 A 
ATOM     18  N   UNL     1       5.841   2.503  11.920  0.00  0.00    +0.000 N 
ATOM     19  C   UNL     1       7.215   4.467  11.968  0.00  0.00    +0.000 A 
ATOM     20  C   UNL     1       7.813   5.410  12.763  0.00  0.00    +0.000 A 
ATOM     21  N   UNL     1       7.678   5.473  14.092  0.00  0.00    +0.000 NA
ATOM     22  H   UNL     1       5.242   1.976  12.550  0.00  0.00    +0.000 HD
ATOM     23  H   UNL     1       5.363   2.781  11.070  0.00  0.00    +0.000 HD
BRANCH  20  24
ATOM     24  O   UNL     1       8.645   6.358  12.237  0.00  0.00    +0.000 OA
ATOM     25  H   UNL     1       9.542   6.195  12.565  0.00  0.00    +0.000 HD
ENDBRANCH  20  24
ENDBRANCH  14  15
ENDBRANCH   1  14
TORSDOF 5
ENDMDL
MODEL 4
REMARK VINA RESULT:      -7.7      1.754      1.977
REMARK  Name = 
REMARK  7 active torsions:
REMARK  status: ('A' for Active; 'I' for Inactive)
REMARK    1  A    between atoms: C_1  and  C_2
REMARK    2  A    between atoms: C_2  and  C_3
REMARK    3  A    between atoms: C_3  and  S_4
REMARK    4  A    between atoms: C_3  and  C_13
REMARK    5  A    between atoms: S_4  and  C_5
REMARK    6  A    between atoms: C_10  and  O_11
REMARK    7  A    between atoms: C_18  and  C_19
REMARK                            x       y       z     vdW  Elec       q    Type
REMARK                         _______ _______ _______ _____ _____    ______ ____
ROOT
ATOM      1  C   UNL     1       3.545   3.849  19.376  0.00  0.00    +0.000 C 
ENDROOT
BRANCH   1   2
ATOM      2  C   UNL     1       2.768   5.127  19.726  0.00  0.00    +0.000 C 
ATOM      3  O   UNL     1       2.150   5.174  20.795  0.00  0.00    +0.000 OA
ATOM      4  N   UNL     1       2.873   6.184  18.849  0.00  0.00    +0.000 N 
ATOM      5  C   UNL     1       2.278   7.413  19.081  0.00  0.00    +0.000 A 
ATOM      6  C   UNL     1       2.027   8.386  18.082  0.00  0.00    +0.000 A 
ATOM      7  C   UNL     1       1.382   9.403  18.744  0.00  0.00    +0.000 A 
ATOM      8  C   UNL     1       0.774  10.685  18.353  0.00  0.00    +0.000 C 
ATOM      9  O   UNL     1       1.300   9.091  20.062  0.00  0.00    +0.000 OA
ATOM     10  N   UNL     1       1.865   7.856  20.274  0.00  0.00    +0.000 NA
ATOM     11  H   UNL     1       3.143   5.983  17.892  0.00  0.00    +0.000 HD
ENDBRANCH   1   2
BRANCH   1  13
ATOM     12  C   UNL     1       1.348   2.711  18.585  0.00  0.00    +0.000 C 
ATOM     13  C   UNL     1       2.593   2.635  19.453  0.00  0.00    +0.000 C 
ENDBRANCH   1  13
BRANCH   1  14
ATOM     14  S   UNL     1       4.558   3.931  17.856  0.00  0.00    +0.000 S 
BRANCH  14  15
ATOM     15  C   UNL     1       5.825   5.073  18.332  0.00  0.00    +0.000 A 
ATOM     16  N   UNL     1       6.115   6.079  17.492  0.00  0.00    +0.000 NA
ATOM     17  C   UNL     1       7.201   6.807  17.783  0.00  0.00    +0.000 A 
ATOM     18  N   UNL     1       7.573   7.785  16.864  0.00  0.00    +0.000 N 
ATOM     19  C   UNL     1       7.992   6.554  18.878  0.00  0.00    +0.000 A 
ATOM     20  C   UNL     1       7.593   5.508  19.669  0.00  0.00    +0.000 A 
ATOM     21  N   UNL     1       6.524   4.743  19.424  0.00  0.00    +0.000 NA
ATOM     22  H   UNL     1       6.843   7.872  16.161  0.00  0.00    +0.000 HD
ATOM     23  H   UNL     1       7.819   8.675  17.281  0.00  0.00    +0.000 HD
BRANCH  20  24
ATOM     24  O   UNL     1       8.305   5.144  20.776  0.00  0.00    +0.000 OA
ATOM     25  H   UNL     1       7.888   5.543  21.554  0.00  0.00    +0.000 HD
ENDBRANCH  20  24
ENDBRANCH  14  15
ENDBRANCH   1  14
TORSDOF 5
ENDMDL
MODEL 5
REMARK VINA RESULT:      -7.7      3.594      7.352
REMARK  Name = 
REMARK  7 active torsions:
REMARK  status: ('A' for Active; 'I' for Inactive)
REMARK    1  A    between atoms: C_1  and  C_2
REMARK    2  A    between atoms: C_2  and  C_3
REMARK    3  A    between atoms: C_3  and  S_4
REMARK    4  A    between atoms: C_3  and  C_13
REMARK    5  A    between atoms: S_4  and  C_5
REMARK    6  A    between atoms: C_10  and  O_11
REMARK    7  A    between atoms: C_18  and  C_19
REMARK                            x       y       z     vdW  Elec       q    Type
REMARK                         _______ _______ _______ _____ _____    ______ ____
ROOT
ATOM      1  C   UNL     1       4.638   6.544  18.094  0.00  0.00    +0.000 C 
ENDROOT
BRANCH   1   2
ATOM      2  C   UNL     1       5.473   6.324  16.824  0.00  0.00    +0.000 C 
ATOM      3  O   UNL     1       6.360   7.138  16.546  0.00  0.00    +0.000 OA
ATOM      4  N   UNL     1       5.228   5.175  16.105  0.00  0.00    +0.000 N 
ATOM      5  C   UNL     1       5.956   4.825  14.980  0.00  0.00    +0.000 A 
ATOM      6  C   UNL     1       5.527   3.895  14.001  0.00  0.00    +0.000 A 
ATOM      7  C   UNL     1       6.522   3.904  13.054  0.00  0.00    +0.000 A 
ATOM      8  C   UNL     1       6.732   3.253  11.751  0.00  0.00    +0.000 C 
ATOM      9  O   UNL     1       7.510   4.741  13.459  0.00  0.00    +0.000 OA
ATOM     10  N   UNL     1       7.163   5.308  14.661  0.00  0.00    +0.000 NA
ATOM     11  H   UNL     1       4.328   4.723  16.222  0.00  0.00    +0.000 HD
ENDBRANCH   1   2
BRANCH   1  13
ATOM     12  C   UNL     1       2.528   8.048  17.912  0.00  0.00    +0.000 C 
ATOM     13  C   UNL     1       3.148   6.675  17.710  0.00  0.00    +0.000 C 
ENDBRANCH   1  13
BRANCH   1  14
ATOM     14  S   UNL     1       4.975   5.389  19.471  0.00  0.00    +0.000 S 
BRANCH  14  15
ATOM     15  C   UNL     1       3.778   4.119  19.175  0.00  0.00    +0.000 A 
ATOM     16  N   UNL     1       2.568   4.248  19.743  0.00  0.00    +0.000 NA
ATOM     17  C   UNL     1       1.754   3.188  19.663  0.00  0.00    +0.000 A 
ATOM     18  N   UNL     1       0.539   3.271  20.339  0.00  0.00    +0.000 N 
ATOM     19  C   UNL     1       2.117   2.018  19.041  0.00  0.00    +0.000 A 
ATOM     20  C   UNL     1       3.372   2.005  18.490  0.00  0.00    +0.000 A 
ATOM     21  N   UNL     1       4.230   3.029  18.544  0.00  0.00    +0.000 NA
ATOM     22  H   UNL     1       0.416   4.221  20.681  0.00  0.00    +0.000 HD
ATOM     23  H   UNL     1      -0.258   2.945  19.803  0.00  0.00    +0.000 HD
BRANCH  20  24
ATOM     24  O   UNL     1       3.859   0.896  17.859  0.00  0.00    +0.000 OA
ATOM     25  H   UNL     1       3.292   0.143  18.082  0.00  0.00    +0.000 HD
ENDBRANCH  20  24
ENDBRANCH  14  15
ENDBRANCH   1  14
TORSDOF 5
ENDMDL
MODEL 6
REMARK VINA RESULT:      -7.6      3.236      6.989
REMARK  Name = 
REMARK  7 active torsions:
REMARK  status: ('A' for Active; 'I' for Inactive)
REMARK    1  A    between atoms: C_1  and  C_2
REMARK    2  A    between atoms: C_2  and  C_3
REMARK    3  A    between atoms: C_3  and  S_4
REMARK    4  A    between atoms: C_3  and  C_13
REMARK    5  A    between atoms: S_4  and  C_5
REMARK    6  A    between atoms: C_10  and  O_11
REMARK    7  A    between atoms: C_18  and  C_19
REMARK                            x       y       z     vdW  Elec       q    Type
REMARK                         _______ _______ _______ _____ _____    ______ ____
ROOT
ATOM      1  C   UNL     1       3.226   6.195  18.227  0.00  0.00    +0.000 C 
ENDROOT
BRANCH   1   2
ATOM      2  C   UNL     1       4.396   6.242  17.233  0.00  0.00    +0.000 C 
ATOM      3  O   UNL     1       5.209   7.169  17.314  0.00  0.00    +0.000 OA
ATOM      4  N   UNL     1       4.509   5.191  16.349  0.00  0.00    +0.000 N 
ATOM      5  C   UNL     1       5.555   5.079  15.447  0.00  0.00    +0.000 A 
ATOM      6  C   UNL     1       5.533   4.264  14.289  0.00  0.00    +0.000 A 
ATOM      7  C   UNL     1       6.738   4.506  13.673  0.00  0.00    +0.000 A 
ATOM      8  C   UNL     1       7.377   4.074  12.420  0.00  0.00    +0.000 C 
ATOM      9  O   UNL     1       7.460   5.365  14.436  0.00  0.00    +0.000 OA
ATOM     10  N   UNL     1       6.728   5.716  15.544  0.00  0.00    +0.000 NA
ATOM     11  H   UNL     1       3.679   4.643  16.152  0.00  0.00    +0.000 HD
ENDBRANCH   1   2
BRANCH   1  13
ATOM     12  C   UNL     1       1.958   7.887  19.735  0.00  0.00    +0.000 C 
ATOM     13  C   UNL     1       2.654   7.617  18.411  0.00  0.00    +0.000 C 
ENDBRANCH   1  13
BRANCH   1  14
ATOM     14  S   UNL     1       1.974   4.901  17.913  0.00  0.00    +0.000 S 
BRANCH  14  15
ATOM     15  C   UNL     1       2.383   3.698  19.146  0.00  0.00    +0.000 A 
ATOM     16  N   UNL     1       1.512   3.502  20.148  0.00  0.00    +0.000 NA
ATOM     17  C   UNL     1       1.931   2.735  21.164  0.00  0.00    +0.000 A 
ATOM     18  N   UNL     1       1.078   2.610  22.257  0.00  0.00    +0.000 N 
ATOM     19  C   UNL     1       3.183   2.171  21.199  0.00  0.00    +0.000 A 
ATOM     20  C   UNL     1       3.982   2.432  20.116  0.00  0.00    +0.000 A 
ATOM     21  N   UNL     1       3.621   3.195  19.080  0.00  0.00    +0.000 NA
ATOM     22  H   UNL     1       0.183   3.035  22.027  0.00  0.00    +0.000 HD
ATOM     23  H   UNL     1       0.981   1.662  22.602  0.00  0.00    +0.000 HD
BRANCH  20  24
ATOM     24  O   UNL     1       5.256   1.945  20.040  0.00  0.00    +0.000 OA
ATOM     25  H   UNL     1       5.821   2.625  19.643  0.00  0.00    +0.000 HD
ENDBRANCH  20  24
ENDBRANCH  14  15
ENDBRANCH   1  14
TORSDOF 5
ENDMDL
MODEL 7
REMARK VINA RESULT:      -7.6      1.366      1.850
REMARK  Name = 
REMARK  7 active torsions:
REMARK  status: ('A' for Active; 'I' for Inactive)
REMARK    1  A    between atoms: C_1  and  C_2
REMARK    2  A    between atoms: C_2  and  C_3
REMARK    3  A    between atoms: C_3  and  S_4
REMARK    4  A    between atoms: C_3  and  C_13
REMARK    5  A    between atoms: S_4  and  C_5
REMARK    6  A    between atoms: C_10  and  O_11
REMARK    7  A    between atoms: C_18  and  C_19
REMARK                            x       y       z     vdW  Elec       q    Type
REMARK                         _______ _______ _______ _____ _____    ______ ____
ROOT
ATOM      1  C   UNL     1       3.082   5.030  20.032  0.00  0.00    +0.000 C 
ENDROOT
BRANCH   1   2
ATOM      2  C   UNL     1       2.628   6.480  19.800  0.00  0.00    +0.000 C 
ATOM      3  O   UNL     1       2.926   7.034  18.737  0.00  0.00    +0.000 OA
ATOM      4  N   UNL     1       1.842   7.053  20.775  0.00  0.00    +0.000 N 
ATOM      5  C   UNL     1       1.312   8.327  20.658  0.00  0.00    +0.000 A 
ATOM      6  C   UNL     1       0.836   9.103  21.743  0.00  0.00    +0.000 A 
ATOM      7  C   UNL     1       0.464  10.299  21.177  0.00  0.00    +0.000 A 
ATOM      8  C   UNL     1      -0.049  11.582  21.685  0.00  0.00    +0.000 C 
ATOM      9  O   UNL     1       0.651  10.231  19.835  0.00  0.00    +0.000 OA
ATOM     10  N   UNL     1       1.171   9.001  19.510  0.00  0.00    +0.000 NA
ATOM     11  H   UNL     1       1.881   6.663  21.709  0.00  0.00    +0.000 HD
ENDBRANCH   1   2
BRANCH   1  13
ATOM     12  C   UNL     1       1.038   3.468  20.388  0.00  0.00    +0.000 C 
ATOM     13  C   UNL     1       2.111   4.342  21.015  0.00  0.00    +0.000 C 
ENDBRANCH   1  13
BRANCH   1  14
ATOM     14  S   UNL     1       3.452   4.068  18.522  0.00  0.00    +0.000 S 
BRANCH  14  15
ATOM     15  C   UNL     1       5.111   4.576  18.170  0.00  0.00    +0.000 A 
ATOM     16  N   UNL     1       5.959   4.718  19.200  0.00  0.00    +0.000 NA
ATOM     17  C   UNL     1       7.141   5.286  18.929  0.00  0.00    +0.000 A 
ATOM     18  N   UNL     1       7.986   5.536  20.008  0.00  0.00    +0.000 N 
ATOM     19  C   UNL     1       7.488   5.712  17.670  0.00  0.00    +0.000 A 
ATOM     20  C   UNL     1       6.547   5.506  16.694  0.00  0.00    +0.000 A 
ATOM     21  N   UNL     1       5.349   4.951  16.907  0.00  0.00    +0.000 NA
ATOM     22  H   UNL     1       7.597   5.100  20.840  0.00  0.00    +0.000 HD
ATOM     23  H   UNL     1       8.952   5.274  19.847  0.00  0.00    +0.000 HD
BRANCH  20  24
ATOM     24  O   UNL     1       6.763   5.900  15.405  0.00  0.00    +0.000 OA
ATOM     25  H   UNL     1       7.630   5.572  15.125  0.00  0.00    +0.000 HD
ENDBRANCH  20  24
ENDBRANCH  14  15
ENDBRANCH   1  14
TORSDOF 5
ENDMDL
MODEL 8
REMARK VINA RESULT:      -7.6      2.006      2.538
REMARK  Name = 
REMARK  7 active torsions:
REMARK  status: ('A' for Active; 'I' for Inactive)
REMARK    1  A    between atoms: C_1  and  C_2
REMARK    2  A    between atoms: C_2  and  C_3
REMARK    3  A    between atoms: C_3  and  S_4
REMARK    4  A    between atoms: C_3  and  C_13
REMARK    5  A    between atoms: S_4  and  C_5
REMARK    6  A    between atoms: C_10  and  O_11
REMARK    7  A    between atoms: C_18  and  C_19
REMARK                            x       y       z     vdW  Elec       q    Type
REMARK                         _______ _______ _______ _____ _____    ______ ____
ROOT
ATOM      1  C   UNL     1       3.575   3.928  19.707  0.00  0.00    +0.000 C 
ENDROOT
BRANCH   1   2
ATOM      2  C   UNL     1       2.748   5.191  19.994  0.00  0.00    +0.000 C 
ATOM      3  O   UNL     1       2.057   5.229  21.017  0.00  0.00    +0.000 OA
ATOM      4  N   UNL     1       2.891   6.244  19.118  0.00  0.00    +0.000 N 
ATOM      5  C   UNL     1       2.254   7.461  19.300  0.00  0.00    +0.000 A 
ATOM      6  C   UNL     1       2.051   8.422  18.279  0.00  0.00    +0.000 A 
ATOM      7  C   UNL     1       1.340   9.428  18.887  0.00  0.00    +0.000 A 
ATOM      8  C   UNL     1       0.732  10.694  18.446  0.00  0.00    +0.000 C 
ATOM      9  O   UNL     1       1.173   9.122  20.198  0.00  0.00    +0.000 OA
ATOM     10  N   UNL     1       1.749   7.902  20.458  0.00  0.00    +0.000 NA
ATOM     11  H   UNL     1       3.231   6.045  18.184  0.00  0.00    +0.000 HD
ENDBRANCH   1   2
BRANCH   1  13
ATOM     12  C   UNL     1       1.883   2.034  19.166  0.00  0.00    +0.000 C 
ATOM     13  C   UNL     1       2.797   2.686  20.190  0.00  0.00    +0.000 C 
ENDBRANCH   1  13
BRANCH   1  14
ATOM     14  S   UNL     1       4.254   3.796  18.014  0.00  0.00    +0.000 S 
BRANCH  14  15
ATOM     15  C   UNL     1       5.699   4.813  18.126  0.00  0.00    +0.000 A 
ATOM     16  N   UNL     1       6.567   4.566  19.119  0.00  0.00    +0.000 NA
ATOM     17  C   UNL     1       7.544   5.466  19.297  0.00  0.00    +0.000 A 
ATOM     18  N   UNL     1       8.387   5.278  20.389  0.00  0.00    +0.000 N 
ATOM     19  C   UNL     1       7.668   6.590  18.517  0.00  0.00    +0.000 A 
ATOM     20  C   UNL     1       6.730   6.731  17.527  0.00  0.00    +0.000 A 
ATOM     21  N   UNL     1       5.730   5.871  17.308  0.00  0.00    +0.000 NA
ATOM     22  H   UNL     1       8.190   4.371  20.806  0.00  0.00    +0.000 HD
ATOM     23  H   UNL     1       9.372   5.403  20.180  0.00  0.00    +0.000 HD
BRANCH  20  24
ATOM     24  O   UNL     1       6.732   7.815  16.696  0.00  0.00    +0.000 OA
ATOM     25  H   UNL     1       6.646   7.501  15.783  0.00  0.00    +0.000 HD
ENDBRANCH  20  24
ENDBRANCH  14  15
ENDBRANCH   1  14
TORSDOF 5
ENDMDL
MODEL 9
REMARK VINA RESULT:      -7.5      2.716      4.090
REMARK  Name = 
REMARK  7 active torsions:
REMARK  status: ('A' for Active; 'I' for Inactive)
REMARK    1  A    between atoms: C_1  and  C_2
REMARK    2  A    between atoms: C_2  and  C_3
REMARK    3  A    between atoms: C_3  and  S_4
REMARK    4  A    between atoms: C_3  and  C_13
REMARK    5  A    between atoms: S_4  and  C_5
REMARK    6  A    between atoms: C_10  and  O_11
REMARK    7  A    between atoms: C_18  and  C_19
REMARK                            x       y       z     vdW  Elec       q    Type
REMARK                         _______ _______ _______ _____ _____    ______ ____
ROOT
ATOM      1  C   UNL     1       3.701   6.524  17.963  0.00  0.00    +0.000 C 
ENDROOT
BRANCH   1   2
ATOM      2  C   UNL     1       2.796   7.662  18.459  0.00  0.00    +0.000 C 
ATOM      3  O   UNL     1       2.555   8.606  17.698  0.00  0.00    +0.000 OA
ATOM      4  N   UNL     1       2.241   7.520  19.711  0.00  0.00    +0.000 N 
ATOM      5  C   UNL     1       1.355   8.440  20.248  0.00  0.00    +0.000 A 
ATOM      6  C   UNL     1       1.055   8.557  21.627  0.00  0.00    +0.000 A 
ATOM      7  C   UNL     1       0.188   9.621  21.704  0.00  0.00    +0.000 A 
ATOM      8  C   UNL     1      -0.481  10.348  22.794  0.00  0.00    +0.000 C 
ATOM      9  O   UNL     1      -0.062  10.079  20.452  0.00  0.00    +0.000 OA
ATOM     10  N   UNL     1       0.657   9.339  19.544  0.00  0.00    +0.000 NA
ATOM     11  H   UNL     1       2.695   6.893  20.366  0.00  0.00    +0.000 HD
ENDBRANCH   1   2
BRANCH   1  13
ATOM     12  C   UNL     1       5.209   5.959  15.926  0.00  0.00    +0.000 C 
ATOM     13  C   UNL     1       4.563   7.032  16.787  0.00  0.00    +0.000 C 
ENDBRANCH   1  13
BRANCH   1  14
ATOM     14  S   UNL     1       4.628   5.630  19.261  0.00  0.00    +0.000 S 
BRANCH  14  15
ATOM     15  C   UNL     1       3.688   4.137  19.409  0.00  0.00    +0.000 A 
ATOM     16  N   UNL     1       4.223   3.005  18.925  0.00  0.00    +0.000 NA
ATOM     17  C   UNL     1       3.417   1.936  18.874  0.00  0.00    +0.000 A 
ATOM     18  N   UNL     1       3.927   0.786  18.276  0.00  0.00    +0.000 N 
ATOM     19  C   UNL     1       2.108   1.974  19.288  0.00  0.00    +0.000 A 
ATOM     20  C   UNL     1       1.674   3.181  19.773  0.00  0.00    +0.000 A 
ATOM     21  N   UNL     1       2.430   4.282  19.840  0.00  0.00    +0.000 NA
ATOM     22  H   UNL     1       4.918   0.922  18.093  0.00  0.00    +0.000 HD
ATOM     23  H   UNL     1       3.740  -0.067  18.790  0.00  0.00    +0.000 HD
BRANCH  20  24
ATOM     24  O   UNL     1       0.388   3.354  20.199  0.00  0.00    +0.000 OA
ATOM     25  H   UNL     1       0.240   4.300  20.351  0.00  0.00    +0.000 HD
ENDBRANCH  20  24
ENDBRANCH  14  15
ENDBRANCH   1  14
TORSDOF 5
ENDMDL
