MODEL 1
REMARK VINA RESULT:      -7.8      0.000      0.000
REMARK  Name = 
REMARK  5 active torsions:
REMARK  status: ('A' for Active; 'I' for Inactive)
REMARK    1  A    between atoms: C_1  and  N_2
REMARK    2  A    between atoms: C_4  and  C_5
REMARK    3  A    between atoms: C_5  and  N_6
REMARK    4  A    between atoms: C_9  and  N_10
REMARK    5  A    between atoms: C_23  and  C_24
REMARK                            x       y       z     vdW  Elec       q    Type
REMARK                         _______ _______ _______ _____ _____    ______ ____
ROOT
ATOM      1  N   UNL     1       2.677   6.908  18.654  0.00  0.00    +0.000 N 
ATOM      2  C   UNL     1       1.874   7.838  19.289  0.00  0.00    +0.000 A 
ATOM      3  N   UNL     1       1.804   9.059  18.830  0.00  0.00    +0.000 NA
ATOM      4  C   UNL     1       1.065  10.007  19.490  0.00  0.00    +0.000 A 
ATOM      5  C   UNL     1       0.343   9.685  20.571  0.00  0.00    +0.000 A 
ATOM      6  C   UNL     1       0.320   8.310  21.059  0.00  0.00    +0.000 A 
ATOM      7  O   UNL     1      -0.428   8.010  21.984  0.00  0.00    +0.000 OA
ATOM      8  N   UNL     1       1.172   7.444  20.416  0.00  0.00    +0.000 N 
ATOM      9  C   UNL     1       1.188   6.072  20.886  0.00  0.00    +0.000 C 
ATOM     10  C   UNL     1       2.481   5.363  20.545  0.00  0.00    +0.000 C 
ATOM     11  C   UNL     1       2.756   5.490  19.051  0.00  0.00    +0.000 C 
ENDROOT
BRANCH   4  12
ATOM     12  N   UNL     1       1.038  11.324  19.047  0.00  0.00    +0.000 N 
ATOM     13  C   UNL     1      -0.175  12.061  18.632  0.00  0.00    +0.000 C 
ATOM     14  C   UNL     1       0.347  13.516  18.608  0.00  0.00    +0.000 C 
ATOM     15  C   UNL     1       1.789  13.330  18.167  0.00  0.00    +0.000 C 
ATOM     16  C   UNL     1       2.065  12.352  19.308  0.00  0.00    +0.000 C 
ATOM     17  C   UNL     1       1.619  13.218  20.499  0.00  0.00    +0.000 C 
ATOM     18  O   UNL     1       0.486  13.982  19.979  0.00  0.00    +0.000 OA
ENDBRANCH   4  12
BRANCH  11  19
ATOM     19  C   UNL     1       1.850   4.571  18.194  0.00  0.00    +0.000 C 
ATOM     20  F   UNL     1       1.002   5.268  17.404  0.00  0.00    +0.000 F 
ATOM     21  F   UNL     1       2.608   3.803  17.371  0.00  0.00    +0.000 F 
ATOM     22  F   UNL     1       1.104   3.725  18.941  0.00  0.00    +0.000 F 
ENDBRANCH  11  19
BRANCH   1  23
ATOM     23  C   UNL     1       3.673   7.340  17.658  0.00  0.00    +0.000 C 
BRANCH  23  27
ATOM     24  C   UNL     1       8.035   5.619  18.926  0.00  0.00    +0.000 C 
ATOM     25  N   UNL     1       6.850   5.781  18.117  0.00  0.00    +0.000 N 
ATOM     26  N   UNL     1       5.800   6.465  18.612  0.00  0.00    +0.000 NA
ATOM     27  C   UNL     1       4.948   6.537  17.574  0.00  0.00    +0.000 A 
ATOM     28  C   UNL     1       5.407   5.775  16.463  0.00  0.00    +0.000 A 
ATOM     29  C   UNL     1       4.911   5.451  15.186  0.00  0.00    +0.000 A 
ATOM     30  C   UNL     1       5.697   4.671  14.330  0.00  0.00    +0.000 A 
ATOM     31  C   UNL     1       6.961   4.235  14.724  0.00  0.00    +0.000 A 
ATOM     32  C   UNL     1       7.474   4.549  15.986  0.00  0.00    +0.000 A 
ATOM     33  C   UNL     1       6.665   5.311  16.841  0.00  0.00    +0.000 A 
ENDBRANCH  23  27
ENDBRANCH   1  23
TORSDOF 4
ENDMDL
MODEL 2
REMARK VINA RESULT:      -7.7      0.942      1.832
REMARK  Name = 
REMARK  5 active torsions:
REMARK  status: ('A' for Active; 'I' for Inactive)
REMARK    1  A    between atoms: C_1  and  N_2
REMARK    2  A    between atoms: C_4  and  C_5
REMARK    3  A    between atoms: C_5  and  N_6
REMARK    4  A    between atoms: C_9  and  N_10
REMARK    5  A    between atoms: C_23  and  C_24
REMARK                            x       y       z     vdW  Elec       q    Type
REMARK                         _______ _______ _______ _____ _____    ______ ____
ROOT
ATOM      1  N   UNL     1       2.840   6.983  18.325  0.00  0.00    +0.000 N 
ATOM      2  C   UNL     1       2.083   7.877  19.059  0.00  0.00    +0.000 A 
ATOM      3  N   UNL     1       1.928   9.102  18.634  0.00  0.00    +0.000 NA
ATOM      4  C   UNL     1       1.236  10.016  19.386  0.00  0.00    +0.000 A 
ATOM      5  C   UNL     1       0.644   9.655  20.532  0.00  0.00    +0.000 A 
ATOM      6  C   UNL     1       0.713   8.272  20.993  0.00  0.00    +0.000 A 
ATOM      7  O   UNL     1       0.076   7.934  21.986  0.00  0.00    +0.000 OA
ATOM      8  N   UNL     1       1.516   7.443  20.247  0.00  0.00    +0.000 N 
ATOM      9  C   UNL     1       1.622   6.065  20.685  0.00  0.00    +0.000 C 
ATOM     10  C   UNL     1       2.891   5.402  20.195  0.00  0.00    +0.000 C 
ATOM     11  C   UNL     1       3.001   5.561  18.684  0.00  0.00    +0.000 C 
ENDROOT
BRANCH   4  12
ATOM     12  N   UNL     1       1.124  11.339  18.974  0.00  0.00    +0.000 N 
ATOM     13  C   UNL     1      -0.135  12.007  18.582  0.00  0.00    +0.000 C 
ATOM     14  C   UNL     1       0.294  13.493  18.589  0.00  0.00    +0.000 C 
ATOM     15  C   UNL     1       1.742  13.408  18.138  0.00  0.00    +0.000 C 
ATOM     16  C   UNL     1       2.086  12.423  19.255  0.00  0.00    +0.000 C 
ATOM     17  C   UNL     1       1.593  13.232  20.468  0.00  0.00    +0.000 C 
ATOM     18  O   UNL     1       0.411  13.935  19.970  0.00  0.00    +0.000 OA
ENDBRANCH   4  12
BRANCH  11  19
ATOM     19  C   UNL     1       2.037   4.629  17.910  0.00  0.00    +0.000 C 
ATOM     20  F   UNL     1       1.059   5.309  17.268  0.00  0.00    +0.000 F 
ATOM     21  F   UNL     1       2.716   3.935  16.962  0.00  0.00    +0.000 F 
ATOM     22  F   UNL     1       1.437   3.716  18.708  0.00  0.00    +0.000 F 
ENDBRANCH  11  19
BRANCH   1  23
ATOM     23  C   UNL     1       3.710   7.461  17.237  0.00  0.00    +0.000 C 
BRANCH  23  27
ATOM     24  C   UNL     1       6.068   4.321  14.376  0.00  0.00    +0.000 C 
ATOM     25  N   UNL     1       5.835   5.155  15.532  0.00  0.00    +0.000 N 
ATOM     26  N   UNL     1       4.805   6.024  15.523  0.00  0.00    +0.000 NA
ATOM     27  C   UNL     1       4.799   6.524  16.771  0.00  0.00    +0.000 A 
ATOM     28  C   UNL     1       5.915   6.069  17.525  0.00  0.00    +0.000 A 
ATOM     29  C   UNL     1       6.430   6.309  18.813  0.00  0.00    +0.000 A 
ATOM     30  C   UNL     1       7.579   5.623  19.224  0.00  0.00    +0.000 A 
ATOM     31  C   UNL     1       8.196   4.699  18.383  0.00  0.00    +0.000 A 
ATOM     32  C   UNL     1       7.699   4.443  17.101  0.00  0.00    +0.000 A 
ATOM     33  C   UNL     1       6.562   5.156  16.695  0.00  0.00    +0.000 A 
ENDBRANCH  23  27
ENDBRANCH   1  23
TORSDOF 4
ENDMDL
MODEL 3
REMARK VINA RESULT:      -7.7      5.139      8.179
REMARK  Name = 
REMARK  5 active torsions:
REMARK  status: ('A' for Active; 'I' for Inactive)
REMARK    1  A    between atoms: C_1  and  N_2
REMARK    2  A    between atoms: C_4  and  C_5
REMARK    3  A    between atoms: C_5  and  N_6
REMARK    4  A    between atoms: C_9  and  N_10
REMARK    5  A    between atoms: C_23  and  C_24
REMARK                            x       y       z     vdW  Elec       q    Type
REMARK                         _______ _______ _______ _____ _____    ______ ____
ROOT
ATOM      1  N   UNL     1      -2.959  11.632  18.497  0.00  0.00    +0.000 N 
ATOM      2  C   UNL     1      -3.932  12.104  19.359  0.00  0.00    +0.000 A 
ATOM      3  N   UNL     1      -3.668  13.105  20.154  0.00  0.00    +0.000 NA
ATOM      4  C   UNL     1      -4.601  13.538  21.060  0.00  0.00    +0.000 A 
ATOM      5  C   UNL     1      -5.824  12.994  21.099  0.00  0.00    +0.000 A 
ATOM      6  C   UNL     1      -6.190  11.937  20.162  0.00  0.00    +0.000 A 
ATOM      7  O   UNL     1      -7.345  11.524  20.138  0.00  0.00    +0.000 OA
ATOM      8  N   UNL     1      -5.169  11.480  19.363  0.00  0.00    +0.000 N 
ATOM      9  C   UNL     1      -5.492  10.417  18.431  0.00  0.00    +0.000 C 
ATOM     10  C   UNL     1      -4.272   9.619  18.025  0.00  0.00    +0.000 C 
ATOM     11  C   UNL     1      -3.191  10.562  17.509  0.00  0.00    +0.000 C 
ENDROOT
BRANCH   4  12
ATOM     12  N   UNL     1      -4.305  14.560  21.955  0.00  0.00    +0.000 N 
ATOM     13  C   UNL     1      -5.254  15.148  22.924  0.00  0.00    +0.000 C 
ATOM     14  C   UNL     1      -4.296  15.932  23.851  0.00  0.00    +0.000 C 
ATOM     15  C   UNL     1      -3.213  16.377  22.884  0.00  0.00    +0.000 C 
ATOM     16  C   UNL     1      -2.959  14.942  22.426  0.00  0.00    +0.000 C 
ATOM     17  C   UNL     1      -2.697  14.282  23.791  0.00  0.00    +0.000 C 
ATOM     18  O   UNL     1      -3.598  14.983  24.705  0.00  0.00    +0.000 OA
ENDBRANCH   4  12
BRANCH  11  19
ATOM     19  C   UNL     1      -3.495  11.104  16.091  0.00  0.00    +0.000 C 
ATOM     20  F   UNL     1      -2.391  11.576  15.467  0.00  0.00    +0.000 F 
ATOM     21  F   UNL     1      -3.993  10.115  15.307  0.00  0.00    +0.000 F 
ATOM     22  F   UNL     1      -4.413  12.098  16.095  0.00  0.00    +0.000 F 
ENDBRANCH  11  19
BRANCH   1  23
ATOM     23  C   UNL     1      -1.553  12.040  18.665  0.00  0.00    +0.000 C 
BRANCH  23  27
ATOM     24  C   UNL     1       1.742   8.495  19.080  0.00  0.00    +0.000 C 
ATOM     25  N   UNL     1       0.807   9.503  19.520  0.00  0.00    +0.000 N 
ATOM     26  N   UNL     1       0.277  10.352  18.618  0.00  0.00    +0.000 NA
ATOM     27  C   UNL     1      -0.628  11.048  19.328  0.00  0.00    +0.000 A 
ATOM     28  C   UNL     1      -0.567  10.729  20.713  0.00  0.00    +0.000 A 
ATOM     29  C   UNL     1      -1.209  11.179  21.882  0.00  0.00    +0.000 A 
ATOM     30  C   UNL     1      -0.893  10.578  23.105  0.00  0.00    +0.000 A 
ATOM     31  C   UNL     1       0.030   9.535  23.168  0.00  0.00    +0.000 A 
ATOM     32  C   UNL     1       0.676   9.070  22.018  0.00  0.00    +0.000 A 
ATOM     33  C   UNL     1       0.365   9.699  20.804  0.00  0.00    +0.000 A 
ENDBRANCH  23  27
ENDBRANCH   1  23
TORSDOF 4
ENDMDL
MODEL 4
REMARK VINA RESULT:      -7.4      5.364      8.830
REMARK  Name = 
REMARK  5 active torsions:
REMARK  status: ('A' for Active; 'I' for Inactive)
REMARK    1  A    between atoms: C_1  and  N_2
REMARK    2  A    between atoms: C_4  and  C_5
REMARK    3  A    between atoms: C_5  and  N_6
REMARK    4  A    between atoms: C_9  and  N_10
REMARK    5  A    between atoms: C_23  and  C_24
REMARK                            x       y       z     vdW  Elec       q    Type
REMARK                         _______ _______ _______ _____ _____    ______ ____
ROOT
ATOM      1  N   UNL     1       0.039  11.807  21.162  0.00  0.00    +0.000 N 
ATOM      2  C   UNL     1       0.962  12.077  20.169  0.00  0.00    +0.000 A 
ATOM      3  N   UNL     1       1.593  13.221  20.161  0.00  0.00    +0.000 NA
ATOM      4  C   UNL     1       2.461  13.528  19.145  0.00  0.00    +0.000 A 
ATOM      5  C   UNL     1       2.735  12.637  18.183  0.00  0.00    +0.000 A 
ATOM      6  C   UNL     1       2.124  11.313  18.210  0.00  0.00    +0.000 A 
ATOM      7  O   UNL     1       2.466  10.472  17.384  0.00  0.00    +0.000 OA
ATOM      8  N   UNL     1       1.182  11.120  19.192  0.00  0.00    +0.000 N 
ATOM      9  C   UNL     1       0.540   9.821  19.238  0.00  0.00    +0.000 C 
ATOM     10  C   UNL     1      -0.808   9.869  19.925  0.00  0.00    +0.000 C 
ATOM     11  C   UNL     1      -0.660  10.514  21.298  0.00  0.00    +0.000 C 
ENDROOT
BRANCH   4  12
ATOM     12  N   UNL     1       3.086  14.769  19.092  0.00  0.00    +0.000 N 
ATOM     13  C   UNL     1       4.189  15.131  18.177  0.00  0.00    +0.000 C 
ATOM     14  C   UNL     1       4.207  16.671  18.317  0.00  0.00    +0.000 C 
ATOM     15  C   UNL     1       3.804  16.863  19.769  0.00  0.00    +0.000 C 
ATOM     16  C   UNL     1       2.527  16.046  19.576  0.00  0.00    +0.000 C 
ATOM     17  C   UNL     1       1.913  16.810  18.389  0.00  0.00    +0.000 C 
ATOM     18  O   UNL     1       3.070  17.215  17.591  0.00  0.00    +0.000 OA
ENDBRANCH   4  12
BRANCH  11  19
ATOM     19  C   UNL     1       0.004   9.575  22.335  0.00  0.00    +0.000 C 
ATOM     20  F   UNL     1       1.353   9.667  22.331  0.00  0.00    +0.000 F 
ATOM     21  F   UNL     1      -0.406   9.896  23.588  0.00  0.00    +0.000 F 
ATOM     22  F   UNL     1      -0.312   8.274  22.142  0.00  0.00    +0.000 F 
ENDBRANCH  11  19
BRANCH   1  23
ATOM     23  C   UNL     1      -0.459  12.887  22.031  0.00  0.00    +0.000 C 
BRANCH  23  27
ATOM     24  C   UNL     1      -4.424  12.507  24.813  0.00  0.00    +0.000 C 
ATOM     25  N   UNL     1      -3.658  12.684  23.602  0.00  0.00    +0.000 N 
ATOM     26  N   UNL     1      -2.323  12.850  23.682  0.00  0.00    +0.000 NA
ATOM     27  C   UNL     1      -1.923  12.848  22.399  0.00  0.00    +0.000 A 
ATOM     28  C   UNL     1      -3.028  12.819  21.504  0.00  0.00    +0.000 A 
ATOM     29  C   UNL     1      -3.199  12.865  20.107  0.00  0.00    +0.000 A 
ATOM     30  C   UNL     1      -4.491  12.778  19.578  0.00  0.00    +0.000 A 
ATOM     31  C   UNL     1      -5.596  12.628  20.415  0.00  0.00    +0.000 A 
ATOM     32  C   UNL     1      -5.448  12.576  21.805  0.00  0.00    +0.000 A 
ATOM     33  C   UNL     1      -4.149  12.689  22.321  0.00  0.00    +0.000 A 
ENDBRANCH  23  27
ENDBRANCH   1  23
TORSDOF 4
ENDMDL
MODEL 5
REMARK VINA RESULT:      -7.4      5.107      8.201
REMARK  Name = 
REMARK  5 active torsions:
REMARK  status: ('A' for Active; 'I' for Inactive)
REMARK    1  A    between atoms: C_1  and  N_2
REMARK    2  A    between atoms: C_4  and  C_5
REMARK    3  A    between atoms: C_5  and  N_6
REMARK    4  A    between atoms: C_9  and  N_10
REMARK    5  A    between atoms: C_23  and  C_24
REMARK                            x       y       z     vdW  Elec       q    Type
REMARK                         _______ _______ _______ _____ _____    ______ ____
ROOT
ATOM      1  N   UNL     1      -2.989  11.584  18.451  0.00  0.00    +0.000 N 
ATOM      2  C   UNL     1      -3.970  12.058  19.301  0.00  0.00    +0.000 A 
ATOM      3  N   UNL     1      -3.722  13.078  20.078  0.00  0.00    +0.000 NA
ATOM      4  C   UNL     1      -4.664  13.514  20.974  0.00  0.00    +0.000 A 
ATOM      5  C   UNL     1      -5.880  12.955  21.019  0.00  0.00    +0.000 A 
ATOM      6  C   UNL     1      -6.228  11.876  20.101  0.00  0.00    +0.000 A 
ATOM      7  O   UNL     1      -7.378  11.447  20.082  0.00  0.00    +0.000 OA
ATOM      8  N   UNL     1      -5.199  11.418  19.313  0.00  0.00    +0.000 N 
ATOM      9  C   UNL     1      -5.505  10.334  18.401  0.00  0.00    +0.000 C 
ATOM     10  C   UNL     1      -4.273   9.545  18.012  0.00  0.00    +0.000 C 
ATOM     11  C   UNL     1      -3.204  10.493  17.482  0.00  0.00    +0.000 C 
ENDROOT
BRANCH   4  12
ATOM     12  N   UNL     1      -4.384  14.556  21.851  0.00  0.00    +0.000 N 
ATOM     13  C   UNL     1      -3.042  14.904  22.364  0.00  0.00    +0.000 C 
ATOM     14  C   UNL     1      -3.300  16.306  22.963  0.00  0.00    +0.000 C 
ATOM     15  C   UNL     1      -4.727  16.180  23.465  0.00  0.00    +0.000 C 
ATOM     16  C   UNL     1      -5.228  15.744  22.089  0.00  0.00    +0.000 C 
ATOM     17  C   UNL     1      -4.698  16.915  21.243  0.00  0.00    +0.000 C 
ATOM     18  O   UNL     1      -3.423  17.260  21.872  0.00  0.00    +0.000 OA
ENDBRANCH   4  12
BRANCH  11  19
ATOM     19  C   UNL     1      -3.511  11.005  16.053  0.00  0.00    +0.000 C 
ATOM     20  F   UNL     1      -4.346  12.070  16.050  0.00  0.00    +0.000 F 
ATOM     21  F   UNL     1      -2.367  11.406  15.443  0.00  0.00    +0.000 F 
ATOM     22  F   UNL     1      -4.064  10.057  15.263  0.00  0.00    +0.000 F 
ENDBRANCH  11  19
BRANCH   1  23
ATOM     23  C   UNL     1      -1.589  12.014  18.615  0.00  0.00    +0.000 C 
BRANCH  23  27
ATOM     24  C   UNL     1       1.765   8.522  19.007  0.00  0.00    +0.000 C 
ATOM     25  N   UNL     1       0.815   9.514  19.453  0.00  0.00    +0.000 N 
ATOM     26  N   UNL     1       0.268  10.356  18.556  0.00  0.00    +0.000 NA
ATOM     27  C   UNL     1      -0.646  11.036  19.271  0.00  0.00    +0.000 A 
ATOM     28  C   UNL     1      -0.575  10.713  20.655  0.00  0.00    +0.000 A 
ATOM     29  C   UNL     1      -1.221  11.148  21.828  0.00  0.00    +0.000 A 
ATOM     30  C   UNL     1      -0.891  10.548  23.048  0.00  0.00    +0.000 A 
ATOM     31  C   UNL     1       0.049   9.520  23.104  0.00  0.00    +0.000 A 
ATOM     32  C   UNL     1       0.699   9.069  21.950  0.00  0.00    +0.000 A 
ATOM     33  C   UNL     1       0.374   9.697  20.739  0.00  0.00    +0.000 A 
ENDBRANCH  23  27
ENDBRANCH   1  23
TORSDOF 4
ENDMDL
MODEL 6
REMARK VINA RESULT:      -7.3      5.110      7.708
REMARK  Name = 
REMARK  5 active torsions:
REMARK  status: ('A' for Active; 'I' for Inactive)
REMARK    1  A    between atoms: C_1  and  N_2
REMARK    2  A    between atoms: C_4  and  C_5
REMARK    3  A    between atoms: C_5  and  N_6
REMARK    4  A    between atoms: C_9  and  N_10
REMARK    5  A    between atoms: C_23  and  C_24
REMARK                            x       y       z     vdW  Elec       q    Type
REMARK                         _______ _______ _______ _____ _____    ______ ____
ROOT
ATOM      1  N   UNL     1      -3.006  11.539  18.579  0.00  0.00    +0.000 N 
ATOM      2  C   UNL     1      -3.997  12.098  19.364  0.00  0.00    +0.000 A 
ATOM      3  N   UNL     1      -3.711  13.087  20.168  0.00  0.00    +0.000 NA
ATOM      4  C   UNL     1      -4.669  13.604  21.002  0.00  0.00    +0.000 A 
ATOM      5  C   UNL     1      -5.931  13.159  20.957  0.00  0.00    +0.000 A 
ATOM      6  C   UNL     1      -6.312  12.121  20.004  0.00  0.00    +0.000 A 
ATOM      7  O   UNL     1      -7.492  11.800  19.901  0.00  0.00    +0.000 OA
ATOM      8  N   UNL     1      -5.277  11.574  19.285  0.00  0.00    +0.000 N 
ATOM      9  C   UNL     1      -5.617  10.527  18.341  0.00  0.00    +0.000 C 
ATOM     10  C   UNL     1      -4.439   9.630  18.030  0.00  0.00    +0.000 C 
ATOM     11  C   UNL     1      -3.253  10.477  17.585  0.00  0.00    +0.000 C 
ENDROOT
BRANCH   4  12
ATOM     12  N   UNL     1      -4.357  14.611  21.907  0.00  0.00    +0.000 N 
ATOM     13  C   UNL     1      -5.134  14.939  23.121  0.00  0.00    +0.000 C 
ATOM     14  C   UNL     1      -4.139  15.846  23.883  0.00  0.00    +0.000 C 
ATOM     15  C   UNL     1      -3.422  16.556  22.748  0.00  0.00    +0.000 C 
ATOM     16  C   UNL     1      -3.030  15.230  22.098  0.00  0.00    +0.000 C 
ATOM     17  C   UNL     1      -2.328  14.560  23.292  0.00  0.00    +0.000 C 
ATOM     18  O   UNL     1      -3.094  15.011  24.454  0.00  0.00    +0.000 OA
ENDBRANCH   4  12
BRANCH  11  19
ATOM     19  C   UNL     1      -3.411  11.022  16.144  0.00  0.00    +0.000 C 
ATOM     20  F   UNL     1      -3.894  10.094  15.287  0.00  0.00    +0.000 F 
ATOM     21  F   UNL     1      -4.285  12.060  16.129  0.00  0.00    +0.000 F 
ATOM     22  F   UNL     1      -2.249  11.482  15.627  0.00  0.00    +0.000 F 
ENDBRANCH  11  19
BRANCH   1  23
ATOM     23  C   UNL     1      -1.588  11.837  18.844  0.00  0.00    +0.000 C 
BRANCH  23  27
ATOM     24  C   UNL     1       0.072   9.548  22.793  0.00  0.00    +0.000 C 
ATOM     25  N   UNL     1      -0.092   9.829  21.387  0.00  0.00    +0.000 N 
ATOM     26  N   UNL     1      -1.030  10.714  20.995  0.00  0.00    +0.000 NA
ATOM     27  C   UNL     1      -0.822  10.834  19.672  0.00  0.00    +0.000 A 
ATOM     28  C   UNL     1       0.162   9.916  19.209  0.00  0.00    +0.000 A 
ATOM     29  C   UNL     1       0.711   9.569  17.960  0.00  0.00    +0.000 A 
ATOM     30  C   UNL     1       1.721   8.602  17.908  0.00  0.00    +0.000 A 
ATOM     31  C   UNL     1       2.194   8.003  19.074  0.00  0.00    +0.000 A 
ATOM     32  C   UNL     1       1.665   8.336  20.325  0.00  0.00    +0.000 A 
ATOM     33  C   UNL     1       0.637   9.289  20.358  0.00  0.00    +0.000 A 
ENDBRANCH  23  27
ENDBRANCH   1  23
TORSDOF 4
ENDMDL
MODEL 7
REMARK VINA RESULT:      -7.3      5.482      9.328
REMARK  Name = 
REMARK  5 active torsions:
REMARK  status: ('A' for Active; 'I' for Inactive)
REMARK    1  A    between atoms: C_1  and  N_2
REMARK    2  A    between atoms: C_4  and  C_5
REMARK    3  A    between atoms: C_5  and  N_6
REMARK    4  A    between atoms: C_9  and  N_10
REMARK    5  A    between atoms: C_23  and  C_24
REMARK                            x       y       z     vdW  Elec       q    Type
REMARK                         _______ _______ _______ _____ _____    ______ ____
ROOT
ATOM      1  N   UNL     1      -0.337  11.833  20.985  0.00  0.00    +0.000 N 
ATOM      2  C   UNL     1       0.695  12.248  20.165  0.00  0.00    +0.000 A 
ATOM      3  N   UNL     1       1.228  13.428  20.334  0.00  0.00    +0.000 NA
ATOM      4  C   UNL     1       2.206  13.878  19.484  0.00  0.00    +0.000 A 
ATOM      5  C   UNL     1       2.686  13.091  18.513  0.00  0.00    +0.000 A 
ATOM      6  C   UNL     1       2.185  11.731  18.352  0.00  0.00    +0.000 A 
ATOM      7  O   UNL     1       2.709  10.987  17.528  0.00  0.00    +0.000 OA
ATOM      8  N   UNL     1       1.130  11.392  19.164  0.00  0.00    +0.000 N 
ATOM      9  C   UNL     1       0.594  10.053  19.019  0.00  0.00    +0.000 C 
ATOM     10  C   UNL     1      -0.838   9.952  19.498  0.00  0.00    +0.000 C 
ATOM     11  C   UNL     1      -0.943  10.489  20.920  0.00  0.00    +0.000 C 
ENDROOT
BRANCH   4  12
ATOM     12  N   UNL     1       2.731  15.158  19.616  0.00  0.00    +0.000 N 
ATOM     13  C   UNL     1       4.168  15.484  19.735  0.00  0.00    +0.000 C 
ATOM     14  C   UNL     1       4.155  17.010  19.484  0.00  0.00    +0.000 C 
ATOM     15  C   UNL     1       2.826  17.422  20.094  0.00  0.00    +0.000 C 
ATOM     16  C   UNL     1       2.061  16.417  19.233  0.00  0.00    +0.000 C 
ATOM     17  C   UNL     1       2.555  16.847  17.841  0.00  0.00    +0.000 C 
ATOM     18  O   UNL     1       3.945  17.244  18.063  0.00  0.00    +0.000 OA
ENDBRANCH   4  12
BRANCH  11  19
ATOM     19  C   UNL     1      -0.363   9.514  21.974  0.00  0.00    +0.000 C 
ATOM     20  F   UNL     1      -0.550   8.216  21.640  0.00  0.00    +0.000 F 
ATOM     21  F   UNL     1       0.976   9.697  22.095  0.00  0.00    +0.000 F 
ATOM     22  F   UNL     1      -0.895   9.695  23.205  0.00  0.00    +0.000 F 
ENDBRANCH  11  19
BRANCH   1  23
ATOM     23  C   UNL     1      -1.040  12.800  21.845  0.00  0.00    +0.000 C 
BRANCH  23  27
ATOM     24  C   UNL     1      -5.362  13.611  19.779  0.00  0.00    +0.000 C 
ATOM     25  N   UNL     1      -4.430  13.226  20.813  0.00  0.00    +0.000 N 
ATOM     26  N   UNL     1      -3.122  13.107  20.513  0.00  0.00    +0.000 NA
ATOM     27  C   UNL     1      -2.541  12.876  21.704  0.00  0.00    +0.000 A 
ATOM     28  C   UNL     1      -3.506  12.713  22.736  0.00  0.00    +0.000 A 
ATOM     29  C   UNL     1      -3.474  12.401  24.109  0.00  0.00    +0.000 A 
ATOM     30  C   UNL     1      -4.677  12.360  24.824  0.00  0.00    +0.000 A 
ATOM     31  C   UNL     1      -5.889  12.641  24.196  0.00  0.00    +0.000 A 
ATOM     32  C   UNL     1      -5.942  12.957  22.835  0.00  0.00    +0.000 A 
ATOM     33  C   UNL     1      -4.732  12.971  22.127  0.00  0.00    +0.000 A 
ENDBRANCH  23  27
ENDBRANCH   1  23
TORSDOF 4
ENDMDL
MODEL 8
REMARK VINA RESULT:      -7.3      5.555      9.383
REMARK  Name = 
REMARK  5 active torsions:
REMARK  status: ('A' for Active; 'I' for Inactive)
REMARK    1  A    between atoms: C_1  and  N_2
REMARK    2  A    between atoms: C_4  and  C_5
REMARK    3  A    between atoms: C_5  and  N_6
REMARK    4  A    between atoms: C_9  and  N_10
REMARK    5  A    between atoms: C_23  and  C_24
REMARK                            x       y       z     vdW  Elec       q    Type
REMARK                         _______ _______ _______ _____ _____    ______ ____
ROOT
ATOM      1  N   UNL     1       0.002  11.978  21.363  0.00  0.00    +0.000 N 
ATOM      2  C   UNL     1       0.936  12.272  20.387  0.00  0.00    +0.000 A 
ATOM      3  N   UNL     1       1.626  13.378  20.457  0.00  0.00    +0.000 NA
ATOM      4  C   UNL     1       2.506  13.713  19.460  0.00  0.00    +0.000 A 
ATOM      5  C   UNL     1       2.731  12.882  18.435  0.00  0.00    +0.000 A 
ATOM      6  C   UNL     1       2.051  11.593  18.370  0.00  0.00    +0.000 A 
ATOM      7  O   UNL     1       2.347  10.798  17.483  0.00  0.00    +0.000 OA
ATOM      8  N   UNL     1       1.103  11.378  19.341  0.00  0.00    +0.000 N 
ATOM      9  C   UNL     1       0.394  10.114  19.297  0.00  0.00    +0.000 C 
ATOM     10  C   UNL     1      -0.948  10.182  19.994  0.00  0.00    +0.000 C 
ATOM     11  C   UNL     1      -0.763  10.717  21.409  0.00  0.00    +0.000 C 
ENDROOT
BRANCH   4  12
ATOM     12  N   UNL     1       3.195  14.920  19.494  0.00  0.00    +0.000 N 
ATOM     13  C   UNL     1       4.522  15.163  18.891  0.00  0.00    +0.000 C 
ATOM     14  C   UNL     1       4.593  16.708  18.923  0.00  0.00    +0.000 C 
ATOM     15  C   UNL     1       3.828  17.035  20.194  0.00  0.00    +0.000 C 
ATOM     16  C   UNL     1       2.603  16.254  19.719  0.00  0.00    +0.000 C 
ATOM     17  C   UNL     1       2.376  16.940  18.360  0.00  0.00    +0.000 C 
ATOM     18  O   UNL     1       3.726  17.233  17.880  0.00  0.00    +0.000 OA
ENDBRANCH   4  12
BRANCH  11  19
ATOM     19  C   UNL     1      -0.147   9.672  22.371  0.00  0.00    +0.000 C 
ATOM     20  F   UNL     1       1.206   9.692  22.364  0.00  0.00    +0.000 F 
ATOM     21  F   UNL     1      -0.534   9.923  23.647  0.00  0.00    +0.000 F 
ATOM     22  F   UNL     1      -0.533   8.407  22.088  0.00  0.00    +0.000 F 
ENDBRANCH  11  19
BRANCH   1  23
ATOM     23  C   UNL     1      -0.437  13.016  22.311  0.00  0.00    +0.000 C 
BRANCH  23  27
ATOM     24  C   UNL     1      -4.044  15.812  20.647  0.00  0.00    +0.000 C 
ATOM     25  N   UNL     1      -3.417  14.766  21.420  0.00  0.00    +0.000 N 
ATOM     26  N   UNL     1      -2.132  14.443  21.175  0.00  0.00    +0.000 NA
ATOM     27  C   UNL     1      -1.837  13.553  22.138  0.00  0.00    +0.000 A 
ATOM     28  C   UNL     1      -2.984  13.212  22.907  0.00  0.00    +0.000 A 
ATOM     29  C   UNL     1      -3.266  12.321  23.960  0.00  0.00    +0.000 A 
ATOM     30  C   UNL     1      -4.559  12.291  24.496  0.00  0.00    +0.000 A 
ATOM     31  C   UNL     1      -5.550  13.143  24.013  0.00  0.00    +0.000 A 
ATOM     32  C   UNL     1      -5.290  14.038  22.971  0.00  0.00    +0.000 A 
ATOM     33  C   UNL     1      -3.997  14.039  22.428  0.00  0.00    +0.000 A 
ENDBRANCH  23  27
ENDBRANCH   1  23
TORSDOF 4
ENDMDL
MODEL 9
REMARK VINA RESULT:      -7.2      6.560      9.349
REMARK  Name = 
REMARK  5 active torsions:
REMARK  status: ('A' for Active; 'I' for Inactive)
REMARK    1  A    between atoms: C_1  and  N_2
REMARK    2  A    between atoms: C_4  and  C_5
REMARK    3  A    between atoms: C_5  and  N_6
REMARK    4  A    between atoms: C_9  and  N_10
REMARK    5  A    between atoms: C_23  and  C_24
REMARK                            x       y       z     vdW  Elec       q    Type
REMARK                         _______ _______ _______ _____ _____    ______ ____
ROOT
ATOM      1  N   UNL     1      -2.700  14.262  21.697  0.00  0.00    +0.000 N 
ATOM      2  C   UNL     1      -3.691  13.545  21.054  0.00  0.00    +0.000 A 
ATOM      3  N   UNL     1      -3.386  12.763  20.054  0.00  0.00    +0.000 NA
ATOM      4  C   UNL     1      -4.368  12.100  19.365  0.00  0.00    +0.000 A 
ATOM      5  C   UNL     1      -5.649  12.181  19.747  0.00  0.00    +0.000 A 
ATOM      6  C   UNL     1      -6.020  12.968  20.919  0.00  0.00    +0.000 A 
ATOM      7  O   UNL     1      -7.180  12.946  21.319  0.00  0.00    +0.000 OA
ATOM      8  N   UNL     1      -5.000  13.693  21.487  0.00  0.00    +0.000 N 
ATOM      9  C   UNL     1      -5.335  14.501  22.643  0.00  0.00    +0.000 C 
ATOM     10  C   UNL     1      -4.364  15.644  22.847  0.00  0.00    +0.000 C 
ATOM     11  C   UNL     1      -2.939  15.105  22.884  0.00  0.00    +0.000 C 
ENDROOT
BRANCH   4  12
ATOM     12  N   UNL     1      -4.059  11.318  18.258  0.00  0.00    +0.000 N 
ATOM     13  C   UNL     1      -4.759  11.364  16.957  0.00  0.00    +0.000 C 
ATOM     14  C   UNL     1      -3.776  10.584  16.055  0.00  0.00    +0.000 C 
ATOM     15  C   UNL     1      -3.203   9.559  17.019  0.00  0.00    +0.000 C 
ATOM     16  C   UNL     1      -2.768  10.649  17.999  0.00  0.00    +0.000 C 
ATOM     17  C   UNL     1      -1.929  11.523  17.050  0.00  0.00    +0.000 C 
ATOM     18  O   UNL     1      -2.632  11.436  15.771  0.00  0.00    +0.000 OA
ENDBRANCH   4  12
BRANCH  11  19
ATOM     19  C   UNL     1      -2.605  14.385  24.214  0.00  0.00    +0.000 C 
ATOM     20  F   UNL     1      -1.273  14.298  24.438  0.00  0.00    +0.000 F 
ATOM     21  F   UNL     1      -3.133  15.067  25.262  0.00  0.00    +0.000 F 
ATOM     22  F   UNL     1      -3.106  13.130  24.272  0.00  0.00    +0.000 F 
ENDBRANCH  11  19
BRANCH   1  23
ATOM     23  C   UNL     1      -1.361  14.388  21.095  0.00  0.00    +0.000 C 
BRANCH  23  27
ATOM     24  C   UNL     1       1.265  11.132  18.625  0.00  0.00    +0.000 C 
ATOM     25  N   UNL     1       0.525  11.680  19.738  0.00  0.00    +0.000 N 
ATOM     26  N   UNL     1       0.144  12.972  19.706  0.00  0.00    +0.000 NA
ATOM     27  C   UNL     1      -0.619  13.106  20.806  0.00  0.00    +0.000 A 
ATOM     28  C   UNL     1      -0.603  11.929  21.603  0.00  0.00    +0.000 A 
ATOM     29  C   UNL     1      -1.146  11.541  22.843  0.00  0.00    +0.000 A 
ATOM     30  C   UNL     1      -0.928  10.237  23.302  0.00  0.00    +0.000 A 
ATOM     31  C   UNL     1      -0.203   9.324  22.537  0.00  0.00    +0.000 A 
ATOM     32  C   UNL     1       0.342   9.688  21.301  0.00  0.00    +0.000 A 
ATOM     33  C   UNL     1       0.135  11.005  20.867  0.00  0.00    +0.000 A 
ENDBRANCH  23  27
ENDBRANCH   1  23
TORSDOF 4
ENDMDL
