MODEL 1
REMARK VINA RESULT:      -7.7      0.000      0.000
REMARK  Name = 
REMARK  6 active torsions:
REMARK  status: ('A' for Active; 'I' for Inactive)
REMARK    1  A    between atoms: C_2  and  O_3
REMARK    2  A    between atoms: C_2  and  C_4
REMARK    3  A    between atoms: C_5  and  C_6
REMARK    4  A    between atoms: N_8  and  C_9
REMARK    5  A    between atoms: C_12  and  N_13
REMARK    6  A    between atoms: N_16  and  C_17
REMARK                            x       y       z     vdW  Elec       q    Type
REMARK                         _______ _______ _______ _____ _____    ______ ____
ROOT
ATOM      1  C   UNL     1       2.612   6.618  18.635  0.00  0.00    +0.000 A 
ATOM      2  C   UNL     1       2.343   7.870  18.087  0.00  0.00    +0.000 A 
ATOM      3  C   UNL     1       1.776   8.893  18.852  0.00  0.00    +0.000 A 
ATOM      4  C   UNL     1       1.432   8.705  20.193  0.00  0.00    +0.000 A 
ATOM      5  C   UNL     1       1.642   7.417  20.714  0.00  0.00    +0.000 A 
ATOM      6  C   UNL     1       2.217   6.383  19.952  0.00  0.00    +0.000 A 
ENDROOT
BRANCH   4   7
ATOM      7  N   UNL     1       0.908   9.740  20.933  0.00  0.00    +0.000 N 
ATOM      8  C   UNL     1       0.375  10.970  20.334  0.00  0.00    +0.000 C 
ATOM      9  C   UNL     1      -1.115  11.151  20.692  0.00  0.00    +0.000 C 
ATOM     10  N   UNL     1      -1.324  11.092  22.161  0.00  0.00    +0.000 N 
ATOM     11  C   UNL     1      -0.758   9.872  22.781  0.00  0.00    +0.000 C 
ATOM     12  C   UNL     1       0.730   9.661  22.399  0.00  0.00    +0.000 C 
BRANCH  10  13
ATOM     13  C   UNL     1      -1.708  12.214  22.871  0.00  0.00    +0.000 A 
ATOM     14  C   UNL     1      -2.968  12.279  23.497  0.00  0.00    +0.000 A 
ATOM     15  C   UNL     1      -3.403  13.410  24.202  0.00  0.00    +0.000 A 
ATOM     16  C   UNL     1      -2.565  14.506  24.322  0.00  0.00    +0.000 A 
ATOM     17 CL   UNL     1      -3.094  15.902  25.173  0.00  0.00    +0.000 Cl
ATOM     18  C   UNL     1      -1.298  14.470  23.756  0.00  0.00    +0.000 A 
ATOM     19  C   UNL     1      -0.880  13.335  23.041  0.00  0.00    +0.000 A 
ENDBRANCH  10  13
ENDBRANCH   4   7
BRANCH   1  22
ATOM     20  C   UNL     1       4.454   5.017  18.294  0.00  0.00    +0.000 C 
ATOM     21  O   UNL     1       5.112   5.250  19.303  0.00  0.00    +0.000 OA
ATOM     22  N   UNL     1       3.266   5.593  17.915  0.00  0.00    +0.000 N 
ATOM     23  H   UNL     1       2.793   5.238  17.095  0.00  0.00    +0.000 HD
BRANCH  20  25
ATOM     24  C   UNL     1       5.798   4.326  16.355  0.00  0.00    +0.000 C 
ATOM     25  C   UNL     1       4.979   4.004  17.367  0.00  0.00    +0.000 C 
BRANCH  24  27
ATOM     26  O   UNL     1       5.441   6.287  15.148  0.00  0.00    +0.000 OA
ATOM     27  C   UNL     1       6.226   5.634  15.816  0.00  0.00    +0.000 C 
BRANCH  27  28
ATOM     28  O   UNL     1       7.461   6.074  16.085  0.00  0.00    +0.000 OA
ATOM     29  H   UNL     1       7.721   6.068  17.036  0.00  0.00    +0.000 HD
ENDBRANCH  27  28
ENDBRANCH  24  27
ENDBRANCH  20  25
ENDBRANCH   1  22
TORSDOF 6
ENDMDL
MODEL 2
REMARK VINA RESULT:      -7.6      0.346      1.459
REMARK  Name = 
REMARK  6 active torsions:
REMARK  status: ('A' for Active; 'I' for Inactive)
REMARK    1  A    between atoms: C_2  and  O_3
REMARK    2  A    between atoms: C_2  and  C_4
REMARK    3  A    between atoms: C_5  and  C_6
REMARK    4  A    between atoms: N_8  and  C_9
REMARK    5  A    between atoms: C_12  and  N_13
REMARK    6  A    between atoms: N_16  and  C_17
REMARK                            x       y       z     vdW  Elec       q    Type
REMARK                         _______ _______ _______ _____ _____    ______ ____
ROOT
ATOM      1  C   UNL     1       2.513   6.735  18.584  0.00  0.00    +0.000 A 
ATOM      2  C   UNL     1       2.204   6.576  19.934  0.00  0.00    +0.000 A 
ATOM      3  C   UNL     1       1.671   7.625  20.687  0.00  0.00    +0.000 A 
ATOM      4  C   UNL     1       1.443   8.887  20.133  0.00  0.00    +0.000 A 
ATOM      5  C   UNL     1       1.825   9.057  18.793  0.00  0.00    +0.000 A 
ATOM      6  C   UNL     1       2.357   8.004  18.025  0.00  0.00    +0.000 A 
ENDROOT
BRANCH   4   7
ATOM      7  N   UNL     1       0.884   9.892  20.890  0.00  0.00    +0.000 N 
ATOM      8  C   UNL     1       0.296  11.106  20.310  0.00  0.00    +0.000 C 
ATOM      9  C   UNL     1      -1.196  11.222  20.684  0.00  0.00    +0.000 C 
ATOM     10  N   UNL     1      -1.389  11.139  22.154  0.00  0.00    +0.000 N 
ATOM     11  C   UNL     1      -0.767   9.937  22.755  0.00  0.00    +0.000 C 
ATOM     12  C   UNL     1       0.725   9.790  22.356  0.00  0.00    +0.000 C 
BRANCH  10  13
ATOM     13  C   UNL     1      -1.811  12.236  22.880  0.00  0.00    +0.000 A 
ATOM     14  C   UNL     1      -0.965  13.345  23.075  0.00  0.00    +0.000 A 
ATOM     15  C   UNL     1      -1.347  14.463  23.828  0.00  0.00    +0.000 A 
ATOM     16  C   UNL     1      -2.612  14.510  24.389  0.00  0.00    +0.000 A 
ATOM     17 CL   UNL     1      -3.086  15.871  25.326  0.00  0.00    +0.000 Cl
ATOM     18  C   UNL     1      -3.494  13.458  24.189  0.00  0.00    +0.000 A 
ATOM     19  C   UNL     1      -3.094  12.338  23.442  0.00  0.00    +0.000 A 
ENDBRANCH  10  13
ENDBRANCH   4   7
BRANCH   1  22
ATOM     20  C   UNL     1       4.191   5.063  17.908  0.00  0.00    +0.000 C 
ATOM     21  O   UNL     1       5.055   5.293  18.747  0.00  0.00    +0.000 OA
ATOM     22  N   UNL     1       2.967   5.672  17.773  0.00  0.00    +0.000 N 
ATOM     23  H   UNL     1       2.320   5.316  17.082  0.00  0.00    +0.000 HD
BRANCH  20  25
ATOM     24  C   UNL     1       5.348   4.196  15.919  0.00  0.00    +0.000 C 
ATOM     25  C   UNL     1       4.475   4.011  16.920  0.00  0.00    +0.000 C 
BRANCH  24  27
ATOM     26  O   UNL     1       7.278   5.373  15.354  0.00  0.00    +0.000 OA
ATOM     27  C   UNL     1       6.061   5.401  15.448  0.00  0.00    +0.000 C 
BRANCH  27  28
ATOM     28  O   UNL     1       5.354   6.491  15.126  0.00  0.00    +0.000 OA
ATOM     29  H   UNL     1       5.061   6.548  14.186  0.00  0.00    +0.000 HD
ENDBRANCH  27  28
ENDBRANCH  24  27
ENDBRANCH  20  25
ENDBRANCH   1  22
TORSDOF 6
ENDMDL
MODEL 3
REMARK VINA RESULT:      -7.4      1.567      2.185
REMARK  Name = 
REMARK  6 active torsions:
REMARK  status: ('A' for Active; 'I' for Inactive)
REMARK    1  A    between atoms: C_2  and  O_3
REMARK    2  A    between atoms: C_2  and  C_4
REMARK    3  A    between atoms: C_5  and  C_6
REMARK    4  A    between atoms: N_8  and  C_9
REMARK    5  A    between atoms: C_12  and  N_13
REMARK    6  A    between atoms: N_16  and  C_17
REMARK                            x       y       z     vdW  Elec       q    Type
REMARK                         _______ _______ _______ _____ _____    ______ ____
ROOT
ATOM      1  C   UNL     1       2.388   6.946  18.743  0.00  0.00    +0.000 A 
ATOM      2  C   UNL     1       2.043   8.171  18.177  0.00  0.00    +0.000 A 
ATOM      3  C   UNL     1       1.496   9.201  18.947  0.00  0.00    +0.000 A 
ATOM      4  C   UNL     1       1.247   9.046  20.313  0.00  0.00    +0.000 A 
ATOM      5  C   UNL     1       1.532   7.783  20.858  0.00  0.00    +0.000 A 
ATOM      6  C   UNL     1       2.088   6.743  20.090  0.00  0.00    +0.000 A 
ENDROOT
BRANCH   4   7
ATOM      7  N   UNL     1       0.740  10.089  21.054  0.00  0.00    +0.000 N 
ATOM      8  C   UNL     1       0.228  11.329  20.458  0.00  0.00    +0.000 C 
ATOM      9  C   UNL     1      -1.258  11.534  20.816  0.00  0.00    +0.000 C 
ATOM     10  N   UNL     1      -1.470  11.476  22.284  0.00  0.00    +0.000 N 
ATOM     11  C   UNL     1      -0.924  10.246  22.902  0.00  0.00    +0.000 C 
ATOM     12  C   UNL     1       0.561  10.010  22.520  0.00  0.00    +0.000 C 
BRANCH  10  13
ATOM     13  C   UNL     1      -1.835  12.603  22.996  0.00  0.00    +0.000 A 
ATOM     14  C   UNL     1      -0.952  13.692  23.131  0.00  0.00    +0.000 A 
ATOM     15  C   UNL     1      -1.276  14.839  23.868  0.00  0.00    +0.000 A 
ATOM     16  C   UNL     1      -2.518  14.936  24.473  0.00  0.00    +0.000 A 
ATOM     17 CL   UNL     1      -2.921  16.333  25.390  0.00  0.00    +0.000 Cl
ATOM     18  C   UNL     1      -3.436  13.904  24.332  0.00  0.00    +0.000 A 
ATOM     19  C   UNL     1      -3.093  12.755  23.601  0.00  0.00    +0.000 A 
ENDBRANCH  10  13
ENDBRANCH   4   7
BRANCH   1  22
ATOM     20  C   UNL     1       2.474   4.684  17.771  0.00  0.00    +0.000 C 
ATOM     21  O   UNL     1       1.362   4.282  18.095  0.00  0.00    +0.000 OA
ATOM     22  N   UNL     1       3.025   5.918  18.013  0.00  0.00    +0.000 N 
ATOM     23  H   UNL     1       3.926   6.137  17.608  0.00  0.00    +0.000 HD
BRANCH  20  25
ATOM     24  C   UNL     1       4.356   3.107  17.624  0.00  0.00    +0.000 C 
ATOM     25  C   UNL     1       3.338   3.750  17.033  0.00  0.00    +0.000 C 
BRANCH  24  27
ATOM     26  O   UNL     1       5.488   4.305  19.271  0.00  0.00    +0.000 OA
ATOM     27  C   UNL     1       4.960   3.248  18.965  0.00  0.00    +0.000 C 
BRANCH  27  28
ATOM     28  O   UNL     1       4.901   2.216  19.816  0.00  0.00    +0.000 OA
ATOM     29  H   UNL     1       5.356   2.348  20.681  0.00  0.00    +0.000 HD
ENDBRANCH  27  28
ENDBRANCH  24  27
ENDBRANCH  20  25
ENDBRANCH   1  22
TORSDOF 6
ENDMDL
MODEL 4
REMARK VINA RESULT:      -7.4      2.005      2.462
REMARK  Name = 
REMARK  6 active torsions:
REMARK  status: ('A' for Active; 'I' for Inactive)
REMARK    1  A    between atoms: C_2  and  O_3
REMARK    2  A    between atoms: C_2  and  C_4
REMARK    3  A    between atoms: C_5  and  C_6
REMARK    4  A    between atoms: N_8  and  C_9
REMARK    5  A    between atoms: C_12  and  N_13
REMARK    6  A    between atoms: N_16  and  C_17
REMARK                            x       y       z     vdW  Elec       q    Type
REMARK                         _______ _______ _______ _____ _____    ______ ____
ROOT
ATOM      1  C   UNL     1       2.470   7.015  18.796  0.00  0.00    +0.000 A 
ATOM      2  C   UNL     1       2.068   8.214  18.211  0.00  0.00    +0.000 A 
ATOM      3  C   UNL     1       1.479   9.231  18.968  0.00  0.00    +0.000 A 
ATOM      4  C   UNL     1       1.245   9.088  20.338  0.00  0.00    +0.000 A 
ATOM      5  C   UNL     1       1.588   7.849  20.901  0.00  0.00    +0.000 A 
ATOM      6  C   UNL     1       2.187   6.821  20.148  0.00  0.00    +0.000 A 
ENDROOT
BRANCH   4   7
ATOM      7  N   UNL     1       0.695  10.119  21.064  0.00  0.00    +0.000 N 
ATOM      8  C   UNL     1       0.075  11.299  20.449  0.00  0.00    +0.000 C 
ATOM      9  C   UNL     1      -1.407  11.415  20.861  0.00  0.00    +0.000 C 
ATOM     10  N   UNL     1      -1.556  11.395  22.338  0.00  0.00    +0.000 N 
ATOM     11  C   UNL     1      -0.902  10.228  22.973  0.00  0.00    +0.000 C 
ATOM     12  C   UNL     1       0.579  10.081  22.538  0.00  0.00    +0.000 C 
BRANCH  10  13
ATOM     13  C   UNL     1      -1.971  12.519  23.027  0.00  0.00    +0.000 A 
ATOM     14  C   UNL     1      -3.274  12.605  23.555  0.00  0.00    +0.000 A 
ATOM     15  C   UNL     1      -3.740  13.738  24.234  0.00  0.00    +0.000 A 
ATOM     16  C   UNL     1      -2.892  14.816  24.429  0.00  0.00    +0.000 A 
ATOM     17 CL   UNL     1      -3.457  16.217  25.250  0.00  0.00    +0.000 Cl
ATOM     18  C   UNL     1      -1.586  14.758  23.962  0.00  0.00    +0.000 A 
ATOM     19  C   UNL     1      -1.137  13.621  23.272  0.00  0.00    +0.000 A 
ENDBRANCH  10  13
ENDBRANCH   4   7
BRANCH   1  22
ATOM     20  C   UNL     1       2.586   4.812  17.699  0.00  0.00    +0.000 C 
ATOM     21  O   UNL     1       1.429   4.441  17.870  0.00  0.00    +0.000 OA
ATOM     22  N   UNL     1       3.150   6.005  18.079  0.00  0.00    +0.000 N 
ATOM     23  H   UNL     1       4.099   6.208  17.793  0.00  0.00    +0.000 HD
BRANCH  20  25
ATOM     24  C   UNL     1       3.725   2.645  17.461  0.00  0.00    +0.000 C 
ATOM     25  C   UNL     1       3.494   3.886  17.006  0.00  0.00    +0.000 C 
BRANCH  24  27
ATOM     26  O   UNL     1       4.159   1.876  19.617  0.00  0.00    +0.000 OA
ATOM     27  C   UNL     1       3.339   1.973  18.719  0.00  0.00    +0.000 C 
BRANCH  27  28
ATOM     28  O   UNL     1       2.094   1.498  18.846  0.00  0.00    +0.000 OA
ATOM     29  H   UNL     1       1.565   1.455  18.015  0.00  0.00    +0.000 HD
ENDBRANCH  27  28
ENDBRANCH  24  27
ENDBRANCH  20  25
ENDBRANCH   1  22
TORSDOF 6
ENDMDL
MODEL 5
REMARK VINA RESULT:      -7.4      1.032      1.965
REMARK  Name = 
REMARK  6 active torsions:
REMARK  status: ('A' for Active; 'I' for Inactive)
REMARK    1  A    between atoms: C_2  and  O_3
REMARK    2  A    between atoms: C_2  and  C_4
REMARK    3  A    between atoms: C_5  and  C_6
REMARK    4  A    between atoms: N_8  and  C_9
REMARK    5  A    between atoms: C_12  and  N_13
REMARK    6  A    between atoms: N_16  and  C_17
REMARK                            x       y       z     vdW  Elec       q    Type
REMARK                         _______ _______ _______ _____ _____    ______ ____
ROOT
ATOM      1  C   UNL     1       2.495   6.990  18.539  0.00  0.00    +0.000 A 
ATOM      2  C   UNL     1       2.085   8.202  17.988  0.00  0.00    +0.000 A 
ATOM      3  C   UNL     1       1.519   9.206  18.778  0.00  0.00    +0.000 A 
ATOM      4  C   UNL     1       1.316   9.037  20.150  0.00  0.00    +0.000 A 
ATOM      5  C   UNL     1       1.666   7.785  20.681  0.00  0.00    +0.000 A 
ATOM      6  C   UNL     1       2.241   6.770  19.893  0.00  0.00    +0.000 A 
ENDROOT
BRANCH   4   7
ATOM      7  N   UNL     1       0.788  10.056  20.909  0.00  0.00    +0.000 N 
ATOM      8  C   UNL     1       0.217  11.280  20.333  0.00  0.00    +0.000 C 
ATOM      9  C   UNL     1      -1.267  11.428  20.727  0.00  0.00    +0.000 C 
ATOM     10  N   UNL     1      -1.441  11.354  22.200  0.00  0.00    +0.000 N 
ATOM     11  C   UNL     1      -0.836  10.142  22.797  0.00  0.00    +0.000 C 
ATOM     12  C   UNL     1       0.647   9.962  22.379  0.00  0.00    +0.000 C 
BRANCH  10  13
ATOM     13  C   UNL     1      -1.830  12.463  22.927  0.00  0.00    +0.000 A 
ATOM     14  C   UNL     1      -0.962  13.558  23.099  0.00  0.00    +0.000 A 
ATOM     15  C   UNL     1      -1.311  14.686  23.853  0.00  0.00    +0.000 A 
ATOM     16  C   UNL     1      -2.564  14.758  24.438  0.00  0.00    +0.000 A 
ATOM     17 CL   UNL     1      -2.996  16.133  25.376  0.00  0.00    +0.000 Cl
ATOM     18  C   UNL     1      -3.467  13.720  24.261  0.00  0.00    +0.000 A 
ATOM     19  C   UNL     1      -3.100  12.589  23.513  0.00  0.00    +0.000 A 
ENDBRANCH  10  13
ENDBRANCH   4   7
BRANCH   1  22
ATOM     20  C   UNL     1       4.407   6.128  17.247  0.00  0.00    +0.000 C 
ATOM     21  O   UNL     1       5.168   7.084  17.350  0.00  0.00    +0.000 OA
ATOM     22  N   UNL     1       3.152   5.990  17.787  0.00  0.00    +0.000 N 
ATOM     23  H   UNL     1       2.673   5.105  17.688  0.00  0.00    +0.000 HD
BRANCH  20  25
ATOM     24  C   UNL     1       4.769   3.720  16.906  0.00  0.00    +0.000 C 
ATOM     25  C   UNL     1       4.875   4.979  16.457  0.00  0.00    +0.000 C 
BRANCH  24  27
ATOM     26  O   UNL     1       3.202   2.904  18.426  0.00  0.00    +0.000 OA
ATOM     27  C   UNL     1       4.374   3.176  18.223  0.00  0.00    +0.000 C 
BRANCH  27  28
ATOM     28  O   UNL     1       5.315   2.984  19.155  0.00  0.00    +0.000 OA
ATOM     29  H   UNL     1       6.089   3.595  19.115  0.00  0.00    +0.000 HD
ENDBRANCH  27  28
ENDBRANCH  24  27
ENDBRANCH  20  25
ENDBRANCH   1  22
TORSDOF 6
ENDMDL
MODEL 6
REMARK VINA RESULT:      -7.4      1.125      2.022
REMARK  Name = 
REMARK  6 active torsions:
REMARK  status: ('A' for Active; 'I' for Inactive)
REMARK    1  A    between atoms: C_2  and  O_3
REMARK    2  A    between atoms: C_2  and  C_4
REMARK    3  A    between atoms: C_5  and  C_6
REMARK    4  A    between atoms: N_8  and  C_9
REMARK    5  A    between atoms: C_12  and  N_13
REMARK    6  A    between atoms: N_16  and  C_17
REMARK                            x       y       z     vdW  Elec       q    Type
REMARK                         _______ _______ _______ _____ _____    ______ ____
ROOT
ATOM      1  C   UNL     1       3.277   6.673  18.477  0.00  0.00    +0.000 A 
ATOM      2  C   UNL     1       2.752   6.507  19.757  0.00  0.00    +0.000 A 
ATOM      3  C   UNL     1       1.862   7.435  20.305  0.00  0.00    +0.000 A 
ATOM      4  C   UNL     1       1.473   8.582  19.609  0.00  0.00    +0.000 A 
ATOM      5  C   UNL     1       2.064   8.775  18.349  0.00  0.00    +0.000 A 
ATOM      6  C   UNL     1       2.957   7.843  17.788  0.00  0.00    +0.000 A 
ENDROOT
BRANCH   4   7
ATOM      7  N   UNL     1       0.568   9.460  20.159  0.00  0.00    +0.000 N 
ATOM      8  C   UNL     1      -0.298   9.121  21.294  0.00  0.00    +0.000 C 
ATOM      9  C   UNL     1      -0.025  10.058  22.489  0.00  0.00    +0.000 C 
ATOM     10  N   UNL     1      -0.138  11.483  22.089  0.00  0.00    +0.000 N 
ATOM     11  C   UNL     1       0.703  11.828  20.921  0.00  0.00    +0.000 C 
ATOM     12  C   UNL     1       0.463  10.870  19.725  0.00  0.00    +0.000 C 
BRANCH  10  13
ATOM     13  C   UNL     1      -1.166  12.276  22.563  0.00  0.00    +0.000 A 
ATOM     14  C   UNL     1      -1.124  13.677  22.423  0.00  0.00    +0.000 A 
ATOM     15  C   UNL     1      -2.133  14.515  22.916  0.00  0.00    +0.000 A 
ATOM     16  C   UNL     1      -3.236  13.962  23.544  0.00  0.00    +0.000 A 
ATOM     17 CL   UNL     1      -4.474  14.983  24.163  0.00  0.00    +0.000 Cl
ATOM     18  C   UNL     1      -3.340  12.584  23.667  0.00  0.00    +0.000 A 
ATOM     19  C   UNL     1      -2.315  11.756  23.181  0.00  0.00    +0.000 A 
ENDBRANCH  10  13
ENDBRANCH   4   7
BRANCH   1  22
ATOM     20  C   UNL     1       3.651   4.545  17.292  0.00  0.00    +0.000 C 
ATOM     21  O   UNL     1       2.489   4.166  17.188  0.00  0.00    +0.000 OA
ATOM     22  N   UNL     1       4.106   5.711  17.859  0.00  0.00    +0.000 N 
ATOM     23  H   UNL     1       5.092   5.930  17.797  0.00  0.00    +0.000 HD
BRANCH  20  25
ATOM     24  C   UNL     1       5.805   4.153  16.174  0.00  0.00    +0.000 C 
ATOM     25  C   UNL     1       4.697   3.665  16.752  0.00  0.00    +0.000 C 
BRANCH  24  27
ATOM     26  O   UNL     1       7.313   5.926  16.048  0.00  0.00    +0.000 OA
ATOM     27  C   UNL     1       6.189   5.527  15.789  0.00  0.00    +0.000 C 
BRANCH  27  28
ATOM     28  O   UNL     1       5.296   6.296  15.153  0.00  0.00    +0.000 OA
ATOM     29  H   UNL     1       4.807   5.863  14.413  0.00  0.00    +0.000 HD
ENDBRANCH  27  28
ENDBRANCH  24  27
ENDBRANCH  20  25
ENDBRANCH   1  22
TORSDOF 6
ENDMDL
MODEL 7
REMARK VINA RESULT:      -7.3      0.953      1.613
REMARK  Name = 
REMARK  6 active torsions:
REMARK  status: ('A' for Active; 'I' for Inactive)
REMARK    1  A    between atoms: C_2  and  O_3
REMARK    2  A    between atoms: C_2  and  C_4
REMARK    3  A    between atoms: C_5  and  C_6
REMARK    4  A    between atoms: N_8  and  C_9
REMARK    5  A    between atoms: C_12  and  N_13
REMARK    6  A    between atoms: N_16  and  C_17
REMARK                            x       y       z     vdW  Elec       q    Type
REMARK                         _______ _______ _______ _____ _____    ______ ____
ROOT
ATOM      1  C   UNL     1       3.197   6.276  18.650  0.00  0.00    +0.000 A 
ATOM      2  C   UNL     1       2.856   7.450  17.982  0.00  0.00    +0.000 A 
ATOM      3  C   UNL     1       1.976   8.379  18.545  0.00  0.00    +0.000 A 
ATOM      4  C   UNL     1       1.380   8.167  19.790  0.00  0.00    +0.000 A 
ATOM      5  C   UNL     1       1.675   6.948  20.422  0.00  0.00    +0.000 A 
ATOM      6  C   UNL     1       2.564   6.009  19.864  0.00  0.00    +0.000 A 
ENDROOT
BRANCH   4   7
ATOM      7  N   UNL     1       0.545   9.114  20.337  0.00  0.00    +0.000 N 
ATOM      8  C   UNL     1      -0.307   8.862  21.505  0.00  0.00    +0.000 C 
ATOM      9  C   UNL     1       0.056   9.816  22.662  0.00  0.00    +0.000 C 
ATOM     10  N   UNL     1       0.016  11.233  22.221  0.00  0.00    +0.000 N 
ATOM     11  C   UNL     1       0.842  11.492  21.020  0.00  0.00    +0.000 C 
ATOM     12  C   UNL     1       0.511  10.515  19.862  0.00  0.00    +0.000 C 
BRANCH  10  13
ATOM     13  C   UNL     1      -0.949  12.100  22.697  0.00  0.00    +0.000 A 
ATOM     14  C   UNL     1      -0.699  13.483  22.791  0.00  0.00    +0.000 A 
ATOM     15  C   UNL     1      -1.641  14.388  23.294  0.00  0.00    +0.000 A 
ATOM     16  C   UNL     1      -2.885  13.930  23.696  0.00  0.00    +0.000 A 
ATOM     17 CL   UNL     1      -4.044  15.031  24.328  0.00  0.00    +0.000 Cl
ATOM     18  C   UNL     1      -3.190  12.581  23.584  0.00  0.00    +0.000 A 
ATOM     19  C   UNL     1      -2.232  11.682  23.089  0.00  0.00    +0.000 A 
ENDBRANCH  10  13
ENDBRANCH   4   7
BRANCH   1  22
ATOM     20  C   UNL     1       5.396   5.166  18.696  0.00  0.00    +0.000 C 
ATOM     21  O   UNL     1       5.868   5.696  19.696  0.00  0.00    +0.000 OA
ATOM     22  N   UNL     1       4.151   5.362  18.150  0.00  0.00    +0.000 N 
ATOM     23  H   UNL     1       3.866   4.787  17.368  0.00  0.00    +0.000 HD
BRANCH  20  25
ATOM     24  C   UNL     1       6.942   4.543  16.889  0.00  0.00    +0.000 C 
ATOM     25  C   UNL     1       6.244   4.201  17.981  0.00  0.00    +0.000 C 
BRANCH  24  27
ATOM     26  O   UNL     1       6.280   5.800  15.041  0.00  0.00    +0.000 OA
ATOM     27  C   UNL     1       6.941   5.771  16.067  0.00  0.00    +0.000 C 
BRANCH  27  28
ATOM     28  O   UNL     1       7.654   6.828  16.477  0.00  0.00    +0.000 OA
ATOM     29  H   UNL     1       8.632   6.702  16.496  0.00  0.00    +0.000 HD
ENDBRANCH  27  28
ENDBRANCH  24  27
ENDBRANCH  20  25
ENDBRANCH   1  22
TORSDOF 6
ENDMDL
MODEL 8
REMARK VINA RESULT:      -7.3      1.332      2.259
REMARK  Name = 
REMARK  6 active torsions:
REMARK  status: ('A' for Active; 'I' for Inactive)
REMARK    1  A    between atoms: C_2  and  O_3
REMARK    2  A    between atoms: C_2  and  C_4
REMARK    3  A    between atoms: C_5  and  C_6
REMARK    4  A    between atoms: N_8  and  C_9
REMARK    5  A    between atoms: C_12  and  N_13
REMARK    6  A    between atoms: N_16  and  C_17
REMARK                            x       y       z     vdW  Elec       q    Type
REMARK                         _______ _______ _______ _____ _____    ______ ____
ROOT
ATOM      1  C   UNL     1       2.445   6.891  18.637  0.00  0.00    +0.000 A 
ATOM      2  C   UNL     1       2.152   8.141  18.096  0.00  0.00    +0.000 A 
ATOM      3  C   UNL     1       1.598   9.160  18.876  0.00  0.00    +0.000 A 
ATOM      4  C   UNL     1       1.291   8.970  20.225  0.00  0.00    +0.000 A 
ATOM      5  C   UNL     1       1.523   7.685  20.741  0.00  0.00    +0.000 A 
ATOM      6  C   UNL     1       2.086   6.654  19.964  0.00  0.00    +0.000 A 
ENDROOT
BRANCH   4   7
ATOM      7  N   UNL     1       0.778  10.002  20.978  0.00  0.00    +0.000 N 
ATOM      8  C   UNL     1       0.239  11.236  20.395  0.00  0.00    +0.000 C 
ATOM      9  C   UNL     1      -1.245  11.417  20.775  0.00  0.00    +0.000 C 
ATOM     10  N   UNL     1      -1.434  11.349  22.246  0.00  0.00    +0.000 N 
ATOM     11  C   UNL     1      -0.860  10.126  22.850  0.00  0.00    +0.000 C 
ATOM     12  C   UNL     1       0.622   9.914  22.446  0.00  0.00    +0.000 C 
BRANCH  10  13
ATOM     13  C   UNL     1      -1.806  12.468  22.968  0.00  0.00    +0.000 A 
ATOM     14  C   UNL     1      -0.940  13.570  23.094  0.00  0.00    +0.000 A 
ATOM     15  C   UNL     1      -1.270  14.709  23.840  0.00  0.00    +0.000 A 
ATOM     16  C   UNL     1      -2.505  14.784  24.464  0.00  0.00    +0.000 A 
ATOM     17 CL   UNL     1      -2.915  16.171  25.393  0.00  0.00    +0.000 Cl
ATOM     18  C   UNL     1      -3.408  13.738  24.332  0.00  0.00    +0.000 A 
ATOM     19  C   UNL     1      -3.058  12.597  23.591  0.00  0.00    +0.000 A 
ENDBRANCH  10  13
ENDBRANCH   4   7
BRANCH   1  22
ATOM     20  C   UNL     1       4.258   5.262  18.281  0.00  0.00    +0.000 C 
ATOM     21  O   UNL     1       4.907   5.456  19.303  0.00  0.00    +0.000 OA
ATOM     22  N   UNL     1       3.087   5.871  17.901  0.00  0.00    +0.000 N 
ATOM     23  H   UNL     1       2.618   5.546  17.066  0.00  0.00    +0.000 HD
BRANCH  20  25
ATOM     24  C   UNL     1       4.142   3.099  17.117  0.00  0.00    +0.000 C 
ATOM     25  C   UNL     1       4.775   4.261  17.336  0.00  0.00    +0.000 C 
BRANCH  24  27
ATOM     26  O   UNL     1       3.165   1.443  18.434  0.00  0.00    +0.000 OA
ATOM     27  C   UNL     1       2.990   2.466  17.792  0.00  0.00    +0.000 C 
BRANCH  27  28
ATOM     28  O   UNL     1       1.784   3.039  17.693  0.00  0.00    +0.000 OA
ATOM     29  H   UNL     1       1.784   4.008  17.509  0.00  0.00    +0.000 HD
ENDBRANCH  27  28
ENDBRANCH  24  27
ENDBRANCH  20  25
ENDBRANCH   1  22
TORSDOF 6
ENDMDL
MODEL 9
REMARK VINA RESULT:      -7.3      2.032      2.405
REMARK  Name = 
REMARK  6 active torsions:
REMARK  status: ('A' for Active; 'I' for Inactive)
REMARK    1  A    between atoms: C_2  and  O_3
REMARK    2  A    between atoms: C_2  and  C_4
REMARK    3  A    between atoms: C_5  and  C_6
REMARK    4  A    between atoms: N_8  and  C_9
REMARK    5  A    between atoms: C_12  and  N_13
REMARK    6  A    between atoms: N_16  and  C_17
REMARK                            x       y       z     vdW  Elec       q    Type
REMARK                         _______ _______ _______ _____ _____    ______ ____
ROOT
ATOM      1  C   UNL     1       2.317   5.905  19.192  0.00  0.00    +0.000 A 
ATOM      2  C   UNL     1       2.399   7.136  18.545  0.00  0.00    +0.000 A 
ATOM      3  C   UNL     1       1.963   8.312  19.161  0.00  0.00    +0.000 A 
ATOM      4  C   UNL     1       1.405   8.309  20.442  0.00  0.00    +0.000 A 
ATOM      5  C   UNL     1       1.261   7.054  21.055  0.00  0.00    +0.000 A 
ATOM      6  C   UNL     1       1.703   5.865  20.444  0.00  0.00    +0.000 A 
ENDROOT
BRANCH   4   7
ATOM      7  N   UNL     1       1.016   9.487  21.038  0.00  0.00    +0.000 N 
ATOM      8  C   UNL     1       0.651  10.692  20.282  0.00  0.00    +0.000 C 
ATOM      9  C   UNL     1      -0.804  11.106  20.583  0.00  0.00    +0.000 C 
ATOM     10  N   UNL     1      -1.028  11.257  22.042  0.00  0.00    +0.000 N 
ATOM     11  C   UNL     1      -0.629  10.061  22.819  0.00  0.00    +0.000 C 
ATOM     12  C   UNL     1       0.821   9.614  22.498  0.00  0.00    +0.000 C 
BRANCH  10  13
ATOM     13  C   UNL     1      -1.266  12.498  22.602  0.00  0.00    +0.000 A 
ATOM     14  C   UNL     1      -2.413  12.733  23.384  0.00  0.00    +0.000 A 
ATOM     15  C   UNL     1      -2.703  13.984  23.943  0.00  0.00    +0.000 A 
ATOM     16  C   UNL     1      -1.824  15.038  23.754  0.00  0.00    +0.000 A 
ATOM     17 CL   UNL     1      -2.177  16.581  24.426  0.00  0.00    +0.000 Cl
ATOM     18  C   UNL     1      -0.660  14.842  23.025  0.00  0.00    +0.000 A 
ATOM     19  C   UNL     1      -0.389  13.586  22.459  0.00  0.00    +0.000 A 
ENDBRANCH  10  13
ENDBRANCH   4   7
BRANCH   1  22
ATOM     20  C   UNL     1       2.141   3.902  17.767  0.00  0.00    +0.000 C 
ATOM     21  O   UNL     1       1.018   4.081  17.306  0.00  0.00    +0.000 OA
ATOM     22  N   UNL     1       2.831   4.712  18.636  0.00  0.00    +0.000 N 
ATOM     23  H   UNL     1       3.788   4.477  18.864  0.00  0.00    +0.000 HD
BRANCH  20  25
ATOM     24  C   UNL     1       3.760   2.090  18.142  0.00  0.00    +0.000 C 
ATOM     25  C   UNL     1       2.852   2.683  17.354  0.00  0.00    +0.000 C 
BRANCH  24  27
ATOM     26  O   UNL     1       3.847   2.197  20.468  0.00  0.00    +0.000 OA
ATOM     27  C   UNL     1       4.379   2.511  19.416  0.00  0.00    +0.000 C 
BRANCH  27  28
ATOM     28  O   UNL     1       5.516   3.217  19.383  0.00  0.00    +0.000 OA
ATOM     29  H   UNL     1       6.142   3.055  20.128  0.00  0.00    +0.000 HD
ENDBRANCH  27  28
ENDBRANCH  24  27
ENDBRANCH  20  25
ENDBRANCH   1  22
TORSDOF 6
ENDMDL
