MODEL 1
REMARK VINA RESULT:      -8.0      0.000      0.000
REMARK  Name = 
REMARK  7 active torsions:
REMARK  status: ('A' for Active; 'I' for Inactive)
REMARK    1  A    between atoms: C_1  and  O_2
REMARK    2  A    between atoms: O_2  and  C_3
REMARK    3  A    between atoms: C_7  and  C_8
REMARK    4  A    between atoms: C_10  and  C_11
REMARK    5  A    between atoms: C_11  and  N_12
REMARK    6  A    between atoms: C_14  and  C_15
REMARK    7  A    between atoms: C_17  and  C_18
REMARK                            x       y       z     vdW  Elec       q    Type
REMARK                         _______ _______ _______ _____ _____    ______ ____
ROOT
ATOM      1  C   UNL     1       6.799   4.957  15.881  0.00  0.00    +0.000 A 
ATOM      2  N   UNL     1       5.721   5.209  16.596  0.00  0.00    +0.000 NA
ATOM      3  C   UNL     1       6.068   4.858  17.878  0.00  0.00    +0.000 A 
ATOM      4  C   UNL     1       7.408   4.549  17.912  0.00  0.00    +0.000 A 
ATOM      5  O   UNL     1       7.891   4.601  16.628  0.00  0.00    +0.000 OA
ENDROOT
BRANCH   1  10
ATOM      6  C   UNL     1       6.030   3.505  12.519  0.00  0.00    +0.000 A 
ATOM      7  C   UNL     1       6.981   4.125  11.711  0.00  0.00    +0.000 A 
ATOM      8  C   UNL     1       7.846   5.089  12.242  0.00  0.00    +0.000 A 
ATOM      9  C   UNL     1       7.782   5.424  13.599  0.00  0.00    +0.000 A 
ATOM     10  C   UNL     1       6.849   4.798  14.429  0.00  0.00    +0.000 A 
ATOM     11  C   UNL     1       5.959   3.861  13.863  0.00  0.00    +0.000 A 
BRANCH   6  13
ATOM     12  C   UNL     1       4.109   3.040  11.204  0.00  0.00    +0.000 C 
ATOM     13  O   UNL     1       5.251   2.561  11.910  0.00  0.00    +0.000 OA
ENDBRANCH   6  13
ENDBRANCH   1  10
BRANCH   3  14
ATOM     14  C   UNL     1       4.970   4.656  18.870  0.00  0.00    +0.000 C 
BRANCH  14  15
ATOM     15  N   UNL     1       3.612   4.599  18.309  0.00  0.00    +0.000 NA
ATOM     16  C   UNL     1       2.740   3.606  18.987  0.00  0.00    +0.000 C 
ATOM     17  C   UNL     1       2.336   3.980  20.436  0.00  0.00    +0.000 C 
ATOM     18  C   UNL     1       1.323   2.989  20.995  0.00  0.00    +0.000 C 
ATOM     19  O   UNL     1       1.732   5.284  20.488  0.00  0.00    +0.000 OA
ATOM     20  C   UNL     1       2.606   6.281  19.938  0.00  0.00    +0.000 C 
ATOM     21  C   UNL     1       1.908   7.630  20.039  0.00  0.00    +0.000 C 
ATOM     22  C   UNL     1       2.964   5.932  18.472  0.00  0.00    +0.000 C 
ENDBRANCH  14  15
ENDBRANCH   3  14
TORSDOF 4
ENDMDL
MODEL 2
REMARK VINA RESULT:      -8.0      1.286      1.461
REMARK  Name = 
REMARK  7 active torsions:
REMARK  status: ('A' for Active; 'I' for Inactive)
REMARK    1  A    between atoms: C_1  and  O_2
REMARK    2  A    between atoms: O_2  and  C_3
REMARK    3  A    between atoms: C_7  and  C_8
REMARK    4  A    between atoms: C_10  and  C_11
REMARK    5  A    between atoms: C_11  and  N_12
REMARK    6  A    between atoms: C_14  and  C_15
REMARK    7  A    between atoms: C_17  and  C_18
REMARK                            x       y       z     vdW  Elec       q    Type
REMARK                         _______ _______ _______ _____ _____    ______ ____
ROOT
ATOM      1  C   UNL     1       6.879   4.892  15.994  0.00  0.00    +0.000 A 
ATOM      2  N   UNL     1       5.809   5.040  16.750  0.00  0.00    +0.000 NA
ATOM      3  C   UNL     1       6.227   4.686  18.010  0.00  0.00    +0.000 A 
ATOM      4  C   UNL     1       7.587   4.483  17.992  0.00  0.00    +0.000 A 
ATOM      5  O   UNL     1       8.020   4.606  16.695  0.00  0.00    +0.000 OA
ENDROOT
BRANCH   1  10
ATOM      6  C   UNL     1       6.038   3.522  12.615  0.00  0.00    +0.000 A 
ATOM      7  C   UNL     1       6.957   4.179  11.799  0.00  0.00    +0.000 A 
ATOM      8  C   UNL     1       7.822   5.142  12.333  0.00  0.00    +0.000 A 
ATOM      9  C   UNL     1       7.791   5.438  13.700  0.00  0.00    +0.000 A 
ATOM     10  C   UNL     1       6.891   4.774  14.537  0.00  0.00    +0.000 A 
ATOM     11  C   UNL     1       5.999   3.840  13.969  0.00  0.00    +0.000 A 
BRANCH   6  13
ATOM     12  C   UNL     1       4.148   3.073  11.249  0.00  0.00    +0.000 C 
ATOM     13  O   UNL     1       5.256   2.583  12.001  0.00  0.00    +0.000 OA
ENDBRANCH   6  13
ENDBRANCH   1  10
BRANCH   3  14
ATOM     14  C   UNL     1       5.183   4.372  19.031  0.00  0.00    +0.000 C 
BRANCH  14  15
ATOM     15  N   UNL     1       4.484   3.091  18.850  0.00  0.00    +0.000 NA
ATOM     16  C   UNL     1       3.873   2.577  20.102  0.00  0.00    +0.000 C 
ATOM     17  C   UNL     1       2.656   3.391  20.611  0.00  0.00    +0.000 C 
ATOM     18  C   UNL     1       2.000   2.707  21.805  0.00  0.00    +0.000 C 
ATOM     19  O   UNL     1       1.653   3.523  19.589  0.00  0.00    +0.000 OA
ATOM     20  C   UNL     1       2.197   4.123  18.405  0.00  0.00    +0.000 C 
ATOM     21  C   UNL     1       1.080   4.242  17.378  0.00  0.00    +0.000 C 
ATOM     22  C   UNL     1       3.378   3.277  17.868  0.00  0.00    +0.000 C 
ENDBRANCH  14  15
ENDBRANCH   3  14
TORSDOF 4
ENDMDL
MODEL 3
REMARK VINA RESULT:      -7.6      0.905      1.984
REMARK  Name = 
REMARK  7 active torsions:
REMARK  status: ('A' for Active; 'I' for Inactive)
REMARK    1  A    between atoms: C_1  and  O_2
REMARK    2  A    between atoms: O_2  and  C_3
REMARK    3  A    between atoms: C_7  and  C_8
REMARK    4  A    between atoms: C_10  and  C_11
REMARK    5  A    between atoms: C_11  and  N_12
REMARK    6  A    between atoms: C_14  and  C_15
REMARK    7  A    between atoms: C_17  and  C_18
REMARK                            x       y       z     vdW  Elec       q    Type
REMARK                         _______ _______ _______ _____ _____    ______ ____
ROOT
ATOM      1  C   UNL     1       6.501   4.741  15.812  0.00  0.00    +0.000 A 
ATOM      2  N   UNL     1       5.413   4.440  16.493  0.00  0.00    +0.000 NA
ATOM      3  C   UNL     1       5.849   4.283  17.786  0.00  0.00    +0.000 A 
ATOM      4  C   UNL     1       7.172   4.649  17.862  0.00  0.00    +0.000 A 
ATOM      5  O   UNL     1       7.608   4.940  16.594  0.00  0.00    +0.000 OA
ENDROOT
BRANCH   1  10
ATOM      6  C   UNL     1       5.962   3.456  12.340  0.00  0.00    +0.000 A 
ATOM      7  C   UNL     1       6.991   4.080  11.637  0.00  0.00    +0.000 A 
ATOM      8  C   UNL     1       7.836   4.994  12.276  0.00  0.00    +0.000 A 
ATOM      9  C   UNL     1       7.674   5.274  13.637  0.00  0.00    +0.000 A 
ATOM     10  C   UNL     1       6.661   4.642  14.363  0.00  0.00    +0.000 A 
ATOM     11  C   UNL     1       5.794   3.757  13.688  0.00  0.00    +0.000 A 
BRANCH   6  13
ATOM     12  C   UNL     1       3.967   3.043  11.121  0.00  0.00    +0.000 C 
ATOM     13  O   UNL     1       5.208   2.563  11.630  0.00  0.00    +0.000 OA
ENDBRANCH   6  13
ENDBRANCH   1  10
BRANCH   3  14
ATOM     14  C   UNL     1       4.952   3.570  18.745  0.00  0.00    +0.000 C 
BRANCH  14  15
ATOM     15  N   UNL     1       4.380   4.400  19.815  0.00  0.00    +0.000 NA
ATOM     16  C   UNL     1       4.009   5.764  19.362  0.00  0.00    +0.000 C 
ATOM     17  C   UNL     1       2.792   5.820  18.403  0.00  0.00    +0.000 C 
ATOM     18  C   UNL     1       2.387   7.260  18.114  0.00  0.00    +0.000 C 
ATOM     19  O   UNL     1       1.649   5.160  18.973  0.00  0.00    +0.000 OA
ATOM     20  C   UNL     1       1.954   3.801  19.318  0.00  0.00    +0.000 C 
ATOM     21  C   UNL     1       0.699   3.166  19.901  0.00  0.00    +0.000 C 
ATOM     22  C   UNL     1       3.136   3.753  20.319  0.00  0.00    +0.000 C 
ENDBRANCH  14  15
ENDBRANCH   3  14
TORSDOF 4
ENDMDL
MODEL 4
REMARK VINA RESULT:      -7.6      1.226      1.703
REMARK  Name = 
REMARK  7 active torsions:
REMARK  status: ('A' for Active; 'I' for Inactive)
REMARK    1  A    between atoms: C_1  and  O_2
REMARK    2  A    between atoms: O_2  and  C_3
REMARK    3  A    between atoms: C_7  and  C_8
REMARK    4  A    between atoms: C_10  and  C_11
REMARK    5  A    between atoms: C_11  and  N_12
REMARK    6  A    between atoms: C_14  and  C_15
REMARK    7  A    between atoms: C_17  and  C_18
REMARK                            x       y       z     vdW  Elec       q    Type
REMARK                         _______ _______ _______ _____ _____    ______ ____
ROOT
ATOM      1  C   UNL     1       6.896   5.082  15.557  0.00  0.00    +0.000 A 
ATOM      2  N   UNL     1       5.934   5.697  16.215  0.00  0.00    +0.000 NA
ATOM      3  C   UNL     1       6.145   5.360  17.529  0.00  0.00    +0.000 A 
ATOM      4  C   UNL     1       7.331   4.669  17.631  0.00  0.00    +0.000 A 
ATOM      5  O   UNL     1       7.822   4.476  16.364  0.00  0.00    +0.000 OA
ENDROOT
BRANCH   1  10
ATOM      6  C   UNL     1       6.146   3.290  12.359  0.00  0.00    +0.000 A 
ATOM      7  C   UNL     1       7.015   3.914  11.466  0.00  0.00    +0.000 A 
ATOM      8  C   UNL     1       7.811   4.987  11.881  0.00  0.00    +0.000 A 
ATOM      9  C   UNL     1       7.763   5.431  13.208  0.00  0.00    +0.000 A 
ATOM     10  C   UNL     1       6.913   4.804  14.122  0.00  0.00    +0.000 A 
ATOM     11  C   UNL     1       6.088   3.752  13.670  0.00  0.00    +0.000 A 
BRANCH   6  13
ATOM     12  C   UNL     1       6.163   1.267  11.115  0.00  0.00    +0.000 C 
ATOM     13  O   UNL     1       5.430   2.236  11.860  0.00  0.00    +0.000 OA
ENDBRANCH   6  13
ENDBRANCH   1  10
BRANCH   3  14
ATOM     14  C   UNL     1       5.025   5.571  18.495  0.00  0.00    +0.000 C 
BRANCH  14  15
ATOM     15  N   UNL     1       3.701   5.124  18.038  0.00  0.00    +0.000 NA
ATOM     16  C   UNL     1       3.687   3.713  17.577  0.00  0.00    +0.000 C 
ATOM     17  C   UNL     1       3.868   2.661  18.701  0.00  0.00    +0.000 C 
ATOM     18  C   UNL     1       3.686   1.247  18.164  0.00  0.00    +0.000 C 
ATOM     19  O   UNL     1       2.902   2.848  19.750  0.00  0.00    +0.000 OA
ATOM     20  C   UNL     1       2.974   4.176  20.288  0.00  0.00    +0.000 C 
ATOM     21  C   UNL     1       1.936   4.295  21.396  0.00  0.00    +0.000 C 
ATOM     22  C   UNL     1       2.738   5.223  19.171  0.00  0.00    +0.000 C 
ENDBRANCH  14  15
ENDBRANCH   3  14
TORSDOF 4
ENDMDL
MODEL 5
REMARK VINA RESULT:      -7.1      2.154      8.147
REMARK  Name = 
REMARK  7 active torsions:
REMARK  status: ('A' for Active; 'I' for Inactive)
REMARK    1  A    between atoms: C_1  and  O_2
REMARK    2  A    between atoms: O_2  and  C_3
REMARK    3  A    between atoms: C_7  and  C_8
REMARK    4  A    between atoms: C_10  and  C_11
REMARK    5  A    between atoms: C_11  and  N_12
REMARK    6  A    between atoms: C_14  and  C_15
REMARK    7  A    between atoms: C_17  and  C_18
REMARK                            x       y       z     vdW  Elec       q    Type
REMARK                         _______ _______ _______ _____ _____    ______ ____
ROOT
ATOM      1  C   UNL     1       2.432   6.499  19.323  0.00  0.00    +0.000 A 
ATOM      2  N   UNL     1       2.570   6.083  18.080  0.00  0.00    +0.000 NA
ATOM      3  C   UNL     1       3.486   5.063  18.157  0.00  0.00    +0.000 A 
ATOM      4  C   UNL     1       3.753   4.799  19.481  0.00  0.00    +0.000 A 
ATOM      5  O   UNL     1       3.085   5.723  20.244  0.00  0.00    +0.000 OA
ENDROOT
BRANCH   1  10
ATOM      6  C   UNL     1       0.783   9.004  21.560  0.00  0.00    +0.000 A 
ATOM      7  C   UNL     1       0.517  10.050  20.678  0.00  0.00    +0.000 A 
ATOM      8  C   UNL     1       0.942   9.983  19.347  0.00  0.00    +0.000 A 
ATOM      9  C   UNL     1       1.618   8.850  18.877  0.00  0.00    +0.000 A 
ATOM     10  C   UNL     1       1.875   7.784  19.742  0.00  0.00    +0.000 A 
ATOM     11  C   UNL     1       1.475   7.892  21.090  0.00  0.00    +0.000 A 
BRANCH   6  13
ATOM     12  C   UNL     1      -0.651  10.197  23.029  0.00  0.00    +0.000 C 
ATOM     13  O   UNL     1       0.304   9.158  22.832  0.00  0.00    +0.000 OA
ENDBRANCH   6  13
ENDBRANCH   1  10
BRANCH   3  14
ATOM     14  C   UNL     1       4.156   4.626  16.896  0.00  0.00    +0.000 C 
BRANCH  14  15
ATOM     15  N   UNL     1       5.528   4.120  17.049  0.00  0.00    +0.000 NA
ATOM     16  C   UNL     1       6.190   3.824  15.754  0.00  0.00    +0.000 C 
ATOM     17  C   UNL     1       6.537   5.071  14.902  0.00  0.00    +0.000 C 
ATOM     18  C   UNL     1       7.348   4.686  13.671  0.00  0.00    +0.000 C 
ATOM     19  O   UNL     1       7.322   6.013  15.654  0.00  0.00    +0.000 OA
ATOM     20  C   UNL     1       6.649   6.401  16.860  0.00  0.00    +0.000 C 
ATOM     21  C   UNL     1       7.530   7.403  17.593  0.00  0.00    +0.000 C 
ATOM     22  C   UNL     1       6.353   5.156  17.734  0.00  0.00    +0.000 C 
ENDBRANCH  14  15
ENDBRANCH   3  14
TORSDOF 4
ENDMDL
MODEL 6
REMARK VINA RESULT:      -7.0      1.300      2.009
REMARK  Name = 
REMARK  7 active torsions:
REMARK  status: ('A' for Active; 'I' for Inactive)
REMARK    1  A    between atoms: C_1  and  O_2
REMARK    2  A    between atoms: O_2  and  C_3
REMARK    3  A    between atoms: C_7  and  C_8
REMARK    4  A    between atoms: C_10  and  C_11
REMARK    5  A    between atoms: C_11  and  N_12
REMARK    6  A    between atoms: C_14  and  C_15
REMARK    7  A    between atoms: C_17  and  C_18
REMARK                            x       y       z     vdW  Elec       q    Type
REMARK                         _______ _______ _______ _____ _____    ______ ____
ROOT
ATOM      1  C   UNL     1       6.876   5.104  15.590  0.00  0.00    +0.000 A 
ATOM      2  N   UNL     1       5.922   5.740  16.241  0.00  0.00    +0.000 NA
ATOM      3  C   UNL     1       6.121   5.404  17.557  0.00  0.00    +0.000 A 
ATOM      4  C   UNL     1       7.293   4.692  17.668  0.00  0.00    +0.000 A 
ATOM      5  O   UNL     1       7.787   4.485  16.404  0.00  0.00    +0.000 OA
ENDROOT
BRANCH   1  10
ATOM      6  C   UNL     1       6.104   3.317  12.394  0.00  0.00    +0.000 A 
ATOM      7  C   UNL     1       6.993   3.918  11.505  0.00  0.00    +0.000 A 
ATOM      8  C   UNL     1       7.811   4.974  11.921  0.00  0.00    +0.000 A 
ATOM      9  C   UNL     1       7.765   5.424  13.245  0.00  0.00    +0.000 A 
ATOM     10  C   UNL     1       6.896   4.820  14.157  0.00  0.00    +0.000 A 
ATOM     11  C   UNL     1       6.049   3.787  13.703  0.00  0.00    +0.000 A 
BRANCH   6  13
ATOM     12  C   UNL     1       6.089   1.267  11.198  0.00  0.00    +0.000 C 
ATOM     13  O   UNL     1       5.368   2.279  11.895  0.00  0.00    +0.000 OA
ENDBRANCH   6  13
ENDBRANCH   1  10
BRANCH   3  14
ATOM     14  C   UNL     1       5.000   5.639  18.517  0.00  0.00    +0.000 C 
BRANCH  14  15
ATOM     15  N   UNL     1       4.704   4.526  19.431  0.00  0.00    +0.000 NA
ATOM     16  C   UNL     1       3.534   4.784  20.307  0.00  0.00    +0.000 C 
ATOM     17  C   UNL     1       2.168   4.801  19.575  0.00  0.00    +0.000 C 
ATOM     18  C   UNL     1       1.016   4.916  20.567  0.00  0.00    +0.000 C 
ATOM     19  O   UNL     1       1.965   3.592  18.822  0.00  0.00    +0.000 OA
ATOM     20  C   UNL     1       3.032   3.380  17.887  0.00  0.00    +0.000 C 
ATOM     21  C   UNL     1       2.744   2.096  17.122  0.00  0.00    +0.000 C 
ATOM     22  C   UNL     1       4.391   3.309  18.629  0.00  0.00    +0.000 C 
ENDBRANCH  14  15
ENDBRANCH   3  14
TORSDOF 4
ENDMDL
MODEL 7
REMARK VINA RESULT:      -7.0      4.085      8.578
REMARK  Name = 
REMARK  7 active torsions:
REMARK  status: ('A' for Active; 'I' for Inactive)
REMARK    1  A    between atoms: C_1  and  O_2
REMARK    2  A    between atoms: O_2  and  C_3
REMARK    3  A    between atoms: C_7  and  C_8
REMARK    4  A    between atoms: C_10  and  C_11
REMARK    5  A    between atoms: C_11  and  N_12
REMARK    6  A    between atoms: C_14  and  C_15
REMARK    7  A    between atoms: C_17  and  C_18
REMARK                            x       y       z     vdW  Elec       q    Type
REMARK                         _______ _______ _______ _____ _____    ______ ____
ROOT
ATOM      1  C   UNL     1       1.180   9.416  18.780  0.00  0.00    +0.000 A 
ATOM      2  N   UNL     1       1.638   8.410  19.498  0.00  0.00    +0.000 NA
ATOM      3  C   UNL     1       2.498   7.749  18.657  0.00  0.00    +0.000 A 
ATOM      4  C   UNL     1       2.645   8.478  17.500  0.00  0.00    +0.000 A 
ATOM      5  O   UNL     1       1.794   9.553  17.563  0.00  0.00    +0.000 OA
ENDROOT
BRANCH   1  10
ATOM      6  C   UNL     1      -2.048  11.182  18.103  0.00  0.00    +0.000 A 
ATOM      7  C   UNL     1      -2.250  11.882  19.291  0.00  0.00    +0.000 A 
ATOM      8  C   UNL     1      -1.367  11.729  20.366  0.00  0.00    +0.000 A 
ATOM      9  C   UNL     1      -0.254  10.888  20.251  0.00  0.00    +0.000 A 
ATOM     10  C   UNL     1      -0.024  10.194  19.061  0.00  0.00    +0.000 A 
ATOM     11  C   UNL     1      -0.952  10.331  18.007  0.00  0.00    +0.000 A 
BRANCH   6  13
ATOM     12  C   UNL     1      -4.328  11.425  17.486  0.00  0.00    +0.000 C 
ATOM     13  O   UNL     1      -2.954  11.420  17.107  0.00  0.00    +0.000 OA
ENDBRANCH   6  13
ENDBRANCH   1  10
BRANCH   3  14
ATOM     14  C   UNL     1       2.896   6.354  19.017  0.00  0.00    +0.000 C 
BRANCH  14  15
ATOM     15  N   UNL     1       3.609   5.609  17.969  0.00  0.00    +0.000 NA
ATOM     16  C   UNL     1       5.062   5.909  17.924  0.00  0.00    +0.000 C 
ATOM     17  C   UNL     1       5.874   5.372  19.131  0.00  0.00    +0.000 C 
ATOM     18  C   UNL     1       7.368   5.589  18.927  0.00  0.00    +0.000 C 
ATOM     19  O   UNL     1       5.667   3.960  19.311  0.00  0.00    +0.000 OA
ATOM     20  C   UNL     1       4.273   3.658  19.469  0.00  0.00    +0.000 C 
ATOM     21  C   UNL     1       4.134   2.155  19.666  0.00  0.00    +0.000 C 
ATOM     22  C   UNL     1       3.473   4.148  18.236  0.00  0.00    +0.000 C 
ENDBRANCH  14  15
ENDBRANCH   3  14
TORSDOF 4
ENDMDL
MODEL 8
REMARK VINA RESULT:      -6.9      3.659      9.253
REMARK  Name = 
REMARK  7 active torsions:
REMARK  status: ('A' for Active; 'I' for Inactive)
REMARK    1  A    between atoms: C_1  and  O_2
REMARK    2  A    between atoms: O_2  and  C_3
REMARK    3  A    between atoms: C_7  and  C_8
REMARK    4  A    between atoms: C_10  and  C_11
REMARK    5  A    between atoms: C_11  and  N_12
REMARK    6  A    between atoms: C_14  and  C_15
REMARK    7  A    between atoms: C_17  and  C_18
REMARK                            x       y       z     vdW  Elec       q    Type
REMARK                         _______ _______ _______ _____ _____    ______ ____
ROOT
ATOM      1  C   UNL     1       1.409   9.006  19.892  0.00  0.00    +0.000 A 
ATOM      2  N   UNL     1       1.963   7.810  19.872  0.00  0.00    +0.000 NA
ATOM      3  C   UNL     1       2.297   7.606  18.556  0.00  0.00    +0.000 A 
ATOM      4  C   UNL     1       2.068   8.764  17.850  0.00  0.00    +0.000 A 
ATOM      5  O   UNL     1       1.488   9.674  18.698  0.00  0.00    +0.000 OA
ENDROOT
BRANCH   1  10
ATOM      6  C   UNL     1      -0.717  11.484  21.718  0.00  0.00    +0.000 A 
ATOM      7  C   UNL     1      -0.873  10.872  22.960  0.00  0.00    +0.000 A 
ATOM      8  C   UNL     1      -0.345   9.598  23.197  0.00  0.00    +0.000 A 
ATOM      9  C   UNL     1       0.370   8.933  22.195  0.00  0.00    +0.000 A 
ATOM     10  C   UNL     1       0.554   9.539  20.950  0.00  0.00    +0.000 A 
ATOM     11  C   UNL     1      -0.024  10.805  20.720  0.00  0.00    +0.000 A 
BRANCH   6  13
ATOM     12  C   UNL     1      -1.499  13.441  22.812  0.00  0.00    +0.000 C 
ATOM     13  O   UNL     1      -1.250  12.738  21.598  0.00  0.00    +0.000 OA
ENDBRANCH   6  13
ENDBRANCH   1  10
BRANCH   3  14
ATOM     14  C   UNL     1       2.593   6.209  18.117  0.00  0.00    +0.000 C 
BRANCH  14  15
ATOM     15  N   UNL     1       3.783   5.593  18.721  0.00  0.00    +0.000 NA
ATOM     16  C   UNL     1       3.601   4.155  19.037  0.00  0.00    +0.000 C 
ATOM     17  C   UNL     1       3.509   3.225  17.800  0.00  0.00    +0.000 C 
ATOM     18  C   UNL     1       3.479   1.759  18.217  0.00  0.00    +0.000 C 
ATOM     19  O   UNL     1       4.641   3.400  16.931  0.00  0.00    +0.000 OA
ATOM     20  C   UNL     1       4.772   4.769  16.522  0.00  0.00    +0.000 C 
ATOM     21  C   UNL     1       5.979   4.874  15.599  0.00  0.00    +0.000 C 
ATOM     22  C   UNL     1       4.919   5.689  17.760  0.00  0.00    +0.000 C 
ENDBRANCH  14  15
ENDBRANCH   3  14
TORSDOF 4
ENDMDL
MODEL 9
REMARK VINA RESULT:      -6.9      2.820      8.715
REMARK  Name = 
REMARK  7 active torsions:
REMARK  status: ('A' for Active; 'I' for Inactive)
REMARK    1  A    between atoms: C_1  and  O_2
REMARK    2  A    between atoms: O_2  and  C_3
REMARK    3  A    between atoms: C_7  and  C_8
REMARK    4  A    between atoms: C_10  and  C_11
REMARK    5  A    between atoms: C_11  and  N_12
REMARK    6  A    between atoms: C_14  and  C_15
REMARK    7  A    between atoms: C_17  and  C_18
REMARK                            x       y       z     vdW  Elec       q    Type
REMARK                         _______ _______ _______ _____ _____    ______ ____
ROOT
ATOM      1  C   UNL     1       1.797   7.788  19.519  0.00  0.00    +0.000 A 
ATOM      2  N   UNL     1       2.188   7.482  18.298  0.00  0.00    +0.000 NA
ATOM      3  C   UNL     1       2.941   6.343  18.452  0.00  0.00    +0.000 A 
ATOM      4  C   UNL     1       2.846   5.916  19.756  0.00  0.00    +0.000 A 
ATOM      5  O   UNL     1       2.117   6.844  20.458  0.00  0.00    +0.000 OA
ENDROOT
BRANCH   1  10
ATOM      6  C   UNL     1       0.275  10.330  21.804  0.00  0.00    +0.000 A 
ATOM      7  C   UNL     1       0.047  11.398  20.938  0.00  0.00    +0.000 A 
ATOM      8  C   UNL     1       0.458  11.331  19.602  0.00  0.00    +0.000 A 
ATOM      9  C   UNL     1       1.081  10.178  19.112  0.00  0.00    +0.000 A 
ATOM     10  C   UNL     1       1.299   9.089  19.960  0.00  0.00    +0.000 A 
ATOM     11  C   UNL     1       0.916   9.196  21.313  0.00  0.00    +0.000 A 
BRANCH   6  13
ATOM     12  C   UNL     1      -1.431  11.165  23.229  0.00  0.00    +0.000 C 
ATOM     13  O   UNL     1      -0.186  10.486  23.082  0.00  0.00    +0.000 OA
ENDBRANCH   6  13
ENDBRANCH   1  10
BRANCH   3  14
ATOM     14  C   UNL     1       3.846   5.945  17.333  0.00  0.00    +0.000 C 
BRANCH  14  15
ATOM     15  N   UNL     1       5.012   5.137  17.718  0.00  0.00    +0.000 NA
ATOM     16  C   UNL     1       5.599   4.379  16.584  0.00  0.00    +0.000 C 
ATOM     17  C   UNL     1       6.312   5.252  15.520  0.00  0.00    +0.000 C 
ATOM     18  C   UNL     1       7.014   4.387  14.481  0.00  0.00    +0.000 C 
ATOM     19  O   UNL     1       7.311   6.094  16.121  0.00  0.00    +0.000 OA
ATOM     20  C   UNL     1       6.742   6.919  17.149  0.00  0.00    +0.000 C 
ATOM     21  C   UNL     1       7.850   7.787  17.727  0.00  0.00    +0.000 C 
ATOM     22  C   UNL     1       6.078   6.040  18.238  0.00  0.00    +0.000 C 
ENDBRANCH  14  15
ENDBRANCH   3  14
TORSDOF 4
ENDMDL
