MODEL 1
REMARK VINA RESULT:      -8.8      0.000      0.000
REMARK  Name = 
REMARK  7 active torsions:
REMARK  status: ('A' for Active; 'I' for Inactive)
REMARK    1  A    between atoms: C_1  and  O_2
REMARK    2  A    between atoms: O_2  and  C_3
REMARK    3  A    between atoms: C_8  and  N_9
REMARK    4  A    between atoms: N_12  and  C_13
REMARK    5  A    between atoms: C_17  and  C_18
REMARK    6  A    between atoms: N_26  and  C_27
REMARK    7  A    between atoms: C_27  and  C_28
REMARK                            x       y       z     vdW  Elec       q    Type
REMARK                         _______ _______ _______ _____ _____    ______ ____
ROOT
ATOM      1  C   UNL     1       7.000   7.334  17.175  0.00  0.00    +0.000 A 
ATOM      2  C   UNL     1       7.618   6.333  16.416  0.00  0.00    +0.000 A 
ATOM      3  C   UNL     1       7.069   5.057  16.310  0.00  0.00    +0.000 A 
ATOM      4  C   UNL     1       5.897   4.749  16.989  0.00  0.00    +0.000 A 
ATOM      5  C   UNL     1       5.271   5.700  17.813  0.00  0.00    +0.000 A 
ATOM      6  C   UNL     1       5.831   6.997  17.882  0.00  0.00    +0.000 A 
ENDROOT
BRANCH   5   7
ATOM      7  C   UNL     1       4.030   5.354  18.568  0.00  0.00    +0.000 A 
ATOM      8  C   UNL     1       3.469   4.133  18.411  0.00  0.00    +0.000 A 
ATOM      9  N   UNL     1       2.311   3.842  19.093  0.00  0.00    +0.000 N 
ATOM     10  C   UNL     1       1.527   2.720  19.136  0.00  0.00    +0.000 A 
ATOM     11  C   UNL     1       0.507   3.029  20.009  0.00  0.00    +0.000 A 
ATOM     12  N   UNL     1       0.640   4.306  20.489  0.00  0.00    +0.000 NA
ATOM     13  C   UNL     1       1.737   4.766  19.918  0.00  0.00    +0.000 A 
ATOM     14  C   UNL     1       2.379   6.063  20.081  0.00  0.00    +0.000 A 
ATOM     15  N   UNL     1       1.912   7.068  20.897  0.00  0.00    +0.000 N 
ATOM     16  N   UNL     1       3.494   6.317  19.424  0.00  0.00    +0.000 NA
ATOM     17  H   UNL     1       2.467   7.913  20.846  0.00  0.00    +0.000 HD
BRANCH  15  18
ATOM     18  C   UNL     1       0.514   7.270  21.211  0.00  0.00    +0.000 C 
BRANCH  18  19
ATOM     19  C   UNL     1       0.250   8.697  21.618  0.00  0.00    +0.000 A 
ATOM     20  C   UNL     1       0.677   9.761  20.819  0.00  0.00    +0.000 A 
ATOM     21  C   UNL     1       0.366  11.055  21.208  0.00  0.00    +0.000 A 
ATOM     22  N   UNL     1      -0.334  11.362  22.319  0.00  0.00    +0.000 NA
ATOM     23  C   UNL     1      -0.744  10.324  23.076  0.00  0.00    +0.000 A 
ATOM     24  C   UNL     1      -0.483   8.998  22.773  0.00  0.00    +0.000 A 
ENDBRANCH  18  19
ENDBRANCH  15  18
ENDBRANCH   5   7
BRANCH   1  28
ATOM     25  N   UNL     1       8.795  10.443  18.009  0.00  0.00    +0.000 N 
ATOM     26  C   UNL     1       8.449   9.108  18.165  0.00  0.00    +0.000 C 
ATOM     27  O   UNL     1       8.957   8.388  19.022  0.00  0.00    +0.000 OA
ATOM     28  N   UNL     1       7.502   8.669  17.250  0.00  0.00    +0.000 N 
ATOM     29  H   UNL     1       8.089  11.082  17.673  0.00  0.00    +0.000 HD
ATOM     30  H   UNL     1       7.317   9.273  16.462  0.00  0.00    +0.000 HD
BRANCH  25  36
ATOM     31  C   UNL     1       9.811  11.485  20.000  0.00  0.00    +0.000 A 
ATOM     32  C   UNL     1      10.917  12.108  20.610  0.00  0.00    +0.000 A 
ATOM     33  C   UNL     1      12.122  12.268  19.927  0.00  0.00    +0.000 A 
ATOM     34  C   UNL     1      12.228  11.838  18.614  0.00  0.00    +0.000 A 
ATOM     35  C   UNL     1      11.127  11.261  17.983  0.00  0.00    +0.000 A 
ATOM     36  C   UNL     1       9.912  11.055  18.660  0.00  0.00    +0.000 A 
BRANCH  31  38
ATOM     37  C   UNL     1       8.576  11.724  22.005  0.00  0.00    +0.000 C 
ATOM     38  O   UNL     1       8.616  11.270  20.649  0.00  0.00    +0.000 OA
ENDBRANCH  31  38
ENDBRANCH  25  36
ENDBRANCH   1  28
TORSDOF 6
ENDMDL
MODEL 2
REMARK VINA RESULT:      -8.6      4.894      9.514
REMARK  Name = 
REMARK  7 active torsions:
REMARK  status: ('A' for Active; 'I' for Inactive)
REMARK    1  A    between atoms: C_1  and  O_2
REMARK    2  A    between atoms: O_2  and  C_3
REMARK    3  A    between atoms: C_8  and  N_9
REMARK    4  A    between atoms: N_12  and  C_13
REMARK    5  A    between atoms: C_17  and  C_18
REMARK    6  A    between atoms: N_26  and  C_27
REMARK    7  A    between atoms: C_27  and  C_28
REMARK                            x       y       z     vdW  Elec       q    Type
REMARK                         _______ _______ _______ _____ _____    ______ ____
ROOT
ATOM      1  C   UNL     1       0.752  10.252  20.727  0.00  0.00    +0.000 A 
ATOM      2  C   UNL     1       0.994  10.982  19.556  0.00  0.00    +0.000 A 
ATOM      3  C   UNL     1       1.484  10.368  18.406  0.00  0.00    +0.000 A 
ATOM      4  C   UNL     1       1.769   9.009  18.413  0.00  0.00    +0.000 A 
ATOM      5  C   UNL     1       1.602   8.244  19.581  0.00  0.00    +0.000 A 
ATOM      6  C   UNL     1       1.076   8.883  20.728  0.00  0.00    +0.000 A 
ENDROOT
BRANCH   5   7
ATOM      7  C   UNL     1       1.941   6.790  19.593  0.00  0.00    +0.000 A 
ATOM      8  C   UNL     1       1.889   6.100  20.755  0.00  0.00    +0.000 A 
ATOM      9  N   UNL     1       2.230   4.767  20.752  0.00  0.00    +0.000 N 
ATOM     10  C   UNL     1       2.277   3.828  21.746  0.00  0.00    +0.000 A 
ATOM     11  C   UNL     1       2.681   2.667  21.125  0.00  0.00    +0.000 A 
ATOM     12  N   UNL     1       2.893   2.874  19.787  0.00  0.00    +0.000 NA
ATOM     13  C   UNL     1       2.611   4.148  19.596  0.00  0.00    +0.000 A 
ATOM     14  C   UNL     1       2.635   4.915  18.358  0.00  0.00    +0.000 A 
ATOM     15  N   UNL     1       2.979   4.403  17.128  0.00  0.00    +0.000 N 
ATOM     16  N   UNL     1       2.295   6.190  18.383  0.00  0.00    +0.000 NA
ATOM     17  H   UNL     1       2.979   5.098  16.392  0.00  0.00    +0.000 HD
BRANCH  15  18
ATOM     18  C   UNL     1       3.907   3.309  16.940  0.00  0.00    +0.000 C 
BRANCH  18  19
ATOM     19  C   UNL     1       5.273   3.817  16.555  0.00  0.00    +0.000 A 
ATOM     20  C   UNL     1       5.619   3.995  15.213  0.00  0.00    +0.000 A 
ATOM     21  C   UNL     1       6.869   4.513  14.908  0.00  0.00    +0.000 A 
ATOM     22  N   UNL     1       7.786   4.865  15.832  0.00  0.00    +0.000 NA
ATOM     23  C   UNL     1       7.435   4.692  17.123  0.00  0.00    +0.000 A 
ATOM     24  C   UNL     1       6.212   4.181  17.528  0.00  0.00    +0.000 A 
ENDBRANCH  18  19
ENDBRANCH  15  18
ENDBRANCH   5   7
BRANCH   1  28
ATOM     25  N   UNL     1      -1.187  12.207  23.176  0.00  0.00    +0.000 N 
ATOM     26  C   UNL     1      -0.783  11.829  21.904  0.00  0.00    +0.000 C 
ATOM     27  O   UNL     1      -1.263  12.318  20.883  0.00  0.00    +0.000 OA
ATOM     28  N   UNL     1       0.190  10.839  21.901  0.00  0.00    +0.000 N 
ATOM     29  H   UNL     1      -0.509  12.169  23.923  0.00  0.00    +0.000 HD
ATOM     30  H   UNL     1       0.353  10.359  22.775  0.00  0.00    +0.000 HD
BRANCH  25  36
ATOM     31  C   UNL     1      -2.187  14.318  23.966  0.00  0.00    +0.000 A 
ATOM     32  C   UNL     1      -3.334  15.089  24.237  0.00  0.00    +0.000 A 
ATOM     33  C   UNL     1      -4.611  14.608  23.947  0.00  0.00    +0.000 A 
ATOM     34  C   UNL     1      -4.760  13.337  23.417  0.00  0.00    +0.000 A 
ATOM     35  C   UNL     1      -3.635  12.546  23.186  0.00  0.00    +0.000 A 
ATOM     36  C   UNL     1      -2.335  13.020  23.435  0.00  0.00    +0.000 A 
BRANCH  31  38
ATOM     37  C   UNL     1      -0.413  15.706  23.237  0.00  0.00    +0.000 C 
ATOM     38  O   UNL     1      -0.907  14.768  24.198  0.00  0.00    +0.000 OA
ENDBRANCH  31  38
ENDBRANCH  25  36
ENDBRANCH   1  28
TORSDOF 6
ENDMDL
MODEL 3
REMARK VINA RESULT:      -8.5      3.764      7.571
REMARK  Name = 
REMARK  7 active torsions:
REMARK  status: ('A' for Active; 'I' for Inactive)
REMARK    1  A    between atoms: C_1  and  O_2
REMARK    2  A    between atoms: O_2  and  C_3
REMARK    3  A    between atoms: C_8  and  N_9
REMARK    4  A    between atoms: N_12  and  C_13
REMARK    5  A    between atoms: C_17  and  C_18
REMARK    6  A    between atoms: N_26  and  C_27
REMARK    7  A    between atoms: C_27  and  C_28
REMARK                            x       y       z     vdW  Elec       q    Type
REMARK                         _______ _______ _______ _____ _____    ______ ____
ROOT
ATOM      1  C   UNL     1       0.364  10.425  20.411  0.00  0.00    +0.000 A 
ATOM      2  C   UNL     1      -0.266  10.407  21.662  0.00  0.00    +0.000 A 
ATOM      3  C   UNL     1      -0.221   9.283  22.483  0.00  0.00    +0.000 A 
ATOM      4  C   UNL     1       0.436   8.137  22.053  0.00  0.00    +0.000 A 
ATOM      5  C   UNL     1       1.032   8.082  20.781  0.00  0.00    +0.000 A 
ATOM      6  C   UNL     1       0.999   9.247  19.977  0.00  0.00    +0.000 A 
ENDROOT
BRANCH   5   7
ATOM      7  C   UNL     1       1.710   6.838  20.311  0.00  0.00    +0.000 A 
ATOM      8  C   UNL     1       1.664   5.722  21.073  0.00  0.00    +0.000 A 
ATOM      9  N   UNL     1       2.316   4.592  20.635  0.00  0.00    +0.000 N 
ATOM     10  C   UNL     1       2.450   3.341  21.175  0.00  0.00    +0.000 A 
ATOM     11  C   UNL     1       3.208   2.638  20.265  0.00  0.00    +0.000 A 
ATOM     12  N   UNL     1       3.550   3.425  19.196  0.00  0.00    +0.000 NA
ATOM     13  C   UNL     1       2.996   4.594  19.451  0.00  0.00    +0.000 A 
ATOM     14  C   UNL     1       3.006   5.807  18.644  0.00  0.00    +0.000 A 
ATOM     15  N   UNL     1       3.635   5.930  17.426  0.00  0.00    +0.000 N 
ATOM     16  N   UNL     1       2.366   6.875  19.079  0.00  0.00    +0.000 NA
ATOM     17  H   UNL     1       3.569   6.861  17.036  0.00  0.00    +0.000 HD
BRANCH  15  18
ATOM     18  C   UNL     1       4.818   5.187  17.050  0.00  0.00    +0.000 C 
BRANCH  18  19
ATOM     19  C   UNL     1       6.063   5.833  17.604  0.00  0.00    +0.000 A 
ATOM     20  C   UNL     1       6.519   7.055  17.102  0.00  0.00    +0.000 A 
ATOM     21  C   UNL     1       7.639   7.636  17.678  0.00  0.00    +0.000 A 
ATOM     22  N   UNL     1       8.326   7.097  18.706  0.00  0.00    +0.000 NA
ATOM     23  C   UNL     1       7.869   5.921  19.182  0.00  0.00    +0.000 A 
ATOM     24  C   UNL     1       6.761   5.262  18.675  0.00  0.00    +0.000 A 
ENDBRANCH  18  19
ENDBRANCH  15  18
ENDBRANCH   5   7
BRANCH   1  28
ATOM     25  N   UNL     1       1.099  13.648  18.783  0.00  0.00    +0.000 N 
ATOM     26  C   UNL     1       1.246  12.663  19.749  0.00  0.00    +0.000 C 
ATOM     27  O   UNL     1       2.073  12.743  20.655  0.00  0.00    +0.000 OA
ATOM     28  N   UNL     1       0.393  11.583  19.576  0.00  0.00    +0.000 N 
ATOM     29  H   UNL     1       0.181  13.793  18.385  0.00  0.00    +0.000 HD
ATOM     30  H   UNL     1      -0.085  11.518  18.688  0.00  0.00    +0.000 HD
BRANCH  25  36
ATOM     31  C   UNL     1       1.632  16.052  18.901  0.00  0.00    +0.000 A 
ATOM     32  C   UNL     1       2.547  17.102  18.692  0.00  0.00    +0.000 A 
ATOM     33  C   UNL     1       3.842  16.851  18.238  0.00  0.00    +0.000 A 
ATOM     34  C   UNL     1       4.228  15.551  17.954  0.00  0.00    +0.000 A 
ATOM     35  C   UNL     1       3.317  14.507  18.113  0.00  0.00    +0.000 A 
ATOM     36  C   UNL     1       2.018  14.729  18.604  0.00  0.00    +0.000 A 
BRANCH  31  38
ATOM     37  C   UNL     1      -0.516  16.967  18.509  0.00  0.00    +0.000 C 
ATOM     38  O   UNL     1       0.359  16.250  19.385  0.00  0.00    +0.000 OA
ENDBRANCH  31  38
ENDBRANCH  25  36
ENDBRANCH   1  28
TORSDOF 6
ENDMDL
MODEL 4
REMARK VINA RESULT:      -8.4      5.053      9.167
REMARK  Name = 
REMARK  7 active torsions:
REMARK  status: ('A' for Active; 'I' for Inactive)
REMARK    1  A    between atoms: C_1  and  O_2
REMARK    2  A    between atoms: O_2  and  C_3
REMARK    3  A    between atoms: C_8  and  N_9
REMARK    4  A    between atoms: N_12  and  C_13
REMARK    5  A    between atoms: C_17  and  C_18
REMARK    6  A    between atoms: N_26  and  C_27
REMARK    7  A    between atoms: C_27  and  C_28
REMARK                            x       y       z     vdW  Elec       q    Type
REMARK                         _______ _______ _______ _____ _____    ______ ____
ROOT
ATOM      1  C   UNL     1       1.373   9.739  18.223  0.00  0.00    +0.000 A 
ATOM      2  C   UNL     1       2.294  10.790  18.304  0.00  0.00    +0.000 A 
ATOM      3  C   UNL     1       1.893  12.088  18.610  0.00  0.00    +0.000 A 
ATOM      4  C   UNL     1       0.548  12.366  18.816  0.00  0.00    +0.000 A 
ATOM      5  C   UNL     1      -0.425  11.360  18.686  0.00  0.00    +0.000 A 
ATOM      6  C   UNL     1       0.010  10.043  18.404  0.00  0.00    +0.000 A 
ENDROOT
BRANCH   5   7
ATOM      7  C   UNL     1      -1.873  11.671  18.877  0.00  0.00    +0.000 A 
ATOM      8  C   UNL     1      -2.781  11.200  17.992  0.00  0.00    +0.000 A 
ATOM      9  N   UNL     1      -4.107  11.518  18.169  0.00  0.00    +0.000 N 
ATOM     10  C   UNL     1      -5.232  11.200  17.457  0.00  0.00    +0.000 A 
ATOM     11  C   UNL     1      -6.269  11.802  18.135  0.00  0.00    +0.000 A 
ATOM     12  N   UNL     1      -5.808  12.486  19.229  0.00  0.00    +0.000 NA
ATOM     13  C   UNL     1      -4.504  12.293  19.221  0.00  0.00    +0.000 A 
ATOM     14  C   UNL     1      -3.502  12.766  20.167  0.00  0.00    +0.000 A 
ATOM     15  N   UNL     1      -3.776  13.534  21.276  0.00  0.00    +0.000 N 
ATOM     16  N   UNL     1      -2.237  12.440  19.983  0.00  0.00    +0.000 NA
ATOM     17  H   UNL     1      -2.947  13.802  21.790  0.00  0.00    +0.000 HD
BRANCH  15  18
ATOM     18  C   UNL     1      -4.879  14.466  21.359  0.00  0.00    +0.000 C 
BRANCH  18  19
ATOM     19  C   UNL     1      -5.882  14.030  22.397  0.00  0.00    +0.000 A 
ATOM     20  C   UNL     1      -5.640  12.911  23.200  0.00  0.00    +0.000 A 
ATOM     21  C   UNL     1      -6.568  12.578  24.175  0.00  0.00    +0.000 A 
ATOM     22  N   UNL     1      -7.701  13.270  24.409  0.00  0.00    +0.000 NA
ATOM     23  C   UNL     1      -7.917  14.350  23.629  0.00  0.00    +0.000 A 
ATOM     24  C   UNL     1      -7.052  14.763  22.628  0.00  0.00    +0.000 A 
ENDBRANCH  18  19
ENDBRANCH  15  18
ENDBRANCH   5   7
BRANCH   1  28
ATOM     25  N   UNL     1       2.369   6.200  18.463  0.00  0.00    +0.000 N 
ATOM     26  C   UNL     1       2.051   7.454  18.962  0.00  0.00    +0.000 C 
ATOM     27  O   UNL     1       2.012   7.698  20.166  0.00  0.00    +0.000 OA
ATOM     28  N   UNL     1       1.760   8.387  17.976  0.00  0.00    +0.000 N 
ATOM     29  H   UNL     1       2.838   6.147  17.569  0.00  0.00    +0.000 HD
ATOM     30  H   UNL     1       1.609   8.031  17.043  0.00  0.00    +0.000 HD
BRANCH  25  36
ATOM     31  C   UNL     1       3.714   4.408  19.493  0.00  0.00    +0.000 A 
ATOM     32  C   UNL     1       3.778   3.237  20.272  0.00  0.00    +0.000 A 
ATOM     33  C   UNL     1       2.635   2.701  20.864  0.00  0.00    +0.000 A 
ATOM     34  C   UNL     1       1.407   3.309  20.657  0.00  0.00    +0.000 A 
ATOM     35  C   UNL     1       1.323   4.443  19.850  0.00  0.00    +0.000 A 
ATOM     36  C   UNL     1       2.465   5.024  19.272  0.00  0.00    +0.000 A 
BRANCH  31  38
ATOM     37  C   UNL     1       5.138   4.535  17.605  0.00  0.00    +0.000 C 
ATOM     38  O   UNL     1       4.823   4.994  18.923  0.00  0.00    +0.000 OA
ENDBRANCH  31  38
ENDBRANCH  25  36
ENDBRANCH   1  28
TORSDOF 6
ENDMDL
MODEL 5
REMARK VINA RESULT:      -8.4      3.620      7.279
REMARK  Name = 
REMARK  7 active torsions:
REMARK  status: ('A' for Active; 'I' for Inactive)
REMARK    1  A    between atoms: C_1  and  O_2
REMARK    2  A    between atoms: O_2  and  C_3
REMARK    3  A    between atoms: C_8  and  N_9
REMARK    4  A    between atoms: N_12  and  C_13
REMARK    5  A    between atoms: C_17  and  C_18
REMARK    6  A    between atoms: N_26  and  C_27
REMARK    7  A    between atoms: C_27  and  C_28
REMARK                            x       y       z     vdW  Elec       q    Type
REMARK                         _______ _______ _______ _____ _____    ______ ____
ROOT
ATOM      1  C   UNL     1       0.495  10.748  20.528  0.00  0.00    +0.000 A 
ATOM      2  C   UNL     1      -0.284  10.711  21.691  0.00  0.00    +0.000 A 
ATOM      3  C   UNL     1      -0.417   9.545  22.441  0.00  0.00    +0.000 A 
ATOM      4  C   UNL     1       0.210   8.378  22.023  0.00  0.00    +0.000 A 
ATOM      5  C   UNL     1       0.952   8.346  20.830  0.00  0.00    +0.000 A 
ATOM      6  C   UNL     1       1.097   9.551  20.101  0.00  0.00    +0.000 A 
ENDROOT
BRANCH   5   7
ATOM      7  C   UNL     1       1.596   7.081  20.367  0.00  0.00    +0.000 A 
ATOM      8  C   UNL     1       1.532   5.975  21.142  0.00  0.00    +0.000 A 
ATOM      9  N   UNL     1       2.154   4.826  20.711  0.00  0.00    +0.000 N 
ATOM     10  C   UNL     1       2.263   3.578  21.263  0.00  0.00    +0.000 A 
ATOM     11  C   UNL     1       2.997   2.847  20.355  0.00  0.00    +0.000 A 
ATOM     12  N   UNL     1       3.347   3.614  19.275  0.00  0.00    +0.000 NA
ATOM     13  C   UNL     1       2.823   4.799  19.521  0.00  0.00    +0.000 A 
ATOM     14  C   UNL     1       2.854   6.002  18.702  0.00  0.00    +0.000 A 
ATOM     15  N   UNL     1       3.475   6.097  17.477  0.00  0.00    +0.000 N 
ATOM     16  N   UNL     1       2.243   7.090  19.130  0.00  0.00    +0.000 NA
ATOM     17  H   UNL     1       3.428   7.026  17.077  0.00  0.00    +0.000 HD
BRANCH  15  18
ATOM     18  C   UNL     1       4.638   5.324  17.099  0.00  0.00    +0.000 C 
BRANCH  18  19
ATOM     19  C   UNL     1       5.898   5.924  17.669  0.00  0.00    +0.000 A 
ATOM     20  C   UNL     1       6.583   5.294  18.712  0.00  0.00    +0.000 A 
ATOM     21  C   UNL     1       7.765   5.856  19.170  0.00  0.00    +0.000 A 
ATOM     22  N   UNL     1       8.309   6.984  18.668  0.00  0.00    +0.000 NA
ATOM     23  C   UNL     1       7.638   7.577  17.658  0.00  0.00    +0.000 A 
ATOM     24  C   UNL     1       6.450   7.093  17.134  0.00  0.00    +0.000 A 
ENDBRANCH  18  19
ENDBRANCH  15  18
ENDBRANCH   5   7
BRANCH   1  28
ATOM     25  N   UNL     1       1.703  13.941  19.141  0.00  0.00    +0.000 N 
ATOM     26  C   UNL     1       1.687  12.885  20.040  0.00  0.00    +0.000 C 
ATOM     27  O   UNL     1       2.487  12.794  20.969  0.00  0.00    +0.000 OA
ATOM     28  N   UNL     1       0.704  11.943  19.774  0.00  0.00    +0.000 N 
ATOM     29  H   UNL     1       0.826  14.234  18.733  0.00  0.00    +0.000 HD
ATOM     30  H   UNL     1       0.250  12.001  18.874  0.00  0.00    +0.000 HD
BRANCH  25  36
ATOM     31  C   UNL     1       2.682  16.119  19.758  0.00  0.00    +0.000 A 
ATOM     32  C   UNL     1       3.727  17.055  19.640  0.00  0.00    +0.000 A 
ATOM     33  C   UNL     1       4.861  16.776  18.877  0.00  0.00    +0.000 A 
ATOM     34  C   UNL     1       4.949  15.574  18.194  0.00  0.00    +0.000 A 
ATOM     35  C   UNL     1       3.901  14.658  18.267  0.00  0.00    +0.000 A 
ATOM     36  C   UNL     1       2.763  14.898  19.057  0.00  0.00    +0.000 A 
BRANCH  31  38
ATOM     37  C   UNL     1       1.773  16.216  21.942  0.00  0.00    +0.000 C 
ATOM     38  O   UNL     1       1.564  16.335  20.532  0.00  0.00    +0.000 OA
ENDBRANCH  31  38
ENDBRANCH  25  36
ENDBRANCH   1  28
TORSDOF 6
ENDMDL
MODEL 6
REMARK VINA RESULT:      -8.4      3.876      6.983
REMARK  Name = 
REMARK  7 active torsions:
REMARK  status: ('A' for Active; 'I' for Inactive)
REMARK    1  A    between atoms: C_1  and  O_2
REMARK    2  A    between atoms: O_2  and  C_3
REMARK    3  A    between atoms: C_8  and  N_9
REMARK    4  A    between atoms: N_12  and  C_13
REMARK    5  A    between atoms: C_17  and  C_18
REMARK    6  A    between atoms: N_26  and  C_27
REMARK    7  A    between atoms: C_27  and  C_28
REMARK                            x       y       z     vdW  Elec       q    Type
REMARK                         _______ _______ _______ _____ _____    ______ ____
ROOT
ATOM      1  C   UNL     1       5.168  15.214  18.025  0.00  0.00    +0.000 A 
ATOM      2  C   UNL     1       4.746  16.452  18.527  0.00  0.00    +0.000 A 
ATOM      3  C   UNL     1       3.466  16.628  19.046  0.00  0.00    +0.000 A 
ATOM      4  C   UNL     1       2.568  15.569  19.048  0.00  0.00    +0.000 A 
ATOM      5  C   UNL     1       2.921  14.323  18.500  0.00  0.00    +0.000 A 
ATOM      6  C   UNL     1       4.237  14.160  18.006  0.00  0.00    +0.000 A 
ENDROOT
BRANCH   5   7
ATOM      7  C   UNL     1       1.941  13.197  18.475  0.00  0.00    +0.000 A 
ATOM      8  C   UNL     1       0.629  13.446  18.691  0.00  0.00    +0.000 A 
ATOM      9  N   UNL     1      -0.255  12.392  18.690  0.00  0.00    +0.000 N 
ATOM     10  C   UNL     1      -1.610  12.329  18.876  0.00  0.00    +0.000 A 
ATOM     11  C   UNL     1      -1.928  10.994  18.748  0.00  0.00    +0.000 A 
ATOM     12  N   UNL     1      -0.808  10.244  18.502  0.00  0.00    +0.000 NA
ATOM     13  C   UNL     1       0.181  11.116  18.472  0.00  0.00    +0.000 A 
ATOM     14  C   UNL     1       1.597  10.887  18.221  0.00  0.00    +0.000 A 
ATOM     15  N   UNL     1       2.156   9.655  17.968  0.00  0.00    +0.000 N 
ATOM     16  N   UNL     1       2.425  11.913  18.218  0.00  0.00    +0.000 NA
ATOM     17  H   UNL     1       3.162   9.687  17.862  0.00  0.00    +0.000 HD
BRANCH  15  18
ATOM     18  C   UNL     1       1.632   8.409  18.486  0.00  0.00    +0.000 C 
BRANCH  18  19
ATOM     19  C   UNL     1       2.702   7.348  18.529  0.00  0.00    +0.000 A 
ATOM     20  C   UNL     1       2.674   6.342  19.500  0.00  0.00    +0.000 A 
ATOM     21  C   UNL     1       3.650   5.357  19.469  0.00  0.00    +0.000 A 
ATOM     22  N   UNL     1       4.636   5.300  18.551  0.00  0.00    +0.000 NA
ATOM     23  C   UNL     1       4.646   6.275  17.618  0.00  0.00    +0.000 A 
ATOM     24  C   UNL     1       3.717   7.301  17.566  0.00  0.00    +0.000 A 
ENDBRANCH  18  19
ENDBRANCH  15  18
ENDBRANCH   5   7
BRANCH   1  28
ATOM     25  N   UNL     1       8.732  14.370  17.621  0.00  0.00    +0.000 N 
ATOM     26  C   UNL     1       7.553  14.548  18.330  0.00  0.00    +0.000 C 
ATOM     27  O   UNL     1       7.464  14.318  19.534  0.00  0.00    +0.000 OA
ATOM     28  N   UNL     1       6.494  14.985  17.547  0.00  0.00    +0.000 N 
ATOM     29  H   UNL     1       8.909  14.973  16.830  0.00  0.00    +0.000 HD
ATOM     30  H   UNL     1       6.617  14.933  16.546  0.00  0.00    +0.000 HD
BRANCH  25  36
ATOM     31  C   UNL     1      11.003  14.440  18.580  0.00  0.00    +0.000 A 
ATOM     32  C   UNL     1      12.133  13.757  19.070  0.00  0.00    +0.000 A 
ATOM     33  C   UNL     1      12.145  12.366  19.174  0.00  0.00    +0.000 A 
ATOM     34  C   UNL     1      11.043  11.638  18.759  0.00  0.00    +0.000 A 
ATOM     35  C   UNL     1       9.935  12.299  18.229  0.00  0.00    +0.000 A 
ATOM     36  C   UNL     1       9.882  13.701  18.147  0.00  0.00    +0.000 A 
BRANCH  31  38
ATOM     37  C   UNL     1      11.698  16.394  17.438  0.00  0.00    +0.000 C 
ATOM     38  O   UNL     1      10.931  15.812  18.497  0.00  0.00    +0.000 OA
ENDBRANCH  31  38
ENDBRANCH  25  36
ENDBRANCH   1  28
TORSDOF 6
ENDMDL
MODEL 7
REMARK VINA RESULT:      -8.4      3.904      6.810
REMARK  Name = 
REMARK  7 active torsions:
REMARK  status: ('A' for Active; 'I' for Inactive)
REMARK    1  A    between atoms: C_1  and  O_2
REMARK    2  A    between atoms: O_2  and  C_3
REMARK    3  A    between atoms: C_8  and  N_9
REMARK    4  A    between atoms: N_12  and  C_13
REMARK    5  A    between atoms: C_17  and  C_18
REMARK    6  A    between atoms: N_26  and  C_27
REMARK    7  A    between atoms: C_27  and  C_28
REMARK                            x       y       z     vdW  Elec       q    Type
REMARK                         _______ _______ _______ _____ _____    ______ ____
ROOT
ATOM      1  C   UNL     1       1.237  11.731  18.805  0.00  0.00    +0.000 A 
ATOM      2  C   UNL     1       0.055  11.936  19.528  0.00  0.00    +0.000 A 
ATOM      3  C   UNL     1      -0.559  10.899  20.226  0.00  0.00    +0.000 A 
ATOM      4  C   UNL     1      -0.014   9.622  20.191  0.00  0.00    +0.000 A 
ATOM      5  C   UNL     1       1.136   9.351  19.430  0.00  0.00    +0.000 A 
ATOM      6  C   UNL     1       1.759  10.426  18.754  0.00  0.00    +0.000 A 
ENDROOT
BRANCH   5   7
ATOM      7  C   UNL     1       1.700   7.969  19.369  0.00  0.00    +0.000 A 
ATOM      8  C   UNL     1       1.450   7.099  20.374  0.00  0.00    +0.000 A 
ATOM      9  N   UNL     1       1.999   5.839  20.313  0.00  0.00    +0.000 N 
ATOM     10  C   UNL     1       1.931   4.765  21.159  0.00  0.00    +0.000 A 
ATOM     11  C   UNL     1       2.681   3.782  20.551  0.00  0.00    +0.000 A 
ATOM     12  N   UNL     1       3.212   4.229  19.370  0.00  0.00    +0.000 NA
ATOM     13  C   UNL     1       2.782   5.470  19.256  0.00  0.00    +0.000 A 
ATOM     14  C   UNL     1       3.012   6.425  18.181  0.00  0.00    +0.000 A 
ATOM     15  N   UNL     1       3.762   6.167  17.056  0.00  0.00    +0.000 N 
ATOM     16  N   UNL     1       2.468   7.624  18.256  0.00  0.00    +0.000 NA
ATOM     17  H   UNL     1       3.846   6.967  16.441  0.00  0.00    +0.000 HD
BRANCH  15  18
ATOM     18  C   UNL     1       4.878   5.247  17.022  0.00  0.00    +0.000 C 
BRANCH  18  19
ATOM     19  C   UNL     1       6.117   5.874  17.607  0.00  0.00    +0.000 A 
ATOM     20  C   UNL     1       6.609   7.085  17.111  0.00  0.00    +0.000 A 
ATOM     21  C   UNL     1       7.723   7.650  17.714  0.00  0.00    +0.000 A 
ATOM     22  N   UNL     1       8.370   7.106  18.765  0.00  0.00    +0.000 NA
ATOM     23  C   UNL     1       7.879   5.941  19.236  0.00  0.00    +0.000 A 
ATOM     24  C   UNL     1       6.775   5.298  18.701  0.00  0.00    +0.000 A 
ENDBRANCH  18  19
ENDBRANCH  15  18
ENDBRANCH   5   7
BRANCH   1  28
ATOM     25  N   UNL     1       3.459  14.504  17.830  0.00  0.00    +0.000 N 
ATOM     26  C   UNL     1       2.924  13.567  18.701  0.00  0.00    +0.000 C 
ATOM     27  O   UNL     1       3.320  13.435  19.857  0.00  0.00    +0.000 OA
ATOM     28  N   UNL     1       1.926  12.787  18.134  0.00  0.00    +0.000 N 
ATOM     29  H   UNL     1       2.854  14.900  17.125  0.00  0.00    +0.000 HD
ATOM     30  H   UNL     1       1.832  12.829  17.129  0.00  0.00    +0.000 HD
BRANCH  25  36
ATOM     31  C   UNL     1       4.576  16.552  18.631  0.00  0.00    +0.000 A 
ATOM     32  C   UNL     1       5.763  17.273  18.862  0.00  0.00    +0.000 A 
ATOM     33  C   UNL     1       7.012  16.705  18.614  0.00  0.00    +0.000 A 
ATOM     34  C   UNL     1       7.091  15.422  18.099  0.00  0.00    +0.000 A 
ATOM     35  C   UNL     1       5.922  14.713  17.823  0.00  0.00    +0.000 A 
ATOM     36  C   UNL     1       4.651  15.248  18.098  0.00  0.00    +0.000 A 
BRANCH  31  38
ATOM     37  C   UNL     1       2.998  17.158  20.289  0.00  0.00    +0.000 C 
ATOM     38  O   UNL     1       3.324  17.058  18.900  0.00  0.00    +0.000 OA
ENDBRANCH  31  38
ENDBRANCH  25  36
ENDBRANCH   1  28
TORSDOF 6
ENDMDL
MODEL 8
REMARK VINA RESULT:      -8.3      5.090      9.086
REMARK  Name = 
REMARK  7 active torsions:
REMARK  status: ('A' for Active; 'I' for Inactive)
REMARK    1  A    between atoms: C_1  and  O_2
REMARK    2  A    between atoms: O_2  and  C_3
REMARK    3  A    between atoms: C_8  and  N_9
REMARK    4  A    between atoms: N_12  and  C_13
REMARK    5  A    between atoms: C_17  and  C_18
REMARK    6  A    between atoms: N_26  and  C_27
REMARK    7  A    between atoms: C_27  and  C_28
REMARK                            x       y       z     vdW  Elec       q    Type
REMARK                         _______ _______ _______ _____ _____    ______ ____
ROOT
ATOM      1  C   UNL     1       1.392   9.660  18.384  0.00  0.00    +0.000 A 
ATOM      2  C   UNL     1       2.257  10.647  17.897  0.00  0.00    +0.000 A 
ATOM      3  C   UNL     1       2.080  11.991  18.218  0.00  0.00    +0.000 A 
ATOM      4  C   UNL     1       1.011  12.378  19.015  0.00  0.00    +0.000 A 
ATOM      5  C   UNL     1       0.079  11.434  19.478  0.00  0.00    +0.000 A 
ATOM      6  C   UNL     1       0.295  10.071  19.164  0.00  0.00    +0.000 A 
ENDROOT
BRANCH   5   7
ATOM      7  C   UNL     1      -1.088  11.859  20.308  0.00  0.00    +0.000 A 
ATOM      8  C   UNL     1      -1.075  11.643  21.642  0.00  0.00    +0.000 A 
ATOM      9  N   UNL     1      -2.169  12.018  22.386  0.00  0.00    +0.000 N 
ATOM     10  C   UNL     1      -2.445  11.930  23.724  0.00  0.00    +0.000 A 
ATOM     11  C   UNL     1      -3.698  12.483  23.870  0.00  0.00    +0.000 A 
ATOM     12  N   UNL     1      -4.197  12.894  22.661  0.00  0.00    +0.000 NA
ATOM     13  C   UNL     1      -3.251  12.600  21.791  0.00  0.00    +0.000 A 
ATOM     14  C   UNL     1      -3.223  12.838  20.354  0.00  0.00    +0.000 A 
ATOM     15  N   UNL     1      -4.239  13.434  19.641  0.00  0.00    +0.000 N 
ATOM     16  N   UNL     1      -2.159  12.479  19.662  0.00  0.00    +0.000 NA
ATOM     17  H   UNL     1      -4.058  13.473  18.646  0.00  0.00    +0.000 HD
BRANCH  15  18
ATOM     18  C   UNL     1      -5.636  13.358  20.009  0.00  0.00    +0.000 C 
BRANCH  18  19
ATOM     19  C   UNL     1      -6.178  11.968  19.796  0.00  0.00    +0.000 A 
ATOM     20  C   UNL     1      -5.792  11.210  18.687  0.00  0.00    +0.000 A 
ATOM     21  C   UNL     1      -6.277   9.917  18.560  0.00  0.00    +0.000 A 
ATOM     22  N   UNL     1      -7.105   9.330  19.448  0.00  0.00    +0.000 NA
ATOM     23  C   UNL     1      -7.464  10.073  20.516  0.00  0.00    +0.000 A 
ATOM     24  C   UNL     1      -7.034  11.372  20.731  0.00  0.00    +0.000 A 
ENDBRANCH  18  19
ENDBRANCH  15  18
ENDBRANCH   5   7
BRANCH   1  28
ATOM     25  N   UNL     1       2.092   6.047  18.576  0.00  0.00    +0.000 N 
ATOM     26  C   UNL     1       2.018   7.342  19.066  0.00  0.00    +0.000 C 
ATOM     27  O   UNL     1       2.293   7.627  20.230  0.00  0.00    +0.000 OA
ATOM     28  N   UNL     1       1.584   8.268  18.127  0.00  0.00    +0.000 N 
ATOM     29  H   UNL     1       2.324   5.918  17.601  0.00  0.00    +0.000 HD
ATOM     30  H   UNL     1       1.181   7.899  17.278  0.00  0.00    +0.000 HD
BRANCH  25  36
ATOM     31  C   UNL     1       3.448   4.122  19.307  0.00  0.00    +0.000 A 
ATOM     32  C   UNL     1       3.591   2.977  20.114  0.00  0.00    +0.000 A 
ATOM     33  C   UNL     1       2.609   2.618  21.037  0.00  0.00    +0.000 A 
ATOM     34  C   UNL     1       1.456   3.379  21.141  0.00  0.00    +0.000 A 
ATOM     35  C   UNL     1       1.282   4.490  20.316  0.00  0.00    +0.000 A 
ATOM     36  C   UNL     1       2.272   4.894  19.403  0.00  0.00    +0.000 A 
BRANCH  31  38
ATOM     37  C   UNL     1       4.506   3.746  17.222  0.00  0.00    +0.000 C 
ATOM     38  O   UNL     1       4.409   4.535  18.412  0.00  0.00    +0.000 OA
ENDBRANCH  31  38
ENDBRANCH  25  36
ENDBRANCH   1  28
TORSDOF 6
ENDMDL
MODEL 9
REMARK VINA RESULT:      -8.2      3.773      8.161
REMARK  Name = 
REMARK  7 active torsions:
REMARK  status: ('A' for Active; 'I' for Inactive)
REMARK    1  A    between atoms: C_1  and  O_2
REMARK    2  A    between atoms: O_2  and  C_3
REMARK    3  A    between atoms: C_8  and  N_9
REMARK    4  A    between atoms: N_12  and  C_13
REMARK    5  A    between atoms: C_17  and  C_18
REMARK    6  A    between atoms: N_26  and  C_27
REMARK    7  A    between atoms: C_27  and  C_28
REMARK                            x       y       z     vdW  Elec       q    Type
REMARK                         _______ _______ _______ _____ _____    ______ ____
ROOT
ATOM      1  C   UNL     1       0.217  10.822  20.458  0.00  0.00    +0.000 A 
ATOM      2  C   UNL     1      -0.119  10.900  21.815  0.00  0.00    +0.000 A 
ATOM      3  C   UNL     1       0.158   9.856  22.694  0.00  0.00    +0.000 A 
ATOM      4  C   UNL     1       0.756   8.694  22.223  0.00  0.00    +0.000 A 
ATOM      5  C   UNL     1       1.057   8.541  20.859  0.00  0.00    +0.000 A 
ATOM      6  C   UNL     1       0.794   9.626  19.990  0.00  0.00    +0.000 A 
ENDROOT
BRANCH   5   7
ATOM      7  C   UNL     1       1.669   7.277  20.352  0.00  0.00    +0.000 A 
ATOM      8  C   UNL     1       1.579   6.146  21.088  0.00  0.00    +0.000 A 
ATOM      9  N   UNL     1       2.172   4.998  20.618  0.00  0.00    +0.000 N 
ATOM     10  C   UNL     1       2.252   3.730  21.126  0.00  0.00    +0.000 A 
ATOM     11  C   UNL     1       2.966   3.013  20.192  0.00  0.00    +0.000 A 
ATOM     12  N   UNL     1       3.334   3.808  19.138  0.00  0.00    +0.000 NA
ATOM     13  C   UNL     1       2.839   4.996  19.426  0.00  0.00    +0.000 A 
ATOM     14  C   UNL     1       2.898   6.226  18.648  0.00  0.00    +0.000 A 
ATOM     15  N   UNL     1       3.519   6.347  17.426  0.00  0.00    +0.000 N 
ATOM     16  N   UNL     1       2.314   7.313  19.114  0.00  0.00    +0.000 NA
ATOM     17  H   UNL     1       3.494   7.290  17.057  0.00  0.00    +0.000 HD
BRANCH  15  18
ATOM     18  C   UNL     1       4.662   5.559  17.019  0.00  0.00    +0.000 C 
BRANCH  18  19
ATOM     19  C   UNL     1       5.929   6.072  17.655  0.00  0.00    +0.000 A 
ATOM     20  C   UNL     1       6.568   5.346  18.664  0.00  0.00    +0.000 A 
ATOM     21  C   UNL     1       7.759   5.832  19.184  0.00  0.00    +0.000 A 
ATOM     22  N   UNL     1       8.353   6.971  18.774  0.00  0.00    +0.000 NA
ATOM     23  C   UNL     1       7.726   7.657  17.795  0.00  0.00    +0.000 A 
ATOM     24  C   UNL     1       6.535   7.255  17.214  0.00  0.00    +0.000 A 
ENDBRANCH  18  19
ENDBRANCH  15  18
ENDBRANCH   5   7
BRANCH   1  28
ATOM     25  N   UNL     1      -0.042  14.091  18.776  0.00  0.00    +0.000 N 
ATOM     26  C   UNL     1       0.199  13.241  19.846  0.00  0.00    +0.000 C 
ATOM     27  O   UNL     1       0.567  13.649  20.946  0.00  0.00    +0.000 OA
ATOM     28  N   UNL     1       0.007  11.900  19.545  0.00  0.00    +0.000 N 
ATOM     29  H   UNL     1      -0.748  13.824  18.105  0.00  0.00    +0.000 HD
ATOM     30  H   UNL     1      -0.081  11.661  18.568  0.00  0.00    +0.000 HD
BRANCH  25  36
ATOM     31  C   UNL     1       1.659  15.863  18.555  0.00  0.00    +0.000 A 
ATOM     32  C   UNL     1       1.992  17.231  18.573  0.00  0.00    +0.000 A 
ATOM     33  C   UNL     1       1.015  18.209  18.751  0.00  0.00    +0.000 A 
ATOM     34  C   UNL     1      -0.304  17.833  18.947  0.00  0.00    +0.000 A 
ATOM     35  C   UNL     1      -0.641  16.480  18.977  0.00  0.00    +0.000 A 
ATOM     36  C   UNL     1       0.319  15.475  18.764  0.00  0.00    +0.000 A 
BRANCH  31  38
ATOM     37  C   UNL     1       3.791  15.289  17.701  0.00  0.00    +0.000 C 
ATOM     38  O   UNL     1       2.584  14.866  18.343  0.00  0.00    +0.000 OA
ENDBRANCH  31  38
ENDBRANCH  25  36
ENDBRANCH   1  28
TORSDOF 6
ENDMDL
