MODEL 1
REMARK VINA RESULT:      -7.1      0.000      0.000
REMARK  Name = 
REMARK  7 active torsions:
REMARK  status: ('A' for Active; 'I' for Inactive)
REMARK    1  A    between atoms: C_1  and  N_2
REMARK    2  A    between atoms: N_2  and  C_3
REMARK    3  A    between atoms: N_2  and  C_4
REMARK    4  A    between atoms: C_4  and  C_5
REMARK    5  A    between atoms: C_5  and  O_6
REMARK    6  A    between atoms: O_6  and  C_7
REMARK    7  A    between atoms: C_7  and  C_9
REMARK                            x       y       z     vdW  Elec       q    Type
REMARK                         _______ _______ _______ _____ _____    ______ ____
ROOT
ATOM      1  C   UNL     1       5.746   5.288  16.525  0.00  0.00    +0.000 A 
ATOM      2  C   UNL     1       5.206   6.590  16.328  0.00  0.00    +0.000 A 
ATOM      3  C   UNL     1       4.111   7.026  17.094  0.00  0.00    +0.000 A 
ATOM      4  C   UNL     1       3.590   6.147  18.048  0.00  0.00    +0.000 A 
ATOM      5  N   UNL     1       2.563   6.353  18.881  0.00  0.00    +0.000 N 
ATOM      6  C   UNL     1       2.440   5.215  19.609  0.00  0.00    +0.000 A 
ATOM      7  C   UNL     1       3.410   4.293  19.240  0.00  0.00    +0.000 A 
ATOM      8  C   UNL     1       4.121   4.897  18.231  0.00  0.00    +0.000 A 
ATOM      9  C   UNL     1       5.187   4.430  17.487  0.00  0.00    +0.000 A 
ATOM     10  C   UNL     1       3.654   2.932  19.829  0.00  0.00    +0.000 C 
ATOM     11  S   UNL     1       2.648   2.600  21.327  0.00  0.00    +0.000 S 
ATOM     12  C   UNL     1       1.138   3.471  20.792  0.00  0.00    +0.000 C 
ATOM     13  C   UNL     1       1.389   4.973  20.639  0.00  0.00    +0.000 C 
ATOM     14  H   UNL     1       1.968   7.209  18.948  0.00  0.00    +0.000 HD
ENDROOT
BRANCH   1  15
ATOM     15  C   UNL     1       6.880   4.817  15.718  0.00  0.00    +0.000 C 
ATOM     16  O   UNL     1       7.903   4.443  16.244  0.00  0.00    +0.000 OA
BRANCH  15  17
ATOM     17  O   UNL     1       6.804   4.906  14.364  0.00  0.00    +0.000 OA
BRANCH  17  18
ATOM     18  C   UNL     1       6.003   4.046  13.660  0.00  0.00    +0.000 C 
BRANCH  18  19
ATOM     19  C   UNL     1       6.742   3.414  12.488  0.00  0.00    +0.000 C 
BRANCH  19  21
ATOM     20  C   UNL     1       5.963   1.446  11.343  0.00  0.00    +0.000 C 
ATOM     21  N   UNL     1       5.781   2.897  11.489  0.00  0.00    +0.000 NA
ATOM     22  C   UNL     1       4.383   3.261  11.802  0.00  0.00    +0.000 C 
ENDBRANCH  19  21
ENDBRANCH  18  19
ENDBRANCH  17  18
ENDBRANCH  15  17
ENDBRANCH   1  15
TORSDOF 5
ENDMDL
MODEL 2
REMARK VINA RESULT:      -7.1      1.514      1.881
REMARK  Name = 
REMARK  7 active torsions:
REMARK  status: ('A' for Active; 'I' for Inactive)
REMARK    1  A    between atoms: C_1  and  N_2
REMARK    2  A    between atoms: N_2  and  C_3
REMARK    3  A    between atoms: N_2  and  C_4
REMARK    4  A    between atoms: C_4  and  C_5
REMARK    5  A    between atoms: C_5  and  O_6
REMARK    6  A    between atoms: O_6  and  C_7
REMARK    7  A    between atoms: C_7  and  C_9
REMARK                            x       y       z     vdW  Elec       q    Type
REMARK                         _______ _______ _______ _____ _____    ______ ____
ROOT
ATOM      1  C   UNL     1       6.096   4.977  15.771  0.00  0.00    +0.000 A 
ATOM      2  C   UNL     1       6.793   5.851  16.652  0.00  0.00    +0.000 A 
ATOM      3  C   UNL     1       6.316   6.070  17.956  0.00  0.00    +0.000 A 
ATOM      4  C   UNL     1       5.155   5.398  18.349  0.00  0.00    +0.000 A 
ATOM      5  N   UNL     1       4.532   5.455  19.532  0.00  0.00    +0.000 N 
ATOM      6  C   UNL     1       3.457   4.633  19.428  0.00  0.00    +0.000 A 
ATOM      7  C   UNL     1       3.417   4.043  18.172  0.00  0.00    +0.000 A 
ATOM      8  C   UNL     1       4.494   4.556  17.492  0.00  0.00    +0.000 A 
ATOM      9  C   UNL     1       4.926   4.329  16.200  0.00  0.00    +0.000 A 
ATOM     10  C   UNL     1       2.423   3.036  17.664  0.00  0.00    +0.000 C 
ATOM     11  S   UNL     1       1.286   2.420  18.966  0.00  0.00    +0.000 S 
ATOM     12  C   UNL     1       1.111   3.985  19.883  0.00  0.00    +0.000 C 
ATOM     13  C   UNL     1       2.443   4.419  20.499  0.00  0.00    +0.000 C 
ATOM     14  H   UNL     1       4.808   6.027  20.362  0.00  0.00    +0.000 HD
ENDROOT
BRANCH   1  15
ATOM     15  C   UNL     1       6.577   4.755  14.401  0.00  0.00    +0.000 C 
ATOM     16  O   UNL     1       7.590   5.284  14.006  0.00  0.00    +0.000 OA
BRANCH  15  17
ATOM     17  O   UNL     1       5.811   4.028  13.545  0.00  0.00    +0.000 OA
BRANCH  17  18
ATOM     18  C   UNL     1       6.364   3.478  12.419  0.00  0.00    +0.000 C 
BRANCH  18  19
ATOM     19  C   UNL     1       5.480   2.389  11.827  0.00  0.00    +0.000 C 
BRANCH  19  21
ATOM     20  C   UNL     1       7.689   1.890  11.013  0.00  0.00    +0.000 C 
ATOM     21  N   UNL     1       6.274   1.497  10.954  0.00  0.00    +0.000 NA
ATOM     22  C   UNL     1       6.072   0.067  11.267  0.00  0.00    +0.000 C 
ENDBRANCH  19  21
ENDBRANCH  18  19
ENDBRANCH  17  18
ENDBRANCH  15  17
ENDBRANCH   1  15
TORSDOF 5
ENDMDL
MODEL 3
REMARK VINA RESULT:      -7.0      0.950      1.335
REMARK  Name = 
REMARK  7 active torsions:
REMARK  status: ('A' for Active; 'I' for Inactive)
REMARK    1  A    between atoms: C_1  and  N_2
REMARK    2  A    between atoms: N_2  and  C_3
REMARK    3  A    between atoms: N_2  and  C_4
REMARK    4  A    between atoms: C_4  and  C_5
REMARK    5  A    between atoms: C_5  and  O_6
REMARK    6  A    between atoms: O_6  and  C_7
REMARK    7  A    between atoms: C_7  and  C_9
REMARK                            x       y       z     vdW  Elec       q    Type
REMARK                         _______ _______ _______ _____ _____    ______ ____
ROOT
ATOM      1  C   UNL     1       5.675   6.073  17.170  0.00  0.00    +0.000 A 
ATOM      2  C   UNL     1       4.845   7.204  16.932  0.00  0.00    +0.000 A 
ATOM      3  C   UNL     1       3.578   7.291  17.534  0.00  0.00    +0.000 A 
ATOM      4  C   UNL     1       3.178   6.245  18.370  0.00  0.00    +0.000 A 
ATOM      5  N   UNL     1       2.027   6.123  19.042  0.00  0.00    +0.000 N 
ATOM      6  C   UNL     1       2.107   4.944  19.708  0.00  0.00    +0.000 A 
ATOM      7  C   UNL     1       3.327   4.329  19.464  0.00  0.00    +0.000 A 
ATOM      8  C   UNL     1       3.988   5.163  18.594  0.00  0.00    +0.000 A 
ATOM      9  C   UNL     1       5.232   5.036  18.008  0.00  0.00    +0.000 A 
ATOM     10  C   UNL     1       3.835   3.038  20.042  0.00  0.00    +0.000 C 
ATOM     11  S   UNL     1       2.752   2.357  21.357  0.00  0.00    +0.000 S 
ATOM     12  C   UNL     1       1.158   2.848  20.624  0.00  0.00    +0.000 C 
ATOM     13  C   UNL     1       1.023   4.371  20.557  0.00  0.00    +0.000 C 
ATOM     14  H   UNL     1       1.224   6.792  19.042  0.00  0.00    +0.000 HD
ENDROOT
BRANCH   1  15
ATOM     15  C   UNL     1       6.995   5.964  16.532  0.00  0.00    +0.000 C 
ATOM     16  O   UNL     1       7.769   6.893  16.548  0.00  0.00    +0.000 OA
BRANCH  15  17
ATOM     17  O   UNL     1       7.294   4.840  15.830  0.00  0.00    +0.000 OA
BRANCH  17  18
ATOM     18  C   UNL     1       7.113   4.805  14.472  0.00  0.00    +0.000 C 
BRANCH  18  19
ATOM     19  C   UNL     1       6.033   3.811  14.069  0.00  0.00    +0.000 C 
BRANCH  19  21
ATOM     20  C   UNL     1       4.887   3.394  11.995  0.00  0.00    +0.000 C 
ATOM     21  N   UNL     1       6.200   3.412  12.655  0.00  0.00    +0.000 NA
ATOM     22  C   UNL     1       7.181   4.254  11.937  0.00  0.00    +0.000 C 
ENDBRANCH  19  21
ENDBRANCH  18  19
ENDBRANCH  17  18
ENDBRANCH  15  17
ENDBRANCH   1  15
TORSDOF 5
ENDMDL
MODEL 4
REMARK VINA RESULT:      -7.0      1.421      1.677
REMARK  Name = 
REMARK  7 active torsions:
REMARK  status: ('A' for Active; 'I' for Inactive)
REMARK    1  A    between atoms: C_1  and  N_2
REMARK    2  A    between atoms: N_2  and  C_3
REMARK    3  A    between atoms: N_2  and  C_4
REMARK    4  A    between atoms: C_4  and  C_5
REMARK    5  A    between atoms: C_5  and  O_6
REMARK    6  A    between atoms: O_6  and  C_7
REMARK    7  A    between atoms: C_7  and  C_9
REMARK                            x       y       z     vdW  Elec       q    Type
REMARK                         _______ _______ _______ _____ _____    ______ ____
ROOT
ATOM      1  C   UNL     1       6.288   4.931  16.460  0.00  0.00    +0.000 A 
ATOM      2  C   UNL     1       6.852   5.801  17.435  0.00  0.00    +0.000 A 
ATOM      3  C   UNL     1       6.204   5.999  18.667  0.00  0.00    +0.000 A 
ATOM      4  C   UNL     1       5.009   5.312  18.894  0.00  0.00    +0.000 A 
ATOM      5  N   UNL     1       4.234   5.348  19.985  0.00  0.00    +0.000 N 
ATOM      6  C   UNL     1       3.192   4.517  19.730  0.00  0.00    +0.000 A 
ATOM      7  C   UNL     1       3.325   3.941  18.474  0.00  0.00    +0.000 A 
ATOM      8  C   UNL     1       4.477   4.473  17.948  0.00  0.00    +0.000 A 
ATOM      9  C   UNL     1       5.079   4.266  16.723  0.00  0.00    +0.000 A 
ATOM     10  C   UNL     1       2.419   2.931  17.828  0.00  0.00    +0.000 C 
ATOM     11  S   UNL     1       1.126   2.288  18.961  0.00  0.00    +0.000 S 
ATOM     12  C   UNL     1       0.813   3.840  19.863  0.00  0.00    +0.000 C 
ATOM     13  C   UNL     1       2.047   4.280  20.655  0.00  0.00    +0.000 C 
ATOM     14  H   UNL     1       4.390   5.912  20.850  0.00  0.00    +0.000 HD
ENDROOT
BRANCH   1  15
ATOM     15  C   UNL     1       6.949   4.729  15.163  0.00  0.00    +0.000 C 
ATOM     16  O   UNL     1       7.837   5.465  14.800  0.00  0.00    +0.000 OA
BRANCH  15  17
ATOM     17  O   UNL     1       6.477   3.767  14.328  0.00  0.00    +0.000 OA
BRANCH  17  18
ATOM     18  C   UNL     1       5.992   4.103  13.092  0.00  0.00    +0.000 C 
BRANCH  18  19
ATOM     19  C   UNL     1       6.514   3.172  12.006  0.00  0.00    +0.000 C 
BRANCH  19  21
ATOM     20  C   UNL     1       4.326   2.733  11.105  0.00  0.00    +0.000 C 
ATOM     21  N   UNL     1       5.520   2.119  11.706  0.00  0.00    +0.000 NA
ATOM     22  C   UNL     1       6.075   1.032  10.872  0.00  0.00    +0.000 C 
ENDBRANCH  19  21
ENDBRANCH  18  19
ENDBRANCH  17  18
ENDBRANCH  15  17
ENDBRANCH   1  15
TORSDOF 5
ENDMDL
MODEL 5
REMARK VINA RESULT:      -6.8      2.312      3.127
REMARK  Name = 
REMARK  7 active torsions:
REMARK  status: ('A' for Active; 'I' for Inactive)
REMARK    1  A    between atoms: C_1  and  N_2
REMARK    2  A    between atoms: N_2  and  C_3
REMARK    3  A    between atoms: N_2  and  C_4
REMARK    4  A    between atoms: C_4  and  C_5
REMARK    5  A    between atoms: C_5  and  O_6
REMARK    6  A    between atoms: O_6  and  C_7
REMARK    7  A    between atoms: C_7  and  C_9
REMARK                            x       y       z     vdW  Elec       q    Type
REMARK                         _______ _______ _______ _____ _____    ______ ____
ROOT
ATOM      1  C   UNL     1       5.330   5.410  16.906  0.00  0.00    +0.000 A 
ATOM      2  C   UNL     1       5.402   4.436  17.941  0.00  0.00    +0.000 A 
ATOM      3  C   UNL     1       4.600   4.562  19.089  0.00  0.00    +0.000 A 
ATOM      4  C   UNL     1       3.738   5.659  19.167  0.00  0.00    +0.000 A 
ATOM      5  N   UNL     1       2.892   5.972  20.155  0.00  0.00    +0.000 N 
ATOM      6  C   UNL     1       2.277   7.119  19.772  0.00  0.00    +0.000 A 
ATOM      7  C   UNL     1       2.731   7.520  18.523  0.00  0.00    +0.000 A 
ATOM      8  C   UNL     1       3.675   6.589  18.161  0.00  0.00    +0.000 A 
ATOM      9  C   UNL     1       4.457   6.504  17.027  0.00  0.00    +0.000 A 
ATOM     10  C   UNL     1       2.276   8.705  17.719  0.00  0.00    +0.000 C 
ATOM     11  S   UNL     1       0.820   9.555  18.442  0.00  0.00    +0.000 S 
ATOM     12  C   UNL     1       1.273   9.343  20.195  0.00  0.00    +0.000 C 
ATOM     13  C   UNL     1       1.279   7.864  20.591  0.00  0.00    +0.000 C 
ATOM     14  H   UNL     1       2.744   5.448  21.047  0.00  0.00    +0.000 HD
ENDROOT
BRANCH   1  15
ATOM     15  C   UNL     1       6.175   5.296  15.710  0.00  0.00    +0.000 C 
ATOM     16  O   UNL     1       7.283   5.781  15.685  0.00  0.00    +0.000 OA
BRANCH  15  17
ATOM     17  O   UNL     1       5.655   4.728  14.590  0.00  0.00    +0.000 OA
BRANCH  17  18
ATOM     18  C   UNL     1       6.310   3.695  13.972  0.00  0.00    +0.000 C 
BRANCH  18  19
ATOM     19  C   UNL     1       6.159   3.754  12.459  0.00  0.00    +0.000 C 
BRANCH  19  21
ATOM     20  C   UNL     1       4.200   3.110  11.217  0.00  0.00    +0.000 C 
ATOM     21  N   UNL     1       5.356   2.609  11.975  0.00  0.00    +0.000 NA
ATOM     22  C   UNL     1       6.159   1.637  11.202  0.00  0.00    +0.000 C 
ENDBRANCH  19  21
ENDBRANCH  18  19
ENDBRANCH  17  18
ENDBRANCH  15  17
ENDBRANCH   1  15
TORSDOF 5
ENDMDL
MODEL 6
REMARK VINA RESULT:      -6.8      0.777      1.062
REMARK  Name = 
REMARK  7 active torsions:
REMARK  status: ('A' for Active; 'I' for Inactive)
REMARK    1  A    between atoms: C_1  and  N_2
REMARK    2  A    between atoms: N_2  and  C_3
REMARK    3  A    between atoms: N_2  and  C_4
REMARK    4  A    between atoms: C_4  and  C_5
REMARK    5  A    between atoms: C_5  and  O_6
REMARK    6  A    between atoms: O_6  and  C_7
REMARK    7  A    between atoms: C_7  and  C_9
REMARK                            x       y       z     vdW  Elec       q    Type
REMARK                         _______ _______ _______ _____ _____    ______ ____
ROOT
ATOM      1  C   UNL     1       6.126   5.116  17.166  0.00  0.00    +0.000 A 
ATOM      2  C   UNL     1       5.642   6.419  16.855  0.00  0.00    +0.000 A 
ATOM      3  C   UNL     1       4.436   6.877  17.415  0.00  0.00    +0.000 A 
ATOM      4  C   UNL     1       3.750   6.022  18.281  0.00  0.00    +0.000 A 
ATOM      5  N   UNL     1       2.598   6.251  18.921  0.00  0.00    +0.000 N 
ATOM      6  C   UNL     1       2.339   5.129  19.639  0.00  0.00    +0.000 A 
ATOM      7  C   UNL     1       3.349   4.193  19.458  0.00  0.00    +0.000 A 
ATOM      8  C   UNL     1       4.229   4.771  18.575  0.00  0.00    +0.000 A 
ATOM      9  C   UNL     1       5.401   4.282  18.033  0.00  0.00    +0.000 A 
ATOM     10  C   UNL     1       3.474   2.842  20.105  0.00  0.00    +0.000 C 
ATOM     11  S   UNL     1       2.223   2.548  21.414  0.00  0.00    +0.000 S 
ATOM     12  C   UNL     1       0.837   3.418  20.613  0.00  0.00    +0.000 C 
ATOM     13  C   UNL     1       1.125   4.915  20.477  0.00  0.00    +0.000 C 
ATOM     14  H   UNL     1       2.009   7.113  18.869  0.00  0.00    +0.000 HD
ENDROOT
BRANCH   1  15
ATOM     15  C   UNL     1       7.376   4.621  16.574  0.00  0.00    +0.000 C 
ATOM     16  O   UNL     1       8.263   4.186  17.272  0.00  0.00    +0.000 OA
BRANCH  15  17
ATOM     17  O   UNL     1       7.568   4.757  15.235  0.00  0.00    +0.000 OA
BRANCH  17  18
ATOM     18  C   UNL     1       6.495   4.915  14.397  0.00  0.00    +0.000 C 
BRANCH  18  19
ATOM     19  C   UNL     1       6.016   3.585  13.833  0.00  0.00    +0.000 C 
BRANCH  19  21
ATOM     20  C   UNL     1       7.230   4.229  11.858  0.00  0.00    +0.000 C 
ATOM     21  N   UNL     1       5.982   3.633  12.355  0.00  0.00    +0.000 NA
ATOM     22  C   UNL     1       5.707   2.313  11.749  0.00  0.00    +0.000 C 
ENDBRANCH  19  21
ENDBRANCH  18  19
ENDBRANCH  17  18
ENDBRANCH  15  17
ENDBRANCH   1  15
TORSDOF 5
ENDMDL
MODEL 7
REMARK VINA RESULT:      -6.8      3.336      7.067
REMARK  Name = 
REMARK  7 active torsions:
REMARK  status: ('A' for Active; 'I' for Inactive)
REMARK    1  A    between atoms: C_1  and  N_2
REMARK    2  A    between atoms: N_2  and  C_3
REMARK    3  A    between atoms: N_2  and  C_4
REMARK    4  A    between atoms: C_4  and  C_5
REMARK    5  A    between atoms: C_5  and  O_6
REMARK    6  A    between atoms: O_6  and  C_7
REMARK    7  A    between atoms: C_7  and  C_9
REMARK                            x       y       z     vdW  Elec       q    Type
REMARK                         _______ _______ _______ _____ _____    ______ ____
ROOT
ATOM      1  C   UNL     1       5.381   4.529  18.160  0.00  0.00    +0.000 A 
ATOM      2  C   UNL     1       6.454   5.431  18.411  0.00  0.00    +0.000 A 
ATOM      3  C   UNL     1       7.291   5.845  17.360  0.00  0.00    +0.000 A 
ATOM      4  C   UNL     1       7.026   5.351  16.080  0.00  0.00    +0.000 A 
ATOM      5  N   UNL     1       7.685   5.611  14.945  0.00  0.00    +0.000 N 
ATOM      6  C   UNL     1       7.055   4.902  13.976  0.00  0.00    +0.000 A 
ATOM      7  C   UNL     1       5.979   4.203  14.506  0.00  0.00    +0.000 A 
ATOM      8  C   UNL     1       5.987   4.485  15.851  0.00  0.00    +0.000 A 
ATOM      9  C   UNL     1       5.154   4.046  16.861  0.00  0.00    +0.000 A 
ATOM     10  C   UNL     1       4.995   3.338  13.770  0.00  0.00    +0.000 C 
ATOM     11  S   UNL     1       5.180   3.420  11.947  0.00  0.00    +0.000 S 
ATOM     12  C   UNL     1       6.997   3.549  11.902  0.00  0.00    +0.000 C 
ATOM     13  C   UNL     1       7.477   4.852  12.546  0.00  0.00    +0.000 C 
ATOM     14  H   UNL     1       8.523   6.224  14.830  0.00  0.00    +0.000 HD
ENDROOT
BRANCH   1  15
ATOM     15  C   UNL     1       4.511   4.078  19.255  0.00  0.00    +0.000 C 
ATOM     16  O   UNL     1       4.509   2.921  19.609  0.00  0.00    +0.000 OA
BRANCH  15  17
ATOM     17  O   UNL     1       3.627   4.957  19.796  0.00  0.00    +0.000 OA
BRANCH  17  18
ATOM     18  C   UNL     1       2.323   4.971  19.377  0.00  0.00    +0.000 C 
BRANCH  18  19
ATOM     19  C   UNL     1       1.354   4.778  20.535  0.00  0.00    +0.000 C 
BRANCH  19  21
ATOM     20  C   UNL     1       0.953   2.788  19.241  0.00  0.00    +0.000 C 
ATOM     21  N   UNL     1       0.884   3.376  20.587  0.00  0.00    +0.000 NA
ATOM     22  C   UNL     1       1.609   2.569  21.592  0.00  0.00    +0.000 C 
ENDBRANCH  19  21
ENDBRANCH  18  19
ENDBRANCH  17  18
ENDBRANCH  15  17
ENDBRANCH   1  15
TORSDOF 5
ENDMDL
MODEL 8
REMARK VINA RESULT:      -6.8      1.100      1.344
REMARK  Name = 
REMARK  7 active torsions:
REMARK  status: ('A' for Active; 'I' for Inactive)
REMARK    1  A    between atoms: C_1  and  N_2
REMARK    2  A    between atoms: N_2  and  C_3
REMARK    3  A    between atoms: N_2  and  C_4
REMARK    4  A    between atoms: C_4  and  C_5
REMARK    5  A    between atoms: C_5  and  O_6
REMARK    6  A    between atoms: O_6  and  C_7
REMARK    7  A    between atoms: C_7  and  C_9
REMARK                            x       y       z     vdW  Elec       q    Type
REMARK                         _______ _______ _______ _____ _____    ______ ____
ROOT
ATOM      1  C   UNL     1       5.713   5.264  15.823  0.00  0.00    +0.000 A 
ATOM      2  C   UNL     1       5.471   6.628  16.149  0.00  0.00    +0.000 A 
ATOM      3  C   UNL     1       4.481   6.965  17.089  0.00  0.00    +0.000 A 
ATOM      4  C   UNL     1       3.765   5.925  17.687  0.00  0.00    +0.000 A 
ATOM      5  N   UNL     1       2.791   6.014  18.600  0.00  0.00    +0.000 N 
ATOM      6  C   UNL     1       2.411   4.740  18.868  0.00  0.00    +0.000 A 
ATOM      7  C   UNL     1       3.167   3.842  18.127  0.00  0.00    +0.000 A 
ATOM      8  C   UNL     1       4.011   4.614  17.366  0.00  0.00    +0.000 A 
ATOM      9  C   UNL     1       4.964   4.247  16.437  0.00  0.00    +0.000 A 
ATOM     10  C   UNL     1       3.101   2.340  18.161  0.00  0.00    +0.000 C 
ATOM     11  S   UNL     1       2.019   1.693  19.494  0.00  0.00    +0.000 S 
ATOM     12  C   UNL     1       0.743   2.992  19.411  0.00  0.00    +0.000 C 
ATOM     13  C   UNL     1       1.314   4.357  19.802  0.00  0.00    +0.000 C 
ATOM     14  H   UNL     1       2.393   6.888  19.012  0.00  0.00    +0.000 HD
ENDROOT
BRANCH   1  15
ATOM     15  C   UNL     1       6.734   4.902  14.829  0.00  0.00    +0.000 C 
ATOM     16  O   UNL     1       7.801   5.470  14.802  0.00  0.00    +0.000 OA
BRANCH  15  17
ATOM     17  O   UNL     1       6.422   3.990  13.871  0.00  0.00    +0.000 OA
BRANCH  17  18
ATOM     18  C   UNL     1       6.651   4.272  12.550  0.00  0.00    +0.000 C 
BRANCH  18  19
ATOM     19  C   UNL     1       6.887   3.008  11.734  0.00  0.00    +0.000 C 
BRANCH  19  21
ATOM     20  C   UNL     1       4.531   2.874  11.262  0.00  0.00    +0.000 C 
ATOM     21  N   UNL     1       5.694   2.135  11.776  0.00  0.00    +0.000 NA
ATOM     22  C   UNL     1       5.902   0.852  11.073  0.00  0.00    +0.000 C 
ENDBRANCH  19  21
ENDBRANCH  18  19
ENDBRANCH  17  18
ENDBRANCH  15  17
ENDBRANCH   1  15
TORSDOF 5
ENDMDL
MODEL 9
REMARK VINA RESULT:      -6.6      4.112      5.460
REMARK  Name = 
REMARK  7 active torsions:
REMARK  status: ('A' for Active; 'I' for Inactive)
REMARK    1  A    between atoms: C_1  and  N_2
REMARK    2  A    between atoms: N_2  and  C_3
REMARK    3  A    between atoms: N_2  and  C_4
REMARK    4  A    between atoms: C_4  and  C_5
REMARK    5  A    between atoms: C_5  and  O_6
REMARK    6  A    between atoms: O_6  and  C_7
REMARK    7  A    between atoms: C_7  and  C_9
REMARK                            x       y       z     vdW  Elec       q    Type
REMARK                         _______ _______ _______ _____ _____    ______ ____
ROOT
ATOM      1  C   UNL     1       4.296   5.474  18.707  0.00  0.00    +0.000 A 
ATOM      2  C   UNL     1       4.570   6.006  17.415  0.00  0.00    +0.000 A 
ATOM      3  C   UNL     1       3.916   7.170  16.976  0.00  0.00    +0.000 A 
ATOM      4  C   UNL     1       3.009   7.779  17.848  0.00  0.00    +0.000 A 
ATOM      5  N   UNL     1       2.285   8.885  17.642  0.00  0.00    +0.000 N 
ATOM      6  C   UNL     1       1.561   9.075  18.773  0.00  0.00    +0.000 A 
ATOM      7  C   UNL     1       1.847   8.086  19.705  0.00  0.00    +0.000 A 
ATOM      8  C   UNL     1       2.757   7.259  19.092  0.00  0.00    +0.000 A 
ATOM      9  C   UNL     1       3.370   6.110  19.550  0.00  0.00    +0.000 A 
ATOM     10  C   UNL     1       1.301   7.954  21.099  0.00  0.00    +0.000 C 
ATOM     11  S   UNL     1       0.306   9.402  21.627  0.00  0.00    +0.000 S 
ATOM     12  C   UNL     1      -0.472   9.752  20.016  0.00  0.00    +0.000 C 
ATOM     13  C   UNL     1       0.571  10.171  18.976  0.00  0.00    +0.000 C 
ATOM     14  H   UNL     1       2.269   9.475  16.779  0.00  0.00    +0.000 HD
ENDROOT
BRANCH   1  15
ATOM     15  C   UNL     1       4.961   4.248  19.169  0.00  0.00    +0.000 C 
ATOM     16  O   UNL     1       6.167   4.154  19.155  0.00  0.00    +0.000 OA
BRANCH  15  17
ATOM     17  O   UNL     1       4.199   3.176  19.513  0.00  0.00    +0.000 OA
BRANCH  17  18
ATOM     18  C   UNL     1       3.459   2.522  18.563  0.00  0.00    +0.000 C 
BRANCH  18  19
ATOM     19  C   UNL     1       2.155   1.983  19.134  0.00  0.00    +0.000 C 
BRANCH  19  21
ATOM     20  C   UNL     1       0.842   3.705  20.184  0.00  0.00    +0.000 C 
ATOM     21  N   UNL     1       1.061   2.959  18.937  0.00  0.00    +0.000 NA
ATOM     22  C   UNL     1       1.296   3.850  17.781  0.00  0.00    +0.000 C 
ENDBRANCH  19  21
ENDBRANCH  18  19
ENDBRANCH  17  18
ENDBRANCH  15  17
ENDBRANCH   1  15
TORSDOF 5
ENDMDL
