MODEL 1
REMARK VINA RESULT:      -6.8      0.000      0.000
REMARK  Name = 
REMARK  14 active torsions:
REMARK  status: ('A' for Active; 'I' for Inactive)
REMARK    1  A    between atoms: C_1  and  C_2
REMARK    2  A    between atoms: C_2  and  N_3
REMARK    3  A    between atoms: N_3  and  C_4
REMARK    4  A    between atoms: N_3  and  C_6
REMARK    5  A    between atoms: C_4  and  C_5
REMARK    6  A    between atoms: C_6  and  C_7
REMARK    7  A    between atoms: C_7  and  N_8
REMARK    8  A    between atoms: C_9  and  C_11
REMARK    9  A    between atoms: C_14  and  N_15
REMARK   10  A    between atoms: C_16  and  C_18
REMARK   11  A    between atoms: C_18  and  O_19
REMARK   12  A    between atoms: O_19  and  C_20
REMARK   13  A    between atoms: C_26  and  O_27
REMARK   14  A    between atoms: O_27  and  C_28
REMARK                            x       y       z     vdW  Elec       q    Type
REMARK                         _______ _______ _______ _____ _____    ______ ____
ROOT
ATOM      1  C   UNL     1       2.238   7.224  19.663  0.00  0.00    +0.000 A 
ATOM      2  C   UNL     1       2.274   8.080  18.544  0.00  0.00    +0.000 A 
ATOM      3  C   UNL     1       1.516   9.250  18.522  0.00  0.00    +0.000 A 
ATOM      4  C   UNL     1       0.704   9.593  19.606  0.00  0.00    +0.000 A 
ATOM      5  C   UNL     1       0.649   8.754  20.736  0.00  0.00    +0.000 A 
ATOM      6  C   UNL     1       1.423   7.581  20.753  0.00  0.00    +0.000 A 
ENDROOT
BRANCH   1   8
ATOM      7  N   UNL     1       4.142   5.746  18.978  0.00  0.00    +0.000 N 
ATOM      8  C   UNL     1       3.035   5.954  19.737  0.00  0.00    +0.000 C 
ATOM      9  O   UNL     1       2.661   5.074  20.504  0.00  0.00    +0.000 OA
ATOM     10  H   UNL     1       4.480   6.467  18.325  0.00  0.00    +0.000 HD
BRANCH   7  11
ATOM     11  C   UNL     1       4.915   4.532  19.111  0.00  0.00    +0.000 C 
BRANCH  11  12
ATOM     12  C   UNL     1       6.081   4.515  18.111  0.00  0.00    +0.000 C 
BRANCH  12  13
ATOM     13  N   UNL     1       6.067   5.666  17.179  0.00  0.00    +0.000 NA
BRANCH  13  15
ATOM     14  C   UNL     1       7.390   7.786  17.546  0.00  0.00    +0.000 C 
ATOM     15  C   UNL     1       7.411   6.296  17.183  0.00  0.00    +0.000 C 
ENDBRANCH  13  15
BRANCH  13  16
ATOM     16  C   UNL     1       5.553   5.338  15.820  0.00  0.00    +0.000 C 
ATOM     17  C   UNL     1       5.990   3.965  15.290  0.00  0.00    +0.000 C 
ENDBRANCH  13  16
ENDBRANCH  12  13
ENDBRANCH  11  12
ENDBRANCH   7  11
ENDBRANCH   1   8
BRANCH   4  18
ATOM     18  N   UNL     1      -0.121  10.744  19.512  0.00  0.00    +0.000 N 
ATOM     19  C   UNL     1      -1.256  10.791  18.769  0.00  0.00    +0.000 C 
ATOM     20  O   UNL     1      -1.603   9.830  18.094  0.00  0.00    +0.000 OA
ATOM     21  H   UNL     1       0.146  11.561  20.078  0.00  0.00    +0.000 HD
BRANCH  19  22
ATOM     22  C   UNL     1      -2.099  12.039  18.769  0.00  0.00    +0.000 C 
BRANCH  22  23
ATOM     23  O   UNL     1      -3.252  11.826  18.032  0.00  0.00    +0.000 OA
BRANCH  23  24
ATOM     24  C   UNL     1      -4.514  11.767  18.539  0.00  0.00    +0.000 A 
ATOM     25  C   UNL     1      -5.582  11.161  17.841  0.00  0.00    +0.000 A 
ATOM     26  C   UNL     1      -6.861  11.121  18.406  0.00  0.00    +0.000 A 
ATOM     27  C   UNL     1      -7.091  11.680  19.664  0.00  0.00    +0.000 A 
ATOM     28  C   UNL     1      -6.042  12.282  20.362  0.00  0.00    +0.000 A 
ATOM     29  C   UNL     1      -4.758  12.325  19.802  0.00  0.00    +0.000 A 
ENDBRANCH  23  24
ENDBRANCH  22  23
ENDBRANCH  19  22
ENDBRANCH   4  18
BRANCH   5  30
ATOM     30  O   UNL     1      -0.153   9.108  21.778  0.00  0.00    +0.000 OA
ATOM     31  C   UNL     1       0.280   9.521  23.023  0.00  0.00    +0.000 C 
ENDBRANCH   5  30
TORSDOF 11
ENDMDL
MODEL 2
REMARK VINA RESULT:      -6.8      1.697      2.164
REMARK  Name = 
REMARK  14 active torsions:
REMARK  status: ('A' for Active; 'I' for Inactive)
REMARK    1  A    between atoms: C_1  and  C_2
REMARK    2  A    between atoms: C_2  and  N_3
REMARK    3  A    between atoms: N_3  and  C_4
REMARK    4  A    between atoms: N_3  and  C_6
REMARK    5  A    between atoms: C_4  and  C_5
REMARK    6  A    between atoms: C_6  and  C_7
REMARK    7  A    between atoms: C_7  and  N_8
REMARK    8  A    between atoms: C_9  and  C_11
REMARK    9  A    between atoms: C_14  and  N_15
REMARK   10  A    between atoms: C_16  and  C_18
REMARK   11  A    between atoms: C_18  and  O_19
REMARK   12  A    between atoms: O_19  and  C_20
REMARK   13  A    between atoms: C_26  and  O_27
REMARK   14  A    between atoms: O_27  and  C_28
REMARK                            x       y       z     vdW  Elec       q    Type
REMARK                         _______ _______ _______ _____ _____    ______ ____
ROOT
ATOM      1  C   UNL     1       2.272   7.466  18.857  0.00  0.00    +0.000 A 
ATOM      2  C   UNL     1       2.135   8.405  17.814  0.00  0.00    +0.000 A 
ATOM      3  C   UNL     1       1.544   9.645  18.051  0.00  0.00    +0.000 A 
ATOM      4  C   UNL     1       1.074   9.980  19.324  0.00  0.00    +0.000 A 
ATOM      5  C   UNL     1       1.198   9.059  20.383  0.00  0.00    +0.000 A 
ATOM      6  C   UNL     1       1.803   7.814  20.137  0.00  0.00    +0.000 A 
ENDROOT
BRANCH   1   8
ATOM      7  N   UNL     1       4.027   5.737  19.311  0.00  0.00    +0.000 N 
ATOM      8  C   UNL     1       2.901   6.118  18.656  0.00  0.00    +0.000 C 
ATOM      9  O   UNL     1       2.380   5.344  17.861  0.00  0.00    +0.000 OA
ATOM     10  H   UNL     1       4.488   6.366  19.984  0.00  0.00    +0.000 HD
BRANCH   7  11
ATOM     11  C   UNL     1       4.578   4.412  19.131  0.00  0.00    +0.000 C 
BRANCH  11  12
ATOM     12  C   UNL     1       5.885   4.470  18.326  0.00  0.00    +0.000 C 
BRANCH  12  13
ATOM     13  N   UNL     1       6.011   5.696  17.504  0.00  0.00    +0.000 NA
BRANCH  13  15
ATOM     14  C   UNL     1       7.922   5.829  19.150  0.00  0.00    +0.000 C 
ATOM     15  C   UNL     1       7.260   6.399  17.889  0.00  0.00    +0.000 C 
ENDBRANCH  13  15
BRANCH  13  16
ATOM     16  C   UNL     1       5.872   5.459  16.040  0.00  0.00    +0.000 C 
ATOM     17  C   UNL     1       6.107   4.005  15.607  0.00  0.00    +0.000 C 
ENDBRANCH  13  16
ENDBRANCH  12  13
ENDBRANCH  11  12
ENDBRANCH   7  11
ENDBRANCH   1   8
BRANCH   4  18
ATOM     18  N   UNL     1       0.399  11.214  19.507  0.00  0.00    +0.000 N 
ATOM     19  C   UNL     1      -0.934  11.374  19.309  0.00  0.00    +0.000 C 
ATOM     20  O   UNL     1      -1.623  10.444  18.910  0.00  0.00    +0.000 OA
ATOM     21  H   UNL     1       0.957  12.008  19.851  0.00  0.00    +0.000 HD
BRANCH  19  22
ATOM     22  C   UNL     1      -1.577  12.709  19.579  0.00  0.00    +0.000 C 
BRANCH  22  23
ATOM     23  O   UNL     1      -2.907  12.529  19.919  0.00  0.00    +0.000 OA
BRANCH  23  24
ATOM     24  C   UNL     1      -3.422  12.634  21.175  0.00  0.00    +0.000 A 
ATOM     25  C   UNL     1      -4.782  12.932  21.412  0.00  0.00    +0.000 A 
ATOM     26  C   UNL     1      -5.265  13.025  22.721  0.00  0.00    +0.000 A 
ATOM     27  C   UNL     1      -4.407  12.824  23.803  0.00  0.00    +0.000 A 
ATOM     28  C   UNL     1      -3.059  12.531  23.580  0.00  0.00    +0.000 A 
ATOM     29  C   UNL     1      -2.569  12.436  22.270  0.00  0.00    +0.000 A 
ENDBRANCH  23  24
ENDBRANCH  22  23
ENDBRANCH  19  22
ENDBRANCH   4  18
BRANCH   5  30
ATOM     30  O   UNL     1       0.729   9.407  21.613  0.00  0.00    +0.000 OA
ATOM     31  C   UNL     1      -0.445   8.953  22.183  0.00  0.00    +0.000 C 
ENDBRANCH   5  30
TORSDOF 11
ENDMDL
MODEL 3
REMARK VINA RESULT:      -6.8      0.832      1.534
REMARK  Name = 
REMARK  14 active torsions:
REMARK  status: ('A' for Active; 'I' for Inactive)
REMARK    1  A    between atoms: C_1  and  C_2
REMARK    2  A    between atoms: C_2  and  N_3
REMARK    3  A    between atoms: N_3  and  C_4
REMARK    4  A    between atoms: N_3  and  C_6
REMARK    5  A    between atoms: C_4  and  C_5
REMARK    6  A    between atoms: C_6  and  C_7
REMARK    7  A    between atoms: C_7  and  N_8
REMARK    8  A    between atoms: C_9  and  C_11
REMARK    9  A    between atoms: C_14  and  N_15
REMARK   10  A    between atoms: C_16  and  C_18
REMARK   11  A    between atoms: C_18  and  O_19
REMARK   12  A    between atoms: O_19  and  C_20
REMARK   13  A    between atoms: C_26  and  O_27
REMARK   14  A    between atoms: O_27  and  C_28
REMARK                            x       y       z     vdW  Elec       q    Type
REMARK                         _______ _______ _______ _____ _____    ______ ____
ROOT
ATOM      1  C   UNL     1       2.360   7.408  19.124  0.00  0.00    +0.000 A 
ATOM      2  C   UNL     1       2.201   8.112  17.913  0.00  0.00    +0.000 A 
ATOM      3  C   UNL     1       1.415   9.263  17.861  0.00  0.00    +0.000 A 
ATOM      4  C   UNL     1       0.770   9.738  19.006  0.00  0.00    +0.000 A 
ATOM      5  C   UNL     1       0.913   9.053  20.228  0.00  0.00    +0.000 A 
ATOM      6  C   UNL     1       1.713   7.898  20.273  0.00  0.00    +0.000 A 
ENDROOT
BRANCH   1   8
ATOM      7  N   UNL     1       4.061   5.783  18.261  0.00  0.00    +0.000 N 
ATOM      8  C   UNL     1       3.194   6.165  19.234  0.00  0.00    +0.000 C 
ATOM      9  O   UNL     1       3.075   5.469  20.236  0.00  0.00    +0.000 OA
ATOM     10  H   UNL     1       4.182   6.348  17.407  0.00  0.00    +0.000 HD
BRANCH   7  11
ATOM     11  C   UNL     1       4.885   4.607  18.421  0.00  0.00    +0.000 C 
BRANCH  11  12
ATOM     12  C   UNL     1       5.276   4.024  17.054  0.00  0.00    +0.000 C 
BRANCH  12  13
ATOM     13  N   UNL     1       6.666   4.350  16.657  0.00  0.00    +0.000 NA
BRANCH  13  15
ATOM     14  C   UNL     1       6.331   4.097  14.166  0.00  0.00    +0.000 C 
ATOM     15  C   UNL     1       6.634   5.036  15.340  0.00  0.00    +0.000 C 
ENDBRANCH  13  15
BRANCH  13  16
ATOM     16  C   UNL     1       7.441   5.073  17.702  0.00  0.00    +0.000 C 
ATOM     17  C   UNL     1       7.489   6.597  17.516  0.00  0.00    +0.000 C 
ENDBRANCH  13  16
ENDBRANCH  12  13
ENDBRANCH  11  12
ENDBRANCH   7  11
ENDBRANCH   1   8
BRANCH   4  18
ATOM     18  N   UNL     1      -0.091  10.860  18.896  0.00  0.00    +0.000 N 
ATOM     19  C   UNL     1      -1.399  10.768  18.549  0.00  0.00    +0.000 C 
ATOM     20  O   UNL     1      -1.896   9.685  18.264  0.00  0.00    +0.000 OA
ATOM     21  H   UNL     1       0.303  11.780  19.139  0.00  0.00    +0.000 HD
BRANCH  19  22
ATOM     22  C   UNL     1      -2.254  12.007  18.508  0.00  0.00    +0.000 C 
BRANCH  22  23
ATOM     23  O   UNL     1      -3.407  11.759  17.784  0.00  0.00    +0.000 OA
BRANCH  23  24
ATOM     24  C   UNL     1      -4.677  11.993  18.215  0.00  0.00    +0.000 A 
ATOM     25  C   UNL     1      -5.785  11.995  17.340  0.00  0.00    +0.000 A 
ATOM     26  C   UNL     1      -7.072  12.235  17.832  0.00  0.00    +0.000 A 
ATOM     27  C   UNL     1      -7.270  12.476  19.193  0.00  0.00    +0.000 A 
ATOM     28  C   UNL     1      -6.180  12.478  20.067  0.00  0.00    +0.000 A 
ATOM     29  C   UNL     1      -4.889  12.236  19.580  0.00  0.00    +0.000 A 
ENDBRANCH  23  24
ENDBRANCH  22  23
ENDBRANCH  19  22
ENDBRANCH   4  18
BRANCH   5  30
ATOM     30  O   UNL     1       0.270   9.533  21.328  0.00  0.00    +0.000 OA
ATOM     31  C   UNL     1      -0.347   8.767  22.298  0.00  0.00    +0.000 C 
ENDBRANCH   5  30
TORSDOF 11
ENDMDL
MODEL 4
REMARK VINA RESULT:      -6.7      3.071      3.439
REMARK  Name = 
REMARK  14 active torsions:
REMARK  status: ('A' for Active; 'I' for Inactive)
REMARK    1  A    between atoms: C_1  and  C_2
REMARK    2  A    between atoms: C_2  and  N_3
REMARK    3  A    between atoms: N_3  and  C_4
REMARK    4  A    between atoms: N_3  and  C_6
REMARK    5  A    between atoms: C_4  and  C_5
REMARK    6  A    between atoms: C_6  and  C_7
REMARK    7  A    between atoms: C_7  and  N_8
REMARK    8  A    between atoms: C_9  and  C_11
REMARK    9  A    between atoms: C_14  and  N_15
REMARK   10  A    between atoms: C_16  and  C_18
REMARK   11  A    between atoms: C_18  and  O_19
REMARK   12  A    between atoms: O_19  and  C_20
REMARK   13  A    between atoms: C_26  and  O_27
REMARK   14  A    between atoms: O_27  and  C_28
REMARK                            x       y       z     vdW  Elec       q    Type
REMARK                         _______ _______ _______ _____ _____    ______ ____
ROOT
ATOM      1  C   UNL     1       2.022   7.847  19.311  0.00  0.00    +0.000 A 
ATOM      2  C   UNL     1       1.763   8.846  18.351  0.00  0.00    +0.000 A 
ATOM      3  C   UNL     1       1.159  10.047  18.723  0.00  0.00    +0.000 A 
ATOM      4  C   UNL     1       0.798  10.281  20.053  0.00  0.00    +0.000 A 
ATOM      5  C   UNL     1       1.046   9.298  21.031  0.00  0.00    +0.000 A 
ATOM      6  C   UNL     1       1.661   8.094  20.648  0.00  0.00    +0.000 A 
ENDROOT
BRANCH   1   8
ATOM      7  N   UNL     1       3.592   5.948  19.766  0.00  0.00    +0.000 N 
ATOM      8  C   UNL     1       2.669   6.538  18.963  0.00  0.00    +0.000 C 
ATOM      9  O   UNL     1       2.357   5.994  17.910  0.00  0.00    +0.000 OA
ATOM     10  H   UNL     1       3.875   6.381  20.657  0.00  0.00    +0.000 HD
BRANCH   7  11
ATOM     11  C   UNL     1       4.158   4.663  19.425  0.00  0.00    +0.000 C 
BRANCH  11  12
ATOM     12  C   UNL     1       5.647   4.799  19.072  0.00  0.00    +0.000 C 
BRANCH  12  13
ATOM     13  N   UNL     1       5.878   5.319  17.704  0.00  0.00    +0.000 NA
BRANCH  13  15
ATOM     14  C   UNL     1       7.532   7.222  17.559  0.00  0.00    +0.000 C 
ATOM     15  C   UNL     1       7.306   5.706  17.579  0.00  0.00    +0.000 C 
ENDBRANCH  13  15
BRANCH  13  16
ATOM     16  C   UNL     1       5.395   4.416  16.623  0.00  0.00    +0.000 C 
ATOM     17  C   UNL     1       5.575   4.972  15.204  0.00  0.00    +0.000 C 
ENDBRANCH  13  16
ENDBRANCH  12  13
ENDBRANCH  11  12
ENDBRANCH   7  11
ENDBRANCH   1   8
BRANCH   4  18
ATOM     18  N   UNL     1       0.107  11.476  20.379  0.00  0.00    +0.000 N 
ATOM     19  C   UNL     1       0.714  12.574  20.894  0.00  0.00    +0.000 C 
ATOM     20  O   UNL     1       1.912  12.566  21.148  0.00  0.00    +0.000 OA
ATOM     21  H   UNL     1      -0.900  11.509  20.166  0.00  0.00    +0.000 HD
BRANCH  19  22
ATOM     22  C   UNL     1      -0.090  13.819  21.161  0.00  0.00    +0.000 C 
BRANCH  22  23
ATOM     23  O   UNL     1      -0.287  13.967  22.524  0.00  0.00    +0.000 OA
BRANCH  23  24
ATOM     24  C   UNL     1      -1.465  13.774  23.177  0.00  0.00    +0.000 A 
ATOM     25  C   UNL     1      -2.071  14.782  23.959  0.00  0.00    +0.000 A 
ATOM     26  C   UNL     1      -3.286  14.537  24.608  0.00  0.00    +0.000 A 
ATOM     27  C   UNL     1      -3.908  13.293  24.488  0.00  0.00    +0.000 A 
ATOM     28  C   UNL     1      -3.317  12.289  23.718  0.00  0.00    +0.000 A 
ATOM     29  C   UNL     1      -2.100  12.529  23.065  0.00  0.00    +0.000 A 
ENDBRANCH  23  24
ENDBRANCH  22  23
ENDBRANCH  19  22
ENDBRANCH   4  18
BRANCH   5  30
ATOM     30  O   UNL     1       0.680   9.548  22.319  0.00  0.00    +0.000 OA
ATOM     31  C   UNL     1      -0.506   9.157  22.909  0.00  0.00    +0.000 C 
ENDBRANCH   5  30
TORSDOF 11
ENDMDL
MODEL 5
REMARK VINA RESULT:      -6.7      2.386      3.538
REMARK  Name = 
REMARK  14 active torsions:
REMARK  status: ('A' for Active; 'I' for Inactive)
REMARK    1  A    between atoms: C_1  and  C_2
REMARK    2  A    between atoms: C_2  and  N_3
REMARK    3  A    between atoms: N_3  and  C_4
REMARK    4  A    between atoms: N_3  and  C_6
REMARK    5  A    between atoms: C_4  and  C_5
REMARK    6  A    between atoms: C_6  and  C_7
REMARK    7  A    between atoms: C_7  and  N_8
REMARK    8  A    between atoms: C_9  and  C_11
REMARK    9  A    between atoms: C_14  and  N_15
REMARK   10  A    between atoms: C_16  and  C_18
REMARK   11  A    between atoms: C_18  and  O_19
REMARK   12  A    between atoms: O_19  and  C_20
REMARK   13  A    between atoms: C_26  and  O_27
REMARK   14  A    between atoms: O_27  and  C_28
REMARK                            x       y       z     vdW  Elec       q    Type
REMARK                         _______ _______ _______ _____ _____    ______ ____
ROOT
ATOM      1  C   UNL     1       2.671   7.442  18.660  0.00  0.00    +0.000 A 
ATOM      2  C   UNL     1       2.440   8.422  17.673  0.00  0.00    +0.000 A 
ATOM      3  C   UNL     1       1.640   9.530  17.949  0.00  0.00    +0.000 A 
ATOM      4  C   UNL     1       1.050   9.688  19.207  0.00  0.00    +0.000 A 
ATOM      5  C   UNL     1       1.264   8.722  20.209  0.00  0.00    +0.000 A 
ATOM      6  C   UNL     1       2.079   7.612  19.924  0.00  0.00    +0.000 A 
ENDROOT
BRANCH   1   8
ATOM      7  N   UNL     1       4.236   5.632  19.402  0.00  0.00    +0.000 N 
ATOM      8  C   UNL     1       3.523   6.231  18.414  0.00  0.00    +0.000 C 
ATOM      9  O   UNL     1       3.582   5.779  17.276  0.00  0.00    +0.000 OA
ATOM     10  H   UNL     1       4.208   5.989  20.368  0.00  0.00    +0.000 HD
BRANCH   7  11
ATOM     11  C   UNL     1       5.007   4.438  19.142  0.00  0.00    +0.000 C 
BRANCH  11  12
ATOM     12  C   UNL     1       4.277   3.192  19.663  0.00  0.00    +0.000 C 
BRANCH  12  13
ATOM     13  N   UNL     1       2.876   3.095  19.189  0.00  0.00    +0.000 NA
BRANCH  13  15
ATOM     14  C   UNL     1       3.913   0.996  18.242  0.00  0.00    +0.000 C 
ATOM     15  C   UNL     1       2.803   2.048  18.139  0.00  0.00    +0.000 C 
ENDBRANCH  13  15
BRANCH  13  16
ATOM     16  C   UNL     1       1.877   2.932  20.282  0.00  0.00    +0.000 C 
ATOM     17  C   UNL     1       0.899   4.106  20.427  0.00  0.00    +0.000 C 
ENDBRANCH  13  16
ENDBRANCH  12  13
ENDBRANCH  11  12
ENDBRANCH   7  11
ENDBRANCH   1   8
BRANCH   4  18
ATOM     18  N   UNL     1       0.172  10.781  19.423  0.00  0.00    +0.000 N 
ATOM     19  C   UNL     1      -1.075  10.854  18.893  0.00  0.00    +0.000 C 
ATOM     20  O   UNL     1      -1.491   9.976  18.147  0.00  0.00    +0.000 OA
ATOM     21  H   UNL     1       0.497  11.527  20.053  0.00  0.00    +0.000 HD
BRANCH  19  22
ATOM     22  C   UNL     1      -1.960  12.028  19.219  0.00  0.00    +0.000 C 
BRANCH  22  23
ATOM     23  O   UNL     1      -1.717  12.453  20.514  0.00  0.00    +0.000 OA
BRANCH  23  24
ATOM     24  C   UNL     1      -2.655  12.582  21.492  0.00  0.00    +0.000 A 
ATOM     25  C   UNL     1      -3.934  13.130  21.248  0.00  0.00    +0.000 A 
ATOM     26  C   UNL     1      -4.866  13.236  22.286  0.00  0.00    +0.000 A 
ATOM     27  C   UNL     1      -4.538  12.801  23.571  0.00  0.00    +0.000 A 
ATOM     28  C   UNL     1      -3.276  12.259  23.824  0.00  0.00    +0.000 A 
ATOM     29  C   UNL     1      -2.338  12.149  22.788  0.00  0.00    +0.000 A 
ENDBRANCH  23  24
ENDBRANCH  22  23
ENDBRANCH  19  22
ENDBRANCH   4  18
BRANCH   5  30
ATOM     30  O   UNL     1       0.675   8.897  21.424  0.00  0.00    +0.000 OA
ATOM     31  C   UNL     1      -0.596   8.479  21.769  0.00  0.00    +0.000 C 
ENDBRANCH   5  30
TORSDOF 11
ENDMDL
MODEL 6
REMARK VINA RESULT:      -6.6      2.299      2.804
REMARK  Name = 
REMARK  14 active torsions:
REMARK  status: ('A' for Active; 'I' for Inactive)
REMARK    1  A    between atoms: C_1  and  C_2
REMARK    2  A    between atoms: C_2  and  N_3
REMARK    3  A    between atoms: N_3  and  C_4
REMARK    4  A    between atoms: N_3  and  C_6
REMARK    5  A    between atoms: C_4  and  C_5
REMARK    6  A    between atoms: C_6  and  C_7
REMARK    7  A    between atoms: C_7  and  N_8
REMARK    8  A    between atoms: C_9  and  C_11
REMARK    9  A    between atoms: C_14  and  N_15
REMARK   10  A    between atoms: C_16  and  C_18
REMARK   11  A    between atoms: C_18  and  O_19
REMARK   12  A    between atoms: O_19  and  C_20
REMARK   13  A    between atoms: C_26  and  O_27
REMARK   14  A    between atoms: O_27  and  C_28
REMARK                            x       y       z     vdW  Elec       q    Type
REMARK                         _______ _______ _______ _____ _____    ______ ____
ROOT
ATOM      1  C   UNL     1       2.501   7.217  18.973  0.00  0.00    +0.000 A 
ATOM      2  C   UNL     1       2.380   7.942  17.770  0.00  0.00    +0.000 A 
ATOM      3  C   UNL     1       1.673   9.143  17.734  0.00  0.00    +0.000 A 
ATOM      4  C   UNL     1       1.069   9.649  18.889  0.00  0.00    +0.000 A 
ATOM      5  C   UNL     1       1.175   8.944  20.103  0.00  0.00    +0.000 A 
ATOM      6  C   UNL     1       1.896   7.737  20.131  0.00  0.00    +0.000 A 
ENDROOT
BRANCH   1   8
ATOM      7  N   UNL     1       3.879   5.367  17.995  0.00  0.00    +0.000 N 
ATOM      8  C   UNL     1       3.251   5.920  19.065  0.00  0.00    +0.000 C 
ATOM      9  O   UNL     1       3.284   5.340  20.144  0.00  0.00    +0.000 OA
ATOM     10  H   UNL     1       3.867   5.830  17.075  0.00  0.00    +0.000 HD
BRANCH   7  11
ATOM     11  C   UNL     1       4.634   4.142  18.130  0.00  0.00    +0.000 C 
BRANCH  11  12
ATOM     12  C   UNL     1       6.137   4.405  17.952  0.00  0.00    +0.000 C 
BRANCH  12  13
ATOM     13  N   UNL     1       6.443   5.293  16.807  0.00  0.00    +0.000 NA
BRANCH  13  15
ATOM     14  C   UNL     1       6.866   7.681  17.511  0.00  0.00    +0.000 C 
ATOM     15  C   UNL     1       7.453   6.292  17.238  0.00  0.00    +0.000 C 
ENDBRANCH  13  15
BRANCH  13  16
ATOM     16  C   UNL     1       6.799   4.567  15.557  0.00  0.00    +0.000 C 
ATOM     17  C   UNL     1       5.625   4.348  14.593  0.00  0.00    +0.000 C 
ENDBRANCH  13  16
ENDBRANCH  12  13
ENDBRANCH  11  12
ENDBRANCH   7  11
ENDBRANCH   1   8
BRANCH   4  18
ATOM     18  N   UNL     1       0.284  10.827  18.797  0.00  0.00    +0.000 N 
ATOM     19  C   UNL     1       0.798  12.079  18.902  0.00  0.00    +0.000 C 
ATOM     20  O   UNL     1       1.989  12.248  19.133  0.00  0.00    +0.000 OA
ATOM     21  H   UNL     1      -0.719  10.709  18.595  0.00  0.00    +0.000 HD
BRANCH  19  22
ATOM     22  C   UNL     1      -0.102  13.275  18.739  0.00  0.00    +0.000 C 
BRANCH  22  23
ATOM     23  O   UNL     1      -0.348  13.850  19.974  0.00  0.00    +0.000 OA
BRANCH  23  24
ATOM     24  C   UNL     1      -1.114  13.308  20.959  0.00  0.00    +0.000 A 
ATOM     25  C   UNL     1      -0.557  12.760  22.136  0.00  0.00    +0.000 A 
ATOM     26  C   UNL     1      -1.388  12.219  23.123  0.00  0.00    +0.000 A 
ATOM     27  C   UNL     1      -2.773  12.215  22.952  0.00  0.00    +0.000 A 
ATOM     28  C   UNL     1      -3.334  12.753  21.791  0.00  0.00    +0.000 A 
ATOM     29  C   UNL     1      -2.507  13.297  20.799  0.00  0.00    +0.000 A 
ENDBRANCH  23  24
ENDBRANCH  22  23
ENDBRANCH  19  22
ENDBRANCH   4  18
BRANCH   5  30
ATOM     30  O   UNL     1       0.574   9.455  21.213  0.00  0.00    +0.000 OA
ATOM     31  C   UNL     1      -0.394   8.822  21.968  0.00  0.00    +0.000 C 
ENDBRANCH   5  30
TORSDOF 11
ENDMDL
MODEL 7
REMARK VINA RESULT:      -6.6      2.064      3.190
REMARK  Name = 
REMARK  14 active torsions:
REMARK  status: ('A' for Active; 'I' for Inactive)
REMARK    1  A    between atoms: C_1  and  C_2
REMARK    2  A    between atoms: C_2  and  N_3
REMARK    3  A    between atoms: N_3  and  C_4
REMARK    4  A    between atoms: N_3  and  C_6
REMARK    5  A    between atoms: C_4  and  C_5
REMARK    6  A    between atoms: C_6  and  C_7
REMARK    7  A    between atoms: C_7  and  N_8
REMARK    8  A    between atoms: C_9  and  C_11
REMARK    9  A    between atoms: C_14  and  N_15
REMARK   10  A    between atoms: C_16  and  C_18
REMARK   11  A    between atoms: C_18  and  O_19
REMARK   12  A    between atoms: O_19  and  C_20
REMARK   13  A    between atoms: C_26  and  O_27
REMARK   14  A    between atoms: O_27  and  C_28
REMARK                            x       y       z     vdW  Elec       q    Type
REMARK                         _______ _______ _______ _____ _____    ______ ____
ROOT
ATOM      1  C   UNL     1       2.855   7.217  18.697  0.00  0.00    +0.000 A 
ATOM      2  C   UNL     1       2.598   8.145  17.668  0.00  0.00    +0.000 A 
ATOM      3  C   UNL     1       1.716   9.205  17.873  0.00  0.00    +0.000 A 
ATOM      4  C   UNL     1       1.068   9.366  19.101  0.00  0.00    +0.000 A 
ATOM      5  C   UNL     1       1.307   8.452  20.146  0.00  0.00    +0.000 A 
ATOM      6  C   UNL     1       2.204   7.390  19.932  0.00  0.00    +0.000 A 
ENDROOT
BRANCH   1   8
ATOM      7  N   UNL     1       4.032   5.165  19.522  0.00  0.00    +0.000 N 
ATOM      8  C   UNL     1       3.795   6.060  18.528  0.00  0.00    +0.000 C 
ATOM      9  O   UNL     1       4.374   5.930  17.455  0.00  0.00    +0.000 OA
ATOM     10  H   UNL     1       3.561   5.249  20.434  0.00  0.00    +0.000 HD
BRANCH   7  11
ATOM     11  C   UNL     1       4.905   4.033  19.308  0.00  0.00    +0.000 C 
BRANCH  11  12
ATOM     12  C   UNL     1       4.403   2.803  20.079  0.00  0.00    +0.000 C 
BRANCH  12  13
ATOM     13  N   UNL     1       3.290   2.102  19.398  0.00  0.00    +0.000 NA
BRANCH  13  15
ATOM     14  C   UNL     1       2.030   2.714  21.499  0.00  0.00    +0.000 C 
ATOM     15  C   UNL     1       2.007   2.580  19.972  0.00  0.00    +0.000 C 
ENDBRANCH  13  15
BRANCH  13  16
ATOM     16  C   UNL     1       3.353   2.165  17.912  0.00  0.00    +0.000 C 
ATOM     17  C   UNL     1       2.231   2.988  17.263  0.00  0.00    +0.000 C 
ENDBRANCH  13  16
ENDBRANCH  12  13
ENDBRANCH  11  12
ENDBRANCH   7  11
ENDBRANCH   1   8
BRANCH   4  18
ATOM     18  N   UNL     1       0.111  10.403  19.246  0.00  0.00    +0.000 N 
ATOM     19  C   UNL     1       0.400  11.619  19.775  0.00  0.00    +0.000 C 
ATOM     20  O   UNL     1       1.520  11.864  20.204  0.00  0.00    +0.000 OA
ATOM     21  H   UNL     1      -0.836  10.222  18.884  0.00  0.00    +0.000 HD
BRANCH  19  22
ATOM     22  C   UNL     1      -0.666  12.680  19.841  0.00  0.00    +0.000 C 
BRANCH  22  23
ATOM     23  O   UNL     1      -1.424  12.657  18.683  0.00  0.00    +0.000 OA
BRANCH  23  24
ATOM     24  C   UNL     1      -2.685  12.159  18.573  0.00  0.00    +0.000 A 
ATOM     25  C   UNL     1      -3.685  12.410  19.539  0.00  0.00    +0.000 A 
ATOM     26  C   UNL     1      -4.969  11.880  19.378  0.00  0.00    +0.000 A 
ATOM     27  C   UNL     1      -5.272  11.097  18.263  0.00  0.00    +0.000 A 
ATOM     28  C   UNL     1      -4.291  10.842  17.303  0.00  0.00    +0.000 A 
ATOM     29  C   UNL     1      -3.003  11.371  17.457  0.00  0.00    +0.000 A 
ENDBRANCH  23  24
ENDBRANCH  22  23
ENDBRANCH  19  22
ENDBRANCH   4  18
BRANCH   5  30
ATOM     30  O   UNL     1       0.660   8.627  21.331  0.00  0.00    +0.000 OA
ATOM     31  C   UNL     1       1.226   9.121  22.491  0.00  0.00    +0.000 C 
ENDBRANCH   5  30
TORSDOF 11
ENDMDL
MODEL 8
REMARK VINA RESULT:      -6.6      2.287      3.246
REMARK  Name = 
REMARK  14 active torsions:
REMARK  status: ('A' for Active; 'I' for Inactive)
REMARK    1  A    between atoms: C_1  and  C_2
REMARK    2  A    between atoms: C_2  and  N_3
REMARK    3  A    between atoms: N_3  and  C_4
REMARK    4  A    between atoms: N_3  and  C_6
REMARK    5  A    between atoms: C_4  and  C_5
REMARK    6  A    between atoms: C_6  and  C_7
REMARK    7  A    between atoms: C_7  and  N_8
REMARK    8  A    between atoms: C_9  and  C_11
REMARK    9  A    between atoms: C_14  and  N_15
REMARK   10  A    between atoms: C_16  and  C_18
REMARK   11  A    between atoms: C_18  and  O_19
REMARK   12  A    between atoms: O_19  and  C_20
REMARK   13  A    between atoms: C_26  and  O_27
REMARK   14  A    between atoms: O_27  and  C_28
REMARK                            x       y       z     vdW  Elec       q    Type
REMARK                         _______ _______ _______ _____ _____    ______ ____
ROOT
ATOM      1  C   UNL     1       1.943   7.768  19.609  0.00  0.00    +0.000 A 
ATOM      2  C   UNL     1       1.393   7.645  20.901  0.00  0.00    +0.000 A 
ATOM      3  C   UNL     1       0.516   8.611  21.393  0.00  0.00    +0.000 A 
ATOM      4  C   UNL     1       0.169   9.720  20.617  0.00  0.00    +0.000 A 
ATOM      5  C   UNL     1       0.705   9.867  19.323  0.00  0.00    +0.000 A 
ATOM      6  C   UNL     1       1.583   8.884  18.832  0.00  0.00    +0.000 A 
ENDROOT
BRANCH   1   8
ATOM      7  N   UNL     1       3.544   5.851  19.805  0.00  0.00    +0.000 N 
ATOM      8  C   UNL     1       2.891   6.758  19.033  0.00  0.00    +0.000 C 
ATOM      9  O   UNL     1       3.086   6.763  17.823  0.00  0.00    +0.000 OA
ATOM     10  H   UNL     1       3.402   5.823  20.825  0.00  0.00    +0.000 HD
BRANCH   7  11
ATOM     11  C   UNL     1       4.412   4.859  19.212  0.00  0.00    +0.000 C 
BRANCH  11  12
ATOM     12  C   UNL     1       5.880   5.305  19.285  0.00  0.00    +0.000 C 
BRANCH  12  13
ATOM     13  N   UNL     1       6.373   5.901  18.021  0.00  0.00    +0.000 NA
BRANCH  13  15
ATOM     14  C   UNL     1       7.792   7.955  17.638  0.00  0.00    +0.000 C 
ATOM     15  C   UNL     1       7.671   6.571  18.288  0.00  0.00    +0.000 C 
ENDBRANCH  13  15
BRANCH  13  16
ATOM     16  C   UNL     1       6.402   4.951  16.875  0.00  0.00    +0.000 C 
ATOM     17  C   UNL     1       5.562   5.388  15.666  0.00  0.00    +0.000 C 
ENDBRANCH  13  16
ENDBRANCH  12  13
ENDBRANCH  11  12
ENDBRANCH   7  11
ENDBRANCH   1   8
BRANCH   4  18
ATOM     18  N   UNL     1      -0.655  10.727  21.182  0.00  0.00    +0.000 N 
ATOM     19  C   UNL     1      -0.175  11.897  21.675  0.00  0.00    +0.000 C 
ATOM     20  O   UNL     1       1.028  12.121  21.692  0.00  0.00    +0.000 OA
ATOM     21  H   UNL     1      -1.672  10.563  21.171  0.00  0.00    +0.000 HD
BRANCH  19  22
ATOM     22  C   UNL     1      -1.129  12.932  22.210  0.00  0.00    +0.000 C 
BRANCH  22  23
ATOM     23  O   UNL     1      -1.983  12.352  23.132  0.00  0.00    +0.000 OA
BRANCH  23  24
ATOM     24  C   UNL     1      -3.333  12.520  23.174  0.00  0.00    +0.000 A 
ATOM     25  C   UNL     1      -4.064  12.478  24.383  0.00  0.00    +0.000 A 
ATOM     26  C   UNL     1      -5.450  12.662  24.375  0.00  0.00    +0.000 A 
ATOM     27  C   UNL     1      -6.122  12.888  23.172  0.00  0.00    +0.000 A 
ATOM     28  C   UNL     1      -5.409  12.931  21.972  0.00  0.00    +0.000 A 
ATOM     29  C   UNL     1      -4.020  12.748  21.973  0.00  0.00    +0.000 A 
ENDBRANCH  23  24
ENDBRANCH  22  23
ENDBRANCH  19  22
ENDBRANCH   4  18
BRANCH   5  30
ATOM     30  O   UNL     1       0.355  10.959  18.588  0.00  0.00    +0.000 OA
ATOM     31  C   UNL     1       1.167  12.045  18.325  0.00  0.00    +0.000 C 
ENDBRANCH   5  30
TORSDOF 11
ENDMDL
MODEL 9
REMARK VINA RESULT:      -6.6      3.027      4.237
REMARK  Name = 
REMARK  14 active torsions:
REMARK  status: ('A' for Active; 'I' for Inactive)
REMARK    1  A    between atoms: C_1  and  C_2
REMARK    2  A    between atoms: C_2  and  N_3
REMARK    3  A    between atoms: N_3  and  C_4
REMARK    4  A    between atoms: N_3  and  C_6
REMARK    5  A    between atoms: C_4  and  C_5
REMARK    6  A    between atoms: C_6  and  C_7
REMARK    7  A    between atoms: C_7  and  N_8
REMARK    8  A    between atoms: C_9  and  C_11
REMARK    9  A    between atoms: C_14  and  N_15
REMARK   10  A    between atoms: C_16  and  C_18
REMARK   11  A    between atoms: C_18  and  O_19
REMARK   12  A    between atoms: O_19  and  C_20
REMARK   13  A    between atoms: C_26  and  O_27
REMARK   14  A    between atoms: O_27  and  C_28
REMARK                            x       y       z     vdW  Elec       q    Type
REMARK                         _______ _______ _______ _____ _____    ______ ____
ROOT
ATOM      1  C   UNL     1       2.306   7.381  19.342  0.00  0.00    +0.000 A 
ATOM      2  C   UNL     1       2.380   8.199  18.196  0.00  0.00    +0.000 A 
ATOM      3  C   UNL     1       1.673   9.400  18.136  0.00  0.00    +0.000 A 
ATOM      4  C   UNL     1       0.877   9.813  19.208  0.00  0.00    +0.000 A 
ATOM      5  C   UNL     1       0.786   9.013  20.364  0.00  0.00    +0.000 A 
ATOM      6  C   UNL     1       1.508   7.808  20.419  0.00  0.00    +0.000 A 
ENDROOT
BRANCH   1   8
ATOM      7  N   UNL     1       3.919   5.655  18.508  0.00  0.00    +0.000 N 
ATOM      8  C   UNL     1       3.046   6.081  19.458  0.00  0.00    +0.000 C 
ATOM      9  O   UNL     1       2.843   5.378  20.441  0.00  0.00    +0.000 OA
ATOM     10  H   UNL     1       4.111   6.224  17.670  0.00  0.00    +0.000 HD
BRANCH   7  11
ATOM     11  C   UNL     1       4.653   4.421  18.675  0.00  0.00    +0.000 C 
BRANCH  11  12
ATOM     12  C   UNL     1       6.128   4.607  18.289  0.00  0.00    +0.000 C 
BRANCH  12  13
ATOM     13  N   UNL     1       6.383   5.863  17.544  0.00  0.00    +0.000 NA
BRANCH  13  15
ATOM     14  C   UNL     1       7.785   7.962  17.633  0.00  0.00    +0.000 C 
ATOM     15  C   UNL     1       7.576   6.526  18.129  0.00  0.00    +0.000 C 
ENDBRANCH  13  15
BRANCH  13  16
ATOM     16  C   UNL     1       6.448   5.687  16.067  0.00  0.00    +0.000 C 
ATOM     17  C   UNL     1       6.942   4.307  15.612  0.00  0.00    +0.000 C 
ENDBRANCH  13  16
ENDBRANCH  12  13
ENDBRANCH  11  12
ENDBRANCH   7  11
ENDBRANCH   1   8
BRANCH   4  18
ATOM     18  N   UNL     1       0.104  10.995  19.077  0.00  0.00    +0.000 N 
ATOM     19  C   UNL     1       0.581  12.235  19.350  0.00  0.00    +0.000 C 
ATOM     20  O   UNL     1       1.719  12.388  19.776  0.00  0.00    +0.000 OA
ATOM     21  H   UNL     1      -0.854  10.892  18.712  0.00  0.00    +0.000 HD
BRANCH  19  22
ATOM     22  C   UNL     1      -0.295  13.440  19.132  0.00  0.00    +0.000 C 
BRANCH  22  23
ATOM     23  O   UNL     1       0.344  14.576  19.599  0.00  0.00    +0.000 OA
BRANCH  23  24
ATOM     24  C   UNL     1       0.602  15.695  18.867  0.00  0.00    +0.000 A 
ATOM     25  C   UNL     1       1.913  16.078  18.509  0.00  0.00    +0.000 A 
ATOM     26  C   UNL     1       2.127  17.235  17.751  0.00  0.00    +0.000 A 
ATOM     27  C   UNL     1       1.046  18.018  17.344  0.00  0.00    +0.000 A 
ATOM     28  C   UNL     1      -0.255  17.648  17.695  0.00  0.00    +0.000 A 
ATOM     29  C   UNL     1      -0.475  16.491  18.453  0.00  0.00    +0.000 A 
ENDBRANCH  23  24
ENDBRANCH  22  23
ENDBRANCH  19  22
ENDBRANCH   4  18
BRANCH   5  30
ATOM     30  O   UNL     1       0.000   9.436  21.393  0.00  0.00    +0.000 OA
ATOM     31  C   UNL     1       0.413   9.613  22.699  0.00  0.00    +0.000 C 
ENDBRANCH   5  30
TORSDOF 11
ENDMDL
