MODEL 1
REMARK VINA RESULT:      -7.3      0.000      0.000
REMARK  Name = 
REMARK  1 active torsions:
REMARK  status: ('A' for Active; 'I' for Inactive)
REMARK    1  A    between atoms: C_6  and  C_7
REMARK                            x       y       z     vdW  Elec       q    Type
REMARK                         _______ _______ _______ _____ _____    ______ ____
ROOT
ATOM      1  O   UNL     1      -0.397  12.221  18.717  0.00  0.00    +0.000 OA
ATOM      2  C   UNL     1       0.124  11.191  19.097  0.00  0.00    +0.000 A 
ATOM      3  N   UNL     1       0.902  10.462  18.146  0.00  0.00    +0.000 N 
ATOM      4  C   UNL     1       1.486   9.283  18.549  0.00  0.00    +0.000 A 
ATOM      5  C   UNL     1       2.275   8.436  17.826  0.00  0.00    +0.000 A 
ATOM      6  C   UNL     1       2.570   7.380  18.732  0.00  0.00    +0.000 A 
ATOM      7  N   UNL     1       2.007   7.578  19.939  0.00  0.00    +0.000 NA
ATOM      8  N   UNL     1       1.365   8.755  19.809  0.00  0.00    +0.000 N 
ATOM      9  C   UNL     1       0.641   9.418  20.816  0.00  0.00    +0.000 A 
ATOM     10  C   UNL     1       0.549   8.904  22.109  0.00  0.00    +0.000 A 
ATOM     11  C   UNL     1      -0.170   9.620  23.071  0.00  0.00    +0.000 A 
ATOM     12  C   UNL     1      -0.792  10.829  22.742  0.00  0.00    +0.000 A 
ATOM     13  C   UNL     1      -0.704  11.339  21.446  0.00  0.00    +0.000 A 
ATOM     14  C   UNL     1       0.018  10.636  20.476  0.00  0.00    +0.000 A 
ATOM     15  H   UNL     1       0.999  10.825  17.206  0.00  0.00    +0.000 HD
ENDROOT
BRANCH   6  16
ATOM     16  C   UNL     1       3.407   6.176  18.412  0.00  0.00    +0.000 A 
ATOM     17  C   UNL     1       4.151   6.023  17.260  0.00  0.00    +0.000 A 
ATOM     18  C   UNL     1       4.836   4.769  17.223  0.00  0.00    +0.000 A 
ATOM     19  C   UNL     1       4.588   4.011  18.346  0.00  0.00    +0.000 A 
ATOM     20  S   UNL     1       3.555   4.817  19.442  0.00  0.00    +0.000 S 
ENDBRANCH   6  16
TORSDOF 1
ENDMDL
MODEL 2
REMARK VINA RESULT:      -7.3      4.249      5.967
REMARK  Name = 
REMARK  1 active torsions:
REMARK  status: ('A' for Active; 'I' for Inactive)
REMARK    1  A    between atoms: C_6  and  C_7
REMARK                            x       y       z     vdW  Elec       q    Type
REMARK                         _______ _______ _______ _____ _____    ______ ____
ROOT
ATOM      1  O   UNL     1       2.192   7.119  20.237  0.00  0.00    +0.000 OA
ATOM      2  C   UNL     1       2.590   6.299  19.432  0.00  0.00    +0.000 A 
ATOM      3  N   UNL     1       3.476   6.760  18.411  0.00  0.00    +0.000 N 
ATOM      4  C   UNL     1       3.925   5.854  17.478  0.00  0.00    +0.000 A 
ATOM      5  C   UNL     1       4.777   6.062  16.434  0.00  0.00    +0.000 A 
ATOM      6  C   UNL     1       4.864   4.791  15.800  0.00  0.00    +0.000 A 
ATOM      7  N   UNL     1       4.120   3.862  16.428  0.00  0.00    +0.000 NA
ATOM      8  N   UNL     1       3.569   4.529  17.460  0.00  0.00    +0.000 N 
ATOM      9  C   UNL     1       2.724   3.982  18.441  0.00  0.00    +0.000 A 
ATOM     10  C   UNL     1       2.392   2.627  18.449  0.00  0.00    +0.000 A 
ATOM     11  C   UNL     1       1.562   2.141  19.463  0.00  0.00    +0.000 A 
ATOM     12  C   UNL     1       1.065   2.998  20.451  0.00  0.00    +0.000 A 
ATOM     13  C   UNL     1       1.393   4.355  20.438  0.00  0.00    +0.000 A 
ATOM     14  C   UNL     1       2.229   4.853  19.433  0.00  0.00    +0.000 A 
ATOM     15  H   UNL     1       3.746   7.736  18.397  0.00  0.00    +0.000 HD
ENDROOT
BRANCH   6  16
ATOM     16  C   UNL     1       5.680   4.491  14.576  0.00  0.00    +0.000 A 
ATOM     17  C   UNL     1       5.261   3.693  13.531  0.00  0.00    +0.000 A 
ATOM     18  C   UNL     1       6.254   3.577  12.510  0.00  0.00    +0.000 A 
ATOM     19  C   UNL     1       7.394   4.287  12.815  0.00  0.00    +0.000 A 
ATOM     20  S   UNL     1       7.256   5.103  14.308  0.00  0.00    +0.000 S 
ENDBRANCH   6  16
TORSDOF 1
ENDMDL
MODEL 3
REMARK VINA RESULT:      -7.3      3.192      7.232
REMARK  Name = 
REMARK  1 active torsions:
REMARK  status: ('A' for Active; 'I' for Inactive)
REMARK    1  A    between atoms: C_6  and  C_7
REMARK                            x       y       z     vdW  Elec       q    Type
REMARK                         _______ _______ _______ _____ _____    ______ ____
ROOT
ATOM      1  O   UNL     1       3.981   2.379  18.848  0.00  0.00    +0.000 OA
ATOM      2  C   UNL     1       3.741   3.569  18.794  0.00  0.00    +0.000 A 
ATOM      3  N   UNL     1       2.903   4.116  19.813  0.00  0.00    +0.000 N 
ATOM      4  C   UNL     1       2.603   5.458  19.760  0.00  0.00    +0.000 A 
ATOM      5  C   UNL     1       1.842   6.192  20.623  0.00  0.00    +0.000 A 
ATOM      6  C   UNL     1       1.857   7.502  20.068  0.00  0.00    +0.000 A 
ATOM      7  N   UNL     1       2.593   7.565  18.942  0.00  0.00    +0.000 NA
ATOM      8  N   UNL     1       3.053   6.309  18.784  0.00  0.00    +0.000 N 
ATOM      9  C   UNL     1       3.905   5.865  17.757  0.00  0.00    +0.000 A 
ATOM     10  C   UNL     1       4.397   6.736  16.786  0.00  0.00    +0.000 A 
ATOM     11  C   UNL     1       5.255   6.235  15.803  0.00  0.00    +0.000 A 
ATOM     12  C   UNL     1       5.611   4.883  15.787  0.00  0.00    +0.000 A 
ATOM     13  C   UNL     1       5.112   4.011  16.757  0.00  0.00    +0.000 A 
ATOM     14  C   UNL     1       4.259   4.500  17.750  0.00  0.00    +0.000 A 
ATOM     15  H   UNL     1       2.549   3.507  20.540  0.00  0.00    +0.000 HD
ENDROOT
BRANCH   6  16
ATOM     16  C   UNL     1       1.148   8.692  20.645  0.00  0.00    +0.000 A 
ATOM     17  C   UNL     1       0.833   8.845  21.980  0.00  0.00    +0.000 A 
ATOM     18  C   UNL     1       0.147  10.073  22.235  0.00  0.00    +0.000 A 
ATOM     19  C   UNL     1      -0.039  10.809  21.086  0.00  0.00    +0.000 A 
ATOM     20  S   UNL     1       0.628  10.034  19.718  0.00  0.00    +0.000 S 
ENDBRANCH   6  16
TORSDOF 1
ENDMDL
MODEL 4
REMARK VINA RESULT:      -7.1      3.031      6.579
REMARK  Name = 
REMARK  1 active torsions:
REMARK  status: ('A' for Active; 'I' for Inactive)
REMARK    1  A    between atoms: C_6  and  C_7
REMARK                            x       y       z     vdW  Elec       q    Type
REMARK                         _______ _______ _______ _____ _____    ______ ____
ROOT
ATOM      1  O   UNL     1       4.448   5.343  16.801  0.00  0.00    +0.000 OA
ATOM      2  C   UNL     1       3.763   5.631  17.762  0.00  0.00    +0.000 A 
ATOM      3  N   UNL     1       3.257   6.965  17.830  0.00  0.00    +0.000 N 
ATOM      4  C   UNL     1       2.494   7.319  18.919  0.00  0.00    +0.000 A 
ATOM      5  C   UNL     1       1.901   8.518  19.186  0.00  0.00    +0.000 A 
ATOM      6  C   UNL     1       1.271   8.319  20.446  0.00  0.00    +0.000 A 
ATOM      7  N   UNL     1       1.457   7.070  20.912  0.00  0.00    +0.000 NA
ATOM      8  N   UNL     1       2.192   6.472  19.955  0.00  0.00    +0.000 N 
ATOM      9  C   UNL     1       2.625   5.134  19.959  0.00  0.00    +0.000 A 
ATOM     10  C   UNL     1       2.286   4.259  20.991  0.00  0.00    +0.000 A 
ATOM     11  C   UNL     1       2.732   2.936  20.928  0.00  0.00    +0.000 A 
ATOM     12  C   UNL     1       3.510   2.496  19.852  0.00  0.00    +0.000 A 
ATOM     13  C   UNL     1       3.854   3.375  18.823  0.00  0.00    +0.000 A 
ATOM     14  C   UNL     1       3.408   4.699  18.871  0.00  0.00    +0.000 A 
ATOM     15  H   UNL     1       3.473   7.613  17.082  0.00  0.00    +0.000 HD
ENDROOT
BRANCH   6  16
ATOM     16  C   UNL     1       0.483   9.357  21.191  0.00  0.00    +0.000 A 
ATOM     17  C   UNL     1       0.137   9.271  22.525  0.00  0.00    +0.000 A 
ATOM     18  C   UNL     1      -0.624  10.400  22.958  0.00  0.00    +0.000 A 
ATOM     19  C   UNL     1      -0.833  11.304  21.940  0.00  0.00    +0.000 A 
ATOM     20  S   UNL     1      -0.098  10.803  20.482  0.00  0.00    +0.000 S 
ENDBRANCH   6  16
TORSDOF 1
ENDMDL
MODEL 5
REMARK VINA RESULT:      -6.9      3.346      7.353
REMARK  Name = 
REMARK  1 active torsions:
REMARK  status: ('A' for Active; 'I' for Inactive)
REMARK    1  A    between atoms: C_6  and  C_7
REMARK                            x       y       z     vdW  Elec       q    Type
REMARK                         _______ _______ _______ _____ _____    ______ ____
ROOT
ATOM      1  O   UNL     1       4.838   2.743  19.379  0.00  0.00    +0.000 OA
ATOM      2  C   UNL     1       4.485   3.831  18.967  0.00  0.00    +0.000 A 
ATOM      3  N   UNL     1       3.580   4.578  19.782  0.00  0.00    +0.000 N 
ATOM      4  C   UNL     1       3.153   5.804  19.326  0.00  0.00    +0.000 A 
ATOM      5  C   UNL     1       2.310   6.688  19.934  0.00  0.00    +0.000 A 
ATOM      6  C   UNL     1       2.208   7.761  19.005  0.00  0.00    +0.000 A 
ATOM      7  N   UNL     1       2.954   7.550  17.905  0.00  0.00    +0.000 NA
ATOM      8  N   UNL     1       3.535   6.356  18.131  0.00  0.00    +0.000 N 
ATOM      9  C   UNL     1       4.444   5.705  17.278  0.00  0.00    +0.000 A 
ATOM     10  C   UNL     1       4.867   6.282  16.081  0.00  0.00    +0.000 A 
ATOM     11  C   UNL     1       5.786   5.592  15.286  0.00  0.00    +0.000 A 
ATOM     12  C   UNL     1       6.271   4.341  15.679  0.00  0.00    +0.000 A 
ATOM     13  C   UNL     1       5.843   3.761  16.875  0.00  0.00    +0.000 A 
ATOM     14  C   UNL     1       4.928   4.444  17.683  0.00  0.00    +0.000 A 
ATOM     15  H   UNL     1       3.275   4.187  20.665  0.00  0.00    +0.000 HD
ENDROOT
BRANCH   6  16
ATOM     16  C   UNL     1       1.377   8.996  19.201  0.00  0.00    +0.000 A 
ATOM     17  C   UNL     1       1.054   9.890  18.200  0.00  0.00    +0.000 A 
ATOM     18  C   UNL     1       0.262  10.977  18.685  0.00  0.00    +0.000 A 
ATOM     19  C   UNL     1       0.013  10.874  20.035  0.00  0.00    +0.000 A 
ATOM     20  S   UNL     1       0.710   9.467  20.706  0.00  0.00    +0.000 S 
ENDBRANCH   6  16
TORSDOF 1
ENDMDL
MODEL 6
REMARK VINA RESULT:      -6.9      0.844      1.098
REMARK  Name = 
REMARK  1 active torsions:
REMARK  status: ('A' for Active; 'I' for Inactive)
REMARK    1  A    between atoms: C_6  and  C_7
REMARK                            x       y       z     vdW  Elec       q    Type
REMARK                         _______ _______ _______ _____ _____    ______ ____
ROOT
ATOM      1  O   UNL     1       0.460  12.393  18.445  0.00  0.00    +0.000 OA
ATOM      2  C   UNL     1       0.758  11.310  18.909  0.00  0.00    +0.000 A 
ATOM      3  N   UNL     1       1.533  10.436  18.087  0.00  0.00    +0.000 N 
ATOM      4  C   UNL     1       1.867   9.197  18.585  0.00  0.00    +0.000 A 
ATOM      5  C   UNL     1       2.603   8.214  17.991  0.00  0.00    +0.000 A 
ATOM      6  C   UNL     1       2.606   7.160  18.947  0.00  0.00    +0.000 A 
ATOM      7  N   UNL     1       1.924   7.486  20.061  0.00  0.00    +0.000 NA
ATOM      8  N   UNL     1       1.497   8.741  19.824  0.00  0.00    +0.000 N 
ATOM      9  C   UNL     1       0.757   9.543  20.711  0.00  0.00    +0.000 A 
ATOM     10  C   UNL     1       0.413   9.098  21.988  0.00  0.00    +0.000 A 
ATOM     11  C   UNL     1      -0.307   9.950  22.829  0.00  0.00    +0.000 A 
ATOM     12  C   UNL     1      -0.683  11.227  22.399  0.00  0.00    +0.000 A 
ATOM     13  C   UNL     1      -0.344  11.669  21.119  0.00  0.00    +0.000 A 
ATOM     14  C   UNL     1       0.383  10.829  20.269  0.00  0.00    +0.000 A 
ATOM     15  H   UNL     1       1.811  10.745  17.164  0.00  0.00    +0.000 HD
ENDROOT
BRANCH   6  16
ATOM     16  C   UNL     1       3.280   5.831  18.764  0.00  0.00    +0.000 A 
ATOM     17  C   UNL     1       3.321   4.835  19.719  0.00  0.00    +0.000 A 
ATOM     18  C   UNL     1       4.044   3.687  19.269  0.00  0.00    +0.000 A 
ATOM     19  C   UNL     1       4.530   3.850  17.991  0.00  0.00    +0.000 A 
ATOM     20  S   UNL     1       4.098   5.366  17.334  0.00  0.00    +0.000 S 
ENDBRANCH   6  16
TORSDOF 1
ENDMDL
MODEL 7
REMARK VINA RESULT:      -6.8      3.309      6.445
REMARK  Name = 
REMARK  1 active torsions:
REMARK  status: ('A' for Active; 'I' for Inactive)
REMARK    1  A    between atoms: C_6  and  C_7
REMARK                            x       y       z     vdW  Elec       q    Type
REMARK                         _______ _______ _______ _____ _____    ______ ____
ROOT
ATOM      1  O   UNL     1       4.712   3.890  17.146  0.00  0.00    +0.000 OA
ATOM      2  C   UNL     1       4.018   4.572  17.874  0.00  0.00    +0.000 A 
ATOM      3  N   UNL     1       3.743   5.909  17.454  0.00  0.00    +0.000 N 
ATOM      4  C   UNL     1       2.975   6.705  18.272  0.00  0.00    +0.000 A 
ATOM      5  C   UNL     1       2.577   7.995  18.071  0.00  0.00    +0.000 A 
ATOM      6  C   UNL     1       1.832   8.313  19.241  0.00  0.00    +0.000 A 
ATOM      7  N   UNL     1       1.769   7.276  20.097  0.00  0.00    +0.000 NA
ATOM      8  N   UNL     1       2.459   6.299  19.476  0.00  0.00    +0.000 N 
ATOM      9  C   UNL     1       2.656   4.993  19.957  0.00  0.00    +0.000 A 
ATOM     10  C   UNL     1       2.099   4.564  21.161  0.00  0.00    +0.000 A 
ATOM     11  C   UNL     1       2.316   3.247  21.575  0.00  0.00    +0.000 A 
ATOM     12  C   UNL     1       3.084   2.373  20.799  0.00  0.00    +0.000 A 
ATOM     13  C   UNL     1       3.646   2.805  19.596  0.00  0.00    +0.000 A 
ATOM     14  C   UNL     1       3.430   4.118  19.167  0.00  0.00    +0.000 A 
ATOM     15  H   UNL     1       4.120   6.236  16.573  0.00  0.00    +0.000 HD
ENDROOT
BRANCH   6  16
ATOM     16  C   UNL     1       1.182   9.637  19.517  0.00  0.00    +0.000 A 
ATOM     17  C   UNL     1       0.992  10.628  18.575  0.00  0.00    +0.000 A 
ATOM     18  C   UNL     1       0.358  11.783  19.129  0.00  0.00    +0.000 A 
ATOM     19  C   UNL     1       0.090  11.632  20.471  0.00  0.00    +0.000 A 
ATOM     20  S   UNL     1       0.580  10.103  21.050  0.00  0.00    +0.000 S 
ENDBRANCH   6  16
TORSDOF 1
ENDMDL
MODEL 8
REMARK VINA RESULT:      -6.8      3.113      7.056
REMARK  Name = 
REMARK  1 active torsions:
REMARK  status: ('A' for Active; 'I' for Inactive)
REMARK    1  A    between atoms: C_6  and  C_7
REMARK                            x       y       z     vdW  Elec       q    Type
REMARK                         _______ _______ _______ _____ _____    ______ ____
ROOT
ATOM      1  O   UNL     1       3.672   2.643  19.256  0.00  0.00    +0.000 OA
ATOM      2  C   UNL     1       3.454   3.834  19.141  0.00  0.00    +0.000 A 
ATOM      3  N   UNL     1       2.574   4.434  20.092  0.00  0.00    +0.000 N 
ATOM      4  C   UNL     1       2.298   5.776  19.969  0.00  0.00    +0.000 A 
ATOM      5  C   UNL     1       1.506   6.556  20.761  0.00  0.00    +0.000 A 
ATOM      6  C   UNL     1       1.570   7.841  20.154  0.00  0.00    +0.000 A 
ATOM      7  N   UNL     1       2.363   7.847  19.066  0.00  0.00    +0.000 NA
ATOM      8  N   UNL     1       2.811   6.580  18.983  0.00  0.00    +0.000 N 
ATOM      9  C   UNL     1       3.706   6.081  18.021  0.00  0.00    +0.000 A 
ATOM     10  C   UNL     1       4.261   6.904  17.041  0.00  0.00    +0.000 A 
ATOM     11  C   UNL     1       5.159   6.351  16.124  0.00  0.00    +0.000 A 
ATOM     12  C   UNL     1       5.494   4.995  16.182  0.00  0.00    +0.000 A 
ATOM     13  C   UNL     1       4.934   4.171  17.160  0.00  0.00    +0.000 A 
ATOM     14  C   UNL     1       4.038   4.713  18.088  0.00  0.00    +0.000 A 
ATOM     15  H   UNL     1       2.174   3.860  20.824  0.00  0.00    +0.000 HD
ENDROOT
BRANCH   6  16
ATOM     16  C   UNL     1       0.851   9.064  20.645  0.00  0.00    +0.000 A 
ATOM     17  C   UNL     1       0.463  10.119  19.844  0.00  0.00    +0.000 A 
ATOM     18  C   UNL     1      -0.190  11.149  20.590  0.00  0.00    +0.000 A 
ATOM     19  C   UNL     1      -0.273  10.844  21.930  0.00  0.00    +0.000 A 
ATOM     20  S   UNL     1       0.412   9.319  22.280  0.00  0.00    +0.000 S 
ENDBRANCH   6  16
TORSDOF 1
ENDMDL
MODEL 9
REMARK VINA RESULT:      -6.7      3.157      7.098
REMARK  Name = 
REMARK  1 active torsions:
REMARK  status: ('A' for Active; 'I' for Inactive)
REMARK    1  A    between atoms: C_6  and  C_7
REMARK                            x       y       z     vdW  Elec       q    Type
REMARK                         _______ _______ _______ _____ _____    ______ ____
ROOT
ATOM      1  O   UNL     1       4.003   3.160  20.023  0.00  0.00    +0.000 OA
ATOM      2  C   UNL     1       3.727   4.266  19.602  0.00  0.00    +0.000 A 
ATOM      3  N   UNL     1       2.832   5.060  20.383  0.00  0.00    +0.000 N 
ATOM      4  C   UNL     1       2.490   6.308  19.916  0.00  0.00    +0.000 A 
ATOM      5  C   UNL     1       1.673   7.236  20.492  0.00  0.00    +0.000 A 
ATOM      6  C   UNL     1       1.667   8.315  19.565  0.00  0.00    +0.000 A 
ATOM      7  N   UNL     1       2.444   8.066  18.495  0.00  0.00    +0.000 NA
ATOM      8  N   UNL     1       2.950   6.842  18.739  0.00  0.00    +0.000 N 
ATOM      9  C   UNL     1       3.855   6.143  17.920  0.00  0.00    +0.000 A 
ATOM     10  C   UNL     1       4.357   6.699  16.743  0.00  0.00    +0.000 A 
ATOM     11  C   UNL     1       5.268   5.961  15.983  0.00  0.00    +0.000 A 
ATOM     12  C   UNL     1       5.668   4.684  16.390  0.00  0.00    +0.000 A 
ATOM     13  C   UNL     1       5.161   4.127  17.565  0.00  0.00    +0.000 A 
ATOM     14  C   UNL     1       4.254   4.857  18.339  0.00  0.00    +0.000 A 
ATOM     15  H   UNL     1       2.470   4.685  21.251  0.00  0.00    +0.000 HD
ENDROOT
BRANCH   6  16
ATOM     16  C   UNL     1       0.898   9.593  19.733  0.00  0.00    +0.000 A 
ATOM     17  C   UNL     1      -0.158   9.763  20.606  0.00  0.00    +0.000 A 
ATOM     18  C   UNL     1      -0.704  11.083  20.539  0.00  0.00    +0.000 A 
ATOM     19  C   UNL     1      -0.048  11.868  19.618  0.00  0.00    +0.000 A 
ATOM     20  S   UNL     1       1.228  11.027  18.858  0.00  0.00    +0.000 S 
ENDBRANCH   6  16
TORSDOF 1
ENDMDL
