MODEL 1
REMARK VINA RESULT:      -7.6      0.000      0.000
REMARK  Name = 
REMARK  6 active torsions:
REMARK  status: ('A' for Active; 'I' for Inactive)
REMARK    1  A    between atoms: C_1  and  C_2
REMARK    2  A    between atoms: C_9  and  N_10
REMARK    3  A    between atoms: C_11  and  C_13
REMARK    4  A    between atoms: C_13  and  C_14
REMARK    5  A    between atoms: C_14  and  O_15
REMARK    6  A    between atoms: O_15  and  C_16
REMARK                            x       y       z     vdW  Elec       q    Type
REMARK                         _______ _______ _______ _____ _____    ______ ____
ROOT
ATOM      1  N   UNL     1       3.683   4.345  18.502  0.00  0.00    +0.000 N 
ATOM      2  C   UNL     1       2.908   3.661  19.420  0.00  0.00    +0.000 C 
ATOM      3  O   UNL     1       3.283   2.614  19.938  0.00  0.00    +0.000 OA
ATOM      4  H   UNL     1       3.421   5.269  18.184  0.00  0.00    +0.000 HD
ENDROOT
BRANCH   1  13
ATOM      5  C   UNL     1       7.691   5.104  12.744  0.00  0.00    +0.000 C 
ATOM      6  C   UNL     1       7.091   4.886  14.078  0.00  0.00    +0.000 A 
ATOM      7  C   UNL     1       6.097   4.012  14.460  0.00  0.00    +0.000 A 
ATOM      8  N   UNL     1       5.953   4.204  15.805  0.00  0.00    +0.000 N 
ATOM      9  C   UNL     1       6.829   5.172  16.192  0.00  0.00    +0.000 A 
ATOM     10  N   UNL     1       7.526   5.605  15.163  0.00  0.00    +0.000 NA
ATOM     11  C   UNL     1       6.965   5.642  17.585  0.00  0.00    +0.000 C 
ATOM     12  C   UNL     1       6.059   4.969  18.609  0.00  0.00    +0.000 C 
ATOM     13  C   UNL     1       5.039   3.916  18.141  0.00  0.00    +0.000 C 
ATOM     14  C   UNL     1       5.072   3.470  16.671  0.00  0.00    +0.000 C 
ENDBRANCH   1  13
BRANCH   2  15
ATOM     15  C   UNL     1       1.539   4.240  19.752  0.00  0.00    +0.000 C 
BRANCH  15  16
ATOM     16  C   UNL     1       1.632   5.484  20.606  0.00  0.00    +0.000 C 
BRANCH  16  17
ATOM     17  O   UNL     1       2.655   6.373  20.191  0.00  0.00    +0.000 OA
BRANCH  17  18
ATOM     18  C   UNL     1       2.171   7.534  19.631  0.00  0.00    +0.000 A 
ATOM     19  C   UNL     1       1.368   8.295  20.482  0.00  0.00    +0.000 A 
ATOM     20  C   UNL     1       0.809   9.497  20.039  0.00  0.00    +0.000 A 
ATOM     21  C   UNL     1       1.045   9.948  18.740  0.00  0.00    +0.000 A 
ATOM     22  C   UNL     1       1.841   9.200  17.883  0.00  0.00    +0.000 A 
ATOM     23  C   UNL     1       2.400   8.005  18.325  0.00  0.00    +0.000 A 
ATOM     24  F   UNL     1       3.155   7.330  17.443  0.00  0.00    +0.000 F 
ENDBRANCH  17  18
ENDBRANCH  16  17
ENDBRANCH  15  16
ENDBRANCH   2  15
TORSDOF 5
ENDMDL
MODEL 2
REMARK VINA RESULT:      -7.2      1.880      3.731
REMARK  Name = 
REMARK  6 active torsions:
REMARK  status: ('A' for Active; 'I' for Inactive)
REMARK    1  A    between atoms: C_1  and  C_2
REMARK    2  A    between atoms: C_9  and  N_10
REMARK    3  A    between atoms: C_11  and  C_13
REMARK    4  A    between atoms: C_13  and  C_14
REMARK    5  A    between atoms: C_14  and  O_15
REMARK    6  A    between atoms: O_15  and  C_16
REMARK                            x       y       z     vdW  Elec       q    Type
REMARK                         _______ _______ _______ _____ _____    ______ ____
ROOT
ATOM      1  N   UNL     1       4.686   5.611  19.547  0.00  0.00    +0.000 N 
ATOM      2  C   UNL     1       3.765   6.333  18.807  0.00  0.00    +0.000 C 
ATOM      3  O   UNL     1       3.965   6.638  17.637  0.00  0.00    +0.000 OA
ATOM      4  H   UNL     1       4.452   5.254  20.463  0.00  0.00    +0.000 HD
ENDROOT
BRANCH   1  13
ATOM      5  C   UNL     1       6.723   4.010  12.983  0.00  0.00    +0.000 C 
ATOM      6  C   UNL     1       6.568   4.346  14.415  0.00  0.00    +0.000 A 
ATOM      7  C   UNL     1       5.860   3.691  15.399  0.00  0.00    +0.000 A 
ATOM      8  N   UNL     1       6.083   4.414  16.537  0.00  0.00    +0.000 N 
ATOM      9  C   UNL     1       6.886   5.466  16.222  0.00  0.00    +0.000 A 
ATOM     10  N   UNL     1       7.189   5.452  14.941  0.00  0.00    +0.000 NA
ATOM     11  C   UNL     1       7.348   6.466  17.206  0.00  0.00    +0.000 C 
ATOM     12  C   UNL     1       6.879   6.257  18.641  0.00  0.00    +0.000 C 
ATOM     13  C   UNL     1       5.928   5.091  18.964  0.00  0.00    +0.000 C 
ATOM     14  C   UNL     1       5.601   4.084  17.851  0.00  0.00    +0.000 C 
ENDBRANCH   1  13
BRANCH   2  15
ATOM     15  C   UNL     1       2.487   6.768  19.513  0.00  0.00    +0.000 C 
BRANCH  15  16
ATOM     16  C   UNL     1       2.096   5.826  20.628  0.00  0.00    +0.000 C 
BRANCH  16  17
ATOM     17  O   UNL     1       1.175   4.828  20.222  0.00  0.00    +0.000 OA
BRANCH  17  18
ATOM     18  C   UNL     1       1.762   3.805  19.512  0.00  0.00    +0.000 A 
ATOM     19  C   UNL     1       2.513   2.920  20.287  0.00  0.00    +0.000 A 
ATOM     20  C   UNL     1       3.165   1.837  19.692  0.00  0.00    +0.000 A 
ATOM     21  C   UNL     1       3.075   1.629  18.315  0.00  0.00    +0.000 A 
ATOM     22  C   UNL     1       2.331   2.502  17.532  0.00  0.00    +0.000 A 
ATOM     23  C   UNL     1       1.680   3.579  18.126  0.00  0.00    +0.000 A 
ATOM     24  F   UNL     1       0.982   4.386  17.310  0.00  0.00    +0.000 F 
ENDBRANCH  17  18
ENDBRANCH  16  17
ENDBRANCH  15  16
ENDBRANCH   2  15
TORSDOF 5
ENDMDL
MODEL 3
REMARK VINA RESULT:      -7.2      1.242      1.599
REMARK  Name = 
REMARK  6 active torsions:
REMARK  status: ('A' for Active; 'I' for Inactive)
REMARK    1  A    between atoms: C_1  and  C_2
REMARK    2  A    between atoms: C_9  and  N_10
REMARK    3  A    between atoms: C_11  and  C_13
REMARK    4  A    between atoms: C_13  and  C_14
REMARK    5  A    between atoms: C_14  and  O_15
REMARK    6  A    between atoms: O_15  and  C_16
REMARK                            x       y       z     vdW  Elec       q    Type
REMARK                         _______ _______ _______ _____ _____    ______ ____
ROOT
ATOM      1  N   UNL     1       4.090   4.623  19.444  0.00  0.00    +0.000 N 
ATOM      2  C   UNL     1       3.266   3.772  20.160  0.00  0.00    +0.000 C 
ATOM      3  O   UNL     1       3.568   2.604  20.377  0.00  0.00    +0.000 OA
ATOM      4  H   UNL     1       3.892   5.613  19.387  0.00  0.00    +0.000 HD
ENDROOT
BRANCH   1  13
ATOM      5  C   UNL     1       7.338   4.938  13.188  0.00  0.00    +0.000 C 
ATOM      6  C   UNL     1       6.913   4.837  14.601  0.00  0.00    +0.000 A 
ATOM      7  C   UNL     1       6.021   3.967  15.188  0.00  0.00    +0.000 A 
ATOM      8  N   UNL     1       6.028   4.294  16.515  0.00  0.00    +0.000 N 
ATOM      9  C   UNL     1       6.889   5.333  16.692  0.00  0.00    +0.000 A 
ATOM     10  N   UNL     1       7.434   5.684  15.547  0.00  0.00    +0.000 NA
ATOM     11  C   UNL     1       7.164   5.953  18.004  0.00  0.00    +0.000 C 
ATOM     12  C   UNL     1       6.425   5.354  19.194  0.00  0.00    +0.000 C 
ATOM     13  C   UNL     1       5.415   4.216  18.963  0.00  0.00    +0.000 C 
ATOM     14  C   UNL     1       5.297   3.619  17.553  0.00  0.00    +0.000 C 
ENDBRANCH   1  13
BRANCH   2  15
ATOM     15  C   UNL     1       1.939   4.333  20.653  0.00  0.00    +0.000 C 
BRANCH  15  16
ATOM     16  C   UNL     1       1.544   5.599  19.927  0.00  0.00    +0.000 C 
BRANCH  16  17
ATOM     17  O   UNL     1       2.386   6.701  20.224  0.00  0.00    +0.000 OA
BRANCH  17  18
ATOM     18  C   UNL     1       1.889   7.901  19.767  0.00  0.00    +0.000 A 
ATOM     19  C   UNL     1       2.222   8.199  18.445  0.00  0.00    +0.000 A 
ATOM     20  C   UNL     1       1.784   9.388  17.856  0.00  0.00    +0.000 A 
ATOM     21  C   UNL     1       1.012  10.293  18.585  0.00  0.00    +0.000 A 
ATOM     22  C   UNL     1       0.674  10.010  19.902  0.00  0.00    +0.000 A 
ATOM     23  C   UNL     1       1.108   8.824  20.486  0.00  0.00    +0.000 A 
ATOM     24  F   UNL     1       0.749   8.615  21.764  0.00  0.00    +0.000 F 
ENDBRANCH  17  18
ENDBRANCH  16  17
ENDBRANCH  15  16
ENDBRANCH   2  15
TORSDOF 5
ENDMDL
MODEL 4
REMARK VINA RESULT:      -7.1      2.708      7.158
REMARK  Name = 
REMARK  6 active torsions:
REMARK  status: ('A' for Active; 'I' for Inactive)
REMARK    1  A    between atoms: C_1  and  C_2
REMARK    2  A    between atoms: C_9  and  N_10
REMARK    3  A    between atoms: C_11  and  C_13
REMARK    4  A    between atoms: C_13  and  C_14
REMARK    5  A    between atoms: C_14  and  O_15
REMARK    6  A    between atoms: O_15  and  C_16
REMARK                            x       y       z     vdW  Elec       q    Type
REMARK                         _______ _______ _______ _____ _____    ______ ____
ROOT
ATOM      1  N   UNL     1       4.880   6.006  17.273  0.00  0.00    +0.000 N 
ATOM      2  C   UNL     1       5.853   5.706  18.210  0.00  0.00    +0.000 C 
ATOM      3  O   UNL     1       5.574   5.379  19.358  0.00  0.00    +0.000 OA
ATOM      4  H   UNL     1       5.119   6.145  16.301  0.00  0.00    +0.000 HD
ENDROOT
BRANCH   1  13
ATOM      5  C   UNL     1       1.144   2.371  22.029  0.00  0.00    +0.000 C 
ATOM      6  C   UNL     1       1.695   3.283  21.003  0.00  0.00    +0.000 A 
ATOM      7  C   UNL     1       2.253   2.991  19.778  0.00  0.00    +0.000 A 
ATOM      8  N   UNL     1       2.566   4.203  19.233  0.00  0.00    +0.000 N 
ATOM      9  C   UNL     1       2.213   5.173  20.120  0.00  0.00    +0.000 A 
ATOM     10  N   UNL     1       1.689   4.641  21.204  0.00  0.00    +0.000 NA
ATOM     11  C   UNL     1       2.395   6.616  19.870  0.00  0.00    +0.000 C 
ATOM     12  C   UNL     1       3.006   6.990  18.525  0.00  0.00    +0.000 C 
ATOM     13  C   UNL     1       3.447   5.876  17.559  0.00  0.00    +0.000 C 
ATOM     14  C   UNL     1       3.117   4.420  17.923  0.00  0.00    +0.000 C 
ENDBRANCH   1  13
BRANCH   2  15
ATOM     15  C   UNL     1       7.308   5.827  17.772  0.00  0.00    +0.000 C 
BRANCH  15  16
ATOM     16  C   UNL     1       7.601   5.025  16.525  0.00  0.00    +0.000 C 
BRANCH  16  17
ATOM     17  O   UNL     1       7.551   5.798  15.337  0.00  0.00    +0.000 OA
BRANCH  17  18
ATOM     18  C   UNL     1       7.153   5.074  14.235  0.00  0.00    +0.000 A 
ATOM     19  C   UNL     1       6.055   4.242  14.456  0.00  0.00    +0.000 A 
ATOM     20  C   UNL     1       5.549   3.449  13.422  0.00  0.00    +0.000 A 
ATOM     21  C   UNL     1       6.139   3.479  12.158  0.00  0.00    +0.000 A 
ATOM     22  C   UNL     1       7.233   4.302  11.925  0.00  0.00    +0.000 A 
ATOM     23  C   UNL     1       7.734   5.093  12.955  0.00  0.00    +0.000 A 
ATOM     24  F   UNL     1       8.796   5.862  12.662  0.00  0.00    +0.000 F 
ENDBRANCH  17  18
ENDBRANCH  16  17
ENDBRANCH  15  16
ENDBRANCH   2  15
TORSDOF 5
ENDMDL
MODEL 5
REMARK VINA RESULT:      -7.0      1.028      1.212
REMARK  Name = 
REMARK  6 active torsions:
REMARK  status: ('A' for Active; 'I' for Inactive)
REMARK    1  A    between atoms: C_1  and  C_2
REMARK    2  A    between atoms: C_9  and  N_10
REMARK    3  A    between atoms: C_11  and  C_13
REMARK    4  A    between atoms: C_13  and  C_14
REMARK    5  A    between atoms: C_14  and  O_15
REMARK    6  A    between atoms: O_15  and  C_16
REMARK                            x       y       z     vdW  Elec       q    Type
REMARK                         _______ _______ _______ _____ _____    ______ ____
ROOT
ATOM      1  N   UNL     1       4.185   5.004  19.500  0.00  0.00    +0.000 N 
ATOM      2  C   UNL     1       3.258   4.274  20.223  0.00  0.00    +0.000 C 
ATOM      3  O   UNL     1       3.384   3.071  20.418  0.00  0.00    +0.000 OA
ATOM      4  H   UNL     1       4.137   6.013  19.460  0.00  0.00    +0.000 HD
ENDROOT
BRANCH   1  13
ATOM      5  C   UNL     1       7.275   4.864  13.157  0.00  0.00    +0.000 C 
ATOM      6  C   UNL     1       6.878   4.821  14.581  0.00  0.00    +0.000 A 
ATOM      7  C   UNL     1       5.885   4.088  15.193  0.00  0.00    +0.000 A 
ATOM      8  N   UNL     1       5.975   4.406  16.519  0.00  0.00    +0.000 N 
ATOM      9  C   UNL     1       6.982   5.308  16.672  0.00  0.00    +0.000 A 
ATOM     10  N   UNL     1       7.542   5.581  15.512  0.00  0.00    +0.000 NA
ATOM     11  C   UNL     1       7.379   5.878  17.975  0.00  0.00    +0.000 C 
ATOM     12  C   UNL     1       6.593   5.389  19.186  0.00  0.00    +0.000 C 
ATOM     13  C   UNL     1       5.423   4.410  18.983  0.00  0.00    +0.000 C 
ATOM     14  C   UNL     1       5.182   3.841  17.576  0.00  0.00    +0.000 C 
ENDBRANCH   1  13
BRANCH   2  15
ATOM     15  C   UNL     1       2.040   5.020  20.754  0.00  0.00    +0.000 C 
BRANCH  15  16
ATOM     16  C   UNL     1       1.595   6.128  19.827  0.00  0.00    +0.000 C 
BRANCH  16  17
ATOM     17  O   UNL     1       2.298   7.344  20.029  0.00  0.00    +0.000 OA
BRANCH  17  18
ATOM     18  C   UNL     1       1.488   8.455  19.964  0.00  0.00    +0.000 A 
ATOM     19  C   UNL     1       0.799   8.738  21.145  0.00  0.00    +0.000 A 
ATOM     20  C   UNL     1      -0.060   9.838  21.216  0.00  0.00    +0.000 A 
ATOM     21  C   UNL     1      -0.241  10.665  20.107  0.00  0.00    +0.000 A 
ATOM     22  C   UNL     1       0.438  10.394  18.926  0.00  0.00    +0.000 A 
ATOM     23  C   UNL     1       1.295   9.300  18.856  0.00  0.00    +0.000 A 
ATOM     24  F   UNL     1       1.916   9.094  17.683  0.00  0.00    +0.000 F 
ENDBRANCH  17  18
ENDBRANCH  16  17
ENDBRANCH  15  16
ENDBRANCH   2  15
TORSDOF 5
ENDMDL
MODEL 6
REMARK VINA RESULT:      -7.0      5.494      7.349
REMARK  Name = 
REMARK  6 active torsions:
REMARK  status: ('A' for Active; 'I' for Inactive)
REMARK    1  A    between atoms: C_1  and  C_2
REMARK    2  A    between atoms: C_9  and  N_10
REMARK    3  A    between atoms: C_11  and  C_13
REMARK    4  A    between atoms: C_13  and  C_14
REMARK    5  A    between atoms: C_14  and  O_15
REMARK    6  A    between atoms: O_15  and  C_16
REMARK                            x       y       z     vdW  Elec       q    Type
REMARK                         _______ _______ _______ _____ _____    ______ ____
ROOT
ATOM      1  N   UNL     1       6.990   7.023  17.059  0.00  0.00    +0.000 N 
ATOM      2  C   UNL     1       7.820   7.755  17.889  0.00  0.00    +0.000 C 
ATOM      3  O   UNL     1       8.431   7.240  18.819  0.00  0.00    +0.000 OA
ATOM      4  H   UNL     1       6.599   7.432  16.221  0.00  0.00    +0.000 HD
ENDROOT
BRANCH   1  13
ATOM      5  C   UNL     1       1.600   2.763  18.672  0.00  0.00    +0.000 C 
ATOM      6  C   UNL     1       2.846   3.426  18.230  0.00  0.00    +0.000 A 
ATOM      7  C   UNL     1       3.757   4.157  18.960  0.00  0.00    +0.000 A 
ATOM      8  N   UNL     1       4.728   4.509  18.065  0.00  0.00    +0.000 N 
ATOM      9  C   UNL     1       4.385   4.009  16.847  0.00  0.00    +0.000 A 
ATOM     10  N   UNL     1       3.246   3.354  16.919  0.00  0.00    +0.000 NA
ATOM     11  C   UNL     1       5.204   4.183  15.631  0.00  0.00    +0.000 C 
ATOM     12  C   UNL     1       6.500   4.965  15.805  0.00  0.00    +0.000 C 
ATOM     13  C   UNL     1       6.842   5.568  17.179  0.00  0.00    +0.000 C 
ATOM     14  C   UNL     1       5.933   5.231  18.371  0.00  0.00    +0.000 C 
ENDBRANCH   1  13
BRANCH   2  15
ATOM     15  C   UNL     1       7.930   9.252  17.626  0.00  0.00    +0.000 C 
BRANCH  15  16
ATOM     16  C   UNL     1       8.847   9.943  18.609  0.00  0.00    +0.000 C 
BRANCH  16  17
ATOM     17  O   UNL     1       9.913  10.640  17.986  0.00  0.00    +0.000 OA
BRANCH  17  18
ATOM     18  C   UNL     1      10.284  11.781  18.662  0.00  0.00    +0.000 A 
ATOM     19  C   UNL     1      10.243  11.668  20.052  0.00  0.00    +0.000 A 
ATOM     20  C   UNL     1      10.593  12.753  20.861  0.00  0.00    +0.000 A 
ATOM     21  C   UNL     1      10.983  13.963  20.286  0.00  0.00    +0.000 A 
ATOM     22  C   UNL     1      11.026  14.090  18.904  0.00  0.00    +0.000 A 
ATOM     23  C   UNL     1      10.681  13.008  18.100  0.00  0.00    +0.000 A 
ATOM     24  F   UNL     1      10.741  13.200  16.772  0.00  0.00    +0.000 F 
ENDBRANCH  17  18
ENDBRANCH  16  17
ENDBRANCH  15  16
ENDBRANCH   2  15
TORSDOF 5
ENDMDL
MODEL 7
REMARK VINA RESULT:      -7.0      5.060      7.348
REMARK  Name = 
REMARK  6 active torsions:
REMARK  status: ('A' for Active; 'I' for Inactive)
REMARK    1  A    between atoms: C_1  and  C_2
REMARK    2  A    between atoms: C_9  and  N_10
REMARK    3  A    between atoms: C_11  and  C_13
REMARK    4  A    between atoms: C_13  and  C_14
REMARK    5  A    between atoms: C_14  and  O_15
REMARK    6  A    between atoms: O_15  and  C_16
REMARK                            x       y       z     vdW  Elec       q    Type
REMARK                         _______ _______ _______ _____ _____    ______ ____
ROOT
ATOM      1  N   UNL     1       5.967   7.287  17.895  0.00  0.00    +0.000 N 
ATOM      2  C   UNL     1       7.270   7.261  17.432  0.00  0.00    +0.000 C 
ATOM      3  O   UNL     1       7.572   6.744  16.362  0.00  0.00    +0.000 OA
ATOM      4  H   UNL     1       5.714   7.830  18.710  0.00  0.00    +0.000 HD
ENDROOT
BRANCH   1  13
ATOM      5  C   UNL     1       1.346   2.031  18.801  0.00  0.00    +0.000 C 
ATOM      6  C   UNL     1       2.131   3.227  18.425  0.00  0.00    +0.000 A 
ATOM      7  C   UNL     1       3.417   3.316  17.940  0.00  0.00    +0.000 A 
ATOM      8  N   UNL     1       3.628   4.650  17.736  0.00  0.00    +0.000 N 
ATOM      9  C   UNL     1       2.502   5.320  18.104  0.00  0.00    +0.000 A 
ATOM     10  N   UNL     1       1.582   4.481  18.531  0.00  0.00    +0.000 NA
ATOM     11  C   UNL     1       2.357   6.787  18.015  0.00  0.00    +0.000 C 
ATOM     12  C   UNL     1       3.559   7.545  17.465  0.00  0.00    +0.000 C 
ATOM     13  C   UNL     1       4.841   6.773  17.106  0.00  0.00    +0.000 C 
ATOM     14  C   UNL     1       4.813   5.239  17.174  0.00  0.00    +0.000 C 
ENDBRANCH   1  13
BRANCH   2  15
ATOM     15  C   UNL     1       8.342   7.877  18.322  0.00  0.00    +0.000 C 
BRANCH  15  16
ATOM     16  C   UNL     1       8.442   9.375  18.148  0.00  0.00    +0.000 C 
BRANCH  16  17
ATOM     17  O   UNL     1       8.759  10.059  19.349  0.00  0.00    +0.000 OA
BRANCH  17  18
ATOM     18  C   UNL     1       9.780  10.971  19.201  0.00  0.00    +0.000 A 
ATOM     19  C   UNL     1      10.222  11.136  17.888  0.00  0.00    +0.000 A 
ATOM     20  C   UNL     1      11.256  12.030  17.597  0.00  0.00    +0.000 A 
ATOM     21  C   UNL     1      11.861  12.765  18.617  0.00  0.00    +0.000 A 
ATOM     22  C   UNL     1      11.431  12.610  19.928  0.00  0.00    +0.000 A 
ATOM     23  C   UNL     1      10.399  11.722  20.217  0.00  0.00    +0.000 A 
ATOM     24  F   UNL     1      10.036  11.618  21.506  0.00  0.00    +0.000 F 
ENDBRANCH  17  18
ENDBRANCH  16  17
ENDBRANCH  15  16
ENDBRANCH   2  15
TORSDOF 5
ENDMDL
MODEL 8
REMARK VINA RESULT:      -6.9      1.715      2.169
REMARK  Name = 
REMARK  6 active torsions:
REMARK  status: ('A' for Active; 'I' for Inactive)
REMARK    1  A    between atoms: C_1  and  C_2
REMARK    2  A    between atoms: C_9  and  N_10
REMARK    3  A    between atoms: C_11  and  C_13
REMARK    4  A    between atoms: C_13  and  C_14
REMARK    5  A    between atoms: C_14  and  O_15
REMARK    6  A    between atoms: O_15  and  C_16
REMARK                            x       y       z     vdW  Elec       q    Type
REMARK                         _______ _______ _______ _____ _____    ______ ____
ROOT
ATOM      1  N   UNL     1       4.057   5.285  19.390  0.00  0.00    +0.000 N 
ATOM      2  C   UNL     1       3.039   4.652  20.082  0.00  0.00    +0.000 C 
ATOM      3  O   UNL     1       3.036   3.441  20.272  0.00  0.00    +0.000 OA
ATOM      4  H   UNL     1       4.115   6.294  19.356  0.00  0.00    +0.000 HD
ENDROOT
BRANCH   1  13
ATOM      5  C   UNL     1       7.303   4.854  13.139  0.00  0.00    +0.000 C 
ATOM      6  C   UNL     1       6.861   4.846  14.551  0.00  0.00    +0.000 A 
ATOM      7  C   UNL     1       5.781   4.217  15.129  0.00  0.00    +0.000 A 
ATOM      8  N   UNL     1       5.864   4.518  16.459  0.00  0.00    +0.000 N 
ATOM      9  C   UNL     1       6.954   5.311  16.648  0.00  0.00    +0.000 A 
ATOM     10  N   UNL     1       7.572   5.530  15.506  0.00  0.00    +0.000 NA
ATOM     11  C   UNL     1       7.368   5.831  17.965  0.00  0.00    +0.000 C 
ATOM     12  C   UNL     1       6.501   5.421  19.149  0.00  0.00    +0.000 C 
ATOM     13  C   UNL     1       5.243   4.569  18.906  0.00  0.00    +0.000 C 
ATOM     14  C   UNL     1       4.986   4.033  17.489  0.00  0.00    +0.000 C 
ENDBRANCH   1  13
BRANCH   2  15
ATOM     15  C   UNL     1       1.889   5.517  20.582  0.00  0.00    +0.000 C 
BRANCH  15  16
ATOM     16  C   UNL     1       1.961   6.931  20.052  0.00  0.00    +0.000 C 
BRANCH  16  17
ATOM     17  O   UNL     1       1.672   7.912  21.035  0.00  0.00    +0.000 OA
BRANCH  17  18
ATOM     18  C   UNL     1       0.941   8.972  20.545  0.00  0.00    +0.000 A 
ATOM     19  C   UNL     1       1.248   9.326  19.231  0.00  0.00    +0.000 A 
ATOM     20  C   UNL     1       0.582  10.387  18.611  0.00  0.00    +0.000 A 
ATOM     21  C   UNL     1      -0.395  11.105  19.301  0.00  0.00    +0.000 A 
ATOM     22  C   UNL     1      -0.709  10.764  20.610  0.00  0.00    +0.000 A 
ATOM     23  C   UNL     1      -0.047   9.705  21.225  0.00  0.00    +0.000 A 
ATOM     24  F   UNL     1      -0.397   9.431  22.492  0.00  0.00    +0.000 F 
ENDBRANCH  17  18
ENDBRANCH  16  17
ENDBRANCH  15  16
ENDBRANCH   2  15
TORSDOF 5
ENDMDL
MODEL 9
REMARK VINA RESULT:      -6.9      5.398      7.508
REMARK  Name = 
REMARK  6 active torsions:
REMARK  status: ('A' for Active; 'I' for Inactive)
REMARK    1  A    between atoms: C_1  and  C_2
REMARK    2  A    between atoms: C_9  and  N_10
REMARK    3  A    between atoms: C_11  and  C_13
REMARK    4  A    between atoms: C_13  and  C_14
REMARK    5  A    between atoms: C_14  and  O_15
REMARK    6  A    between atoms: O_15  and  C_16
REMARK                            x       y       z     vdW  Elec       q    Type
REMARK                         _______ _______ _______ _____ _____    ______ ____
ROOT
ATOM      1  N   UNL     1       7.026   7.020  17.106  0.00  0.00    +0.000 N 
ATOM      2  C   UNL     1       7.862   7.650  18.010  0.00  0.00    +0.000 C 
ATOM      3  O   UNL     1       8.471   7.030  18.875  0.00  0.00    +0.000 OA
ATOM      4  H   UNL     1       6.635   7.523  16.320  0.00  0.00    +0.000 HD
ENDROOT
BRANCH   1  13
ATOM      5  C   UNL     1       1.792   2.602  18.806  0.00  0.00    +0.000 C 
ATOM      6  C   UNL     1       2.989   3.313  18.305  0.00  0.00    +0.000 A 
ATOM      7  C   UNL     1       3.991   3.946  19.007  0.00  0.00    +0.000 A 
ATOM      8  N   UNL     1       4.856   4.405  18.054  0.00  0.00    +0.000 N 
ATOM      9  C   UNL     1       4.365   4.060  16.832  0.00  0.00    +0.000 A 
ATOM     10  N   UNL     1       3.231   3.403  16.957  0.00  0.00    +0.000 NA
ATOM     11  C   UNL     1       5.039   4.382  15.559  0.00  0.00    +0.000 C 
ATOM     12  C   UNL     1       6.359   5.135  15.674  0.00  0.00    +0.000 C 
ATOM     13  C   UNL     1       6.869   5.561  17.062  0.00  0.00    +0.000 C 
ATOM     14  C   UNL     1       6.100   5.081  18.302  0.00  0.00    +0.000 C 
ENDBRANCH   1  13
BRANCH   2  15
ATOM     15  C   UNL     1       7.981   9.165  17.916  0.00  0.00    +0.000 C 
BRANCH  15  16
ATOM     16  C   UNL     1       9.132   9.704  18.735  0.00  0.00    +0.000 C 
BRANCH  16  17
ATOM     17  O   UNL     1       8.926  11.033  19.185  0.00  0.00    +0.000 OA
BRANCH  17  18
ATOM     18  C   UNL     1      10.043  11.828  19.058  0.00  0.00    +0.000 A 
ATOM     19  C   UNL     1      10.589  11.856  17.775  0.00  0.00    +0.000 A 
ATOM     20  C   UNL     1      11.727  12.622  17.507  0.00  0.00    +0.000 A 
ATOM     21  C   UNL     1      12.331  13.366  18.522  0.00  0.00    +0.000 A 
ATOM     22  C   UNL     1      11.798  13.346  19.804  0.00  0.00    +0.000 A 
ATOM     23  C   UNL     1      10.663  12.585  20.068  0.00  0.00    +0.000 A 
ATOM     24  F   UNL     1      10.202  12.607  21.330  0.00  0.00    +0.000 F 
ENDBRANCH  17  18
ENDBRANCH  16  17
ENDBRANCH  15  16
ENDBRANCH   2  15
TORSDOF 5
ENDMDL
