MODEL 1
REMARK VINA RESULT:      -7.0      0.000      0.000
REMARK  Name = 
REMARK  5 active torsions:
REMARK  status: ('A' for Active; 'I' for Inactive)
REMARK    1  A    between atoms: C_1  and  O_2
REMARK    2  A    between atoms: O_2  and  C_3
REMARK    3  A    between atoms: C_7  and  C_8
REMARK    4  A    between atoms: C_17  and  O_18
REMARK    5  A    between atoms: O_18  and  C_19
REMARK                            x       y       z     vdW  Elec       q    Type
REMARK                         _______ _______ _______ _____ _____    ______ ____
ROOT
ATOM      1  C   UNL     1       6.992   5.863  16.561  0.00  0.00    +0.000 A 
ATOM      2  C   UNL     1       6.771   5.331  15.278  0.00  0.00    +0.000 A 
ATOM      3  C   UNL     1       5.745   4.418  15.048  0.00  0.00    +0.000 A 
ATOM      4  C   UNL     1       4.956   3.998  16.112  0.00  0.00    +0.000 A 
ATOM      5  C   UNL     1       5.221   4.458  17.411  0.00  0.00    +0.000 A 
ATOM      6  C   UNL     1       6.252   5.388  17.660  0.00  0.00    +0.000 A 
ENDROOT
BRANCH   5   7
ATOM      7  C   UNL     1       4.361   3.946  18.499  0.00  0.00    +0.000 A 
ATOM      8  N   UNL     1       3.023   4.361  18.539  0.00  0.00    +0.000 NA
ATOM      9  C   UNL     1       2.565   3.767  19.596  0.00  0.00    +0.000 A 
ATOM     10  C   UNL     1       1.229   3.801  20.217  0.00  0.00    +0.000 A 
ATOM     11  C   UNL     1       1.089   3.053  21.325  0.00  0.00    +0.000 A 
ATOM     12  N   UNL     1       2.106   2.296  21.867  0.00  0.00    +0.000 N 
ATOM     13  C   UNL     1       3.361   2.263  21.298  0.00  0.00    +0.000 A 
ATOM     14  C   UNL     1       3.632   2.958  20.190  0.00  0.00    +0.000 A 
ATOM     15  N   UNL     1       4.751   3.113  19.434  0.00  0.00    +0.000 NA
ATOM     16  H   UNL     1       1.933   1.750  22.703  0.00  0.00    +0.000 HD
ENDBRANCH   5   7
BRANCH   1  18
ATOM     17  C   UNL     1       7.439   8.056  17.301  0.00  0.00    +0.000 C 
ATOM     18  O   UNL     1       7.937   6.839  16.743  0.00  0.00    +0.000 OA
ENDBRANCH   1  18
BRANCH   6  19
ATOM     19  O   UNL     1       6.359   5.806  18.958  0.00  0.00    +0.000 OA
ATOM     20  C   UNL     1       7.504   5.474  19.723  0.00  0.00    +0.000 C 
ENDBRANCH   6  19
TORSDOF 3
ENDMDL
MODEL 2
REMARK VINA RESULT:      -6.9      0.595      1.406
REMARK  Name = 
REMARK  5 active torsions:
REMARK  status: ('A' for Active; 'I' for Inactive)
REMARK    1  A    between atoms: C_1  and  O_2
REMARK    2  A    between atoms: O_2  and  C_3
REMARK    3  A    between atoms: C_7  and  C_8
REMARK    4  A    between atoms: C_17  and  O_18
REMARK    5  A    between atoms: O_18  and  C_19
REMARK                            x       y       z     vdW  Elec       q    Type
REMARK                         _______ _______ _______ _____ _____    ______ ____
ROOT
ATOM      1  C   UNL     1       6.931   5.704  16.443  0.00  0.00    +0.000 A 
ATOM      2  C   UNL     1       6.809   5.103  15.177  0.00  0.00    +0.000 A 
ATOM      3  C   UNL     1       5.746   4.251  14.889  0.00  0.00    +0.000 A 
ATOM      4  C   UNL     1       4.817   3.960  15.881  0.00  0.00    +0.000 A 
ATOM      5  C   UNL     1       4.977   4.488  17.172  0.00  0.00    +0.000 A 
ATOM      6  C   UNL     1       6.043   5.358  17.478  0.00  0.00    +0.000 A 
ENDROOT
BRANCH   5   7
ATOM      7  C   UNL     1       3.969   4.112  18.186  0.00  0.00    +0.000 A 
ATOM      8  N   UNL     1       4.390   3.367  19.296  0.00  0.00    +0.000 NA
ATOM      9  C   UNL     1       3.292   3.189  19.961  0.00  0.00    +0.000 A 
ATOM     10  C   UNL     1       3.033   2.464  21.219  0.00  0.00    +0.000 A 
ATOM     11  C   UNL     1       1.757   2.479  21.640  0.00  0.00    +0.000 A 
ATOM     12  N   UNL     1       0.739   3.119  20.966  0.00  0.00    +0.000 N 
ATOM     13  C   UNL     1       0.969   3.794  19.787  0.00  0.00    +0.000 A 
ATOM     14  C   UNL     1       2.194   3.860  19.260  0.00  0.00    +0.000 A 
ATOM     15  N   UNL     1       2.700   4.436  18.137  0.00  0.00    +0.000 NA
ATOM     16  H   UNL     1      -0.203   3.096  21.342  0.00  0.00    +0.000 HD
ENDBRANCH   5   7
BRANCH   1  18
ATOM     17  C   UNL     1       7.470   7.882  17.169  0.00  0.00    +0.000 C 
ATOM     18  O   UNL     1       7.923   6.622  16.670  0.00  0.00    +0.000 OA
ENDBRANCH   1  18
BRANCH   6  19
ATOM     19  O   UNL     1       6.043   5.855  18.753  0.00  0.00    +0.000 OA
ATOM     20  C   UNL     1       7.092   5.527  19.647  0.00  0.00    +0.000 C 
ENDBRANCH   6  19
TORSDOF 3
ENDMDL
MODEL 3
REMARK VINA RESULT:      -6.9      2.645      6.179
REMARK  Name = 
REMARK  5 active torsions:
REMARK  status: ('A' for Active; 'I' for Inactive)
REMARK    1  A    between atoms: C_1  and  O_2
REMARK    2  A    between atoms: O_2  and  C_3
REMARK    3  A    between atoms: C_7  and  C_8
REMARK    4  A    between atoms: C_17  and  O_18
REMARK    5  A    between atoms: O_18  and  C_19
REMARK                            x       y       z     vdW  Elec       q    Type
REMARK                         _______ _______ _______ _____ _____    ______ ____
ROOT
ATOM      1  C   UNL     1       2.595   4.320  20.955  0.00  0.00    +0.000 A 
ATOM      2  C   UNL     1       1.785   5.465  21.064  0.00  0.00    +0.000 A 
ATOM      3  C   UNL     1       1.846   6.477  20.109  0.00  0.00    +0.000 A 
ATOM      4  C   UNL     1       2.749   6.370  19.059  0.00  0.00    +0.000 A 
ATOM      5  C   UNL     1       3.621   5.272  18.987  0.00  0.00    +0.000 A 
ATOM      6  C   UNL     1       3.567   4.235  19.942  0.00  0.00    +0.000 A 
ENDROOT
BRANCH   5   7
ATOM      7  C   UNL     1       4.576   5.239  17.860  0.00  0.00    +0.000 A 
ATOM      8  N   UNL     1       4.195   4.574  16.687  0.00  0.00    +0.000 NA
ATOM      9  C   UNL     1       5.236   4.706  15.926  0.00  0.00    +0.000 A 
ATOM     10  C   UNL     1       5.501   4.215  14.561  0.00  0.00    +0.000 A 
ATOM     11  C   UNL     1       6.704   4.538  14.056  0.00  0.00    +0.000 A 
ATOM     12  N   UNL     1       7.645   5.277  14.741  0.00  0.00    +0.000 N 
ATOM     13  C   UNL     1       7.410   5.735  16.019  0.00  0.00    +0.000 A 
ATOM     14  C   UNL     1       6.252   5.487  16.636  0.00  0.00    +0.000 A 
ATOM     15  N   UNL     1       5.761   5.801  17.864  0.00  0.00    +0.000 NA
ATOM     16  H   UNL     1       8.532   5.490  14.299  0.00  0.00    +0.000 HD
ENDBRANCH   5   7
BRANCH   1  18
ATOM     17  C   UNL     1       1.223   2.557  21.709  0.00  0.00    +0.000 C 
ATOM     18  O   UNL     1       2.443   3.289  21.845  0.00  0.00    +0.000 OA
ENDBRANCH   1  18
BRANCH   6  19
ATOM     19  O   UNL     1       4.423   3.192  19.717  0.00  0.00    +0.000 OA
ATOM     20  C   UNL     1       3.935   1.966  19.200  0.00  0.00    +0.000 C 
ENDBRANCH   6  19
TORSDOF 3
ENDMDL
MODEL 4
REMARK VINA RESULT:      -6.9      2.685      5.910
REMARK  Name = 
REMARK  5 active torsions:
REMARK  status: ('A' for Active; 'I' for Inactive)
REMARK    1  A    between atoms: C_1  and  O_2
REMARK    2  A    between atoms: O_2  and  C_3
REMARK    3  A    between atoms: C_7  and  C_8
REMARK    4  A    between atoms: C_17  and  O_18
REMARK    5  A    between atoms: O_18  and  C_19
REMARK                            x       y       z     vdW  Elec       q    Type
REMARK                         _______ _______ _______ _____ _____    ______ ____
ROOT
ATOM      1  C   UNL     1       1.700   2.969  19.676  0.00  0.00    +0.000 A 
ATOM      2  C   UNL     1       1.636   1.967  18.692  0.00  0.00    +0.000 A 
ATOM      3  C   UNL     1       2.651   1.823  17.750  0.00  0.00    +0.000 A 
ATOM      4  C   UNL     1       3.721   2.710  17.759  0.00  0.00    +0.000 A 
ATOM      5  C   UNL     1       3.752   3.766  18.685  0.00  0.00    +0.000 A 
ATOM      6  C   UNL     1       2.736   3.921  19.650  0.00  0.00    +0.000 A 
ENDROOT
BRANCH   5   7
ATOM      7  C   UNL     1       4.905   4.689  18.618  0.00  0.00    +0.000 A 
ATOM      8  N   UNL     1       4.847   5.759  17.714  0.00  0.00    +0.000 NA
ATOM      9  C   UNL     1       5.990   6.345  17.885  0.00  0.00    +0.000 A 
ATOM     10  C   UNL     1       6.576   7.525  17.222  0.00  0.00    +0.000 A 
ATOM     11  C   UNL     1       7.802   7.875  17.647  0.00  0.00    +0.000 A 
ATOM     12  N   UNL     1       8.490   7.198  18.631  0.00  0.00    +0.000 N 
ATOM     13  C   UNL     1       7.955   6.090  19.252  0.00  0.00    +0.000 A 
ATOM     14  C   UNL     1       6.741   5.639  18.927  0.00  0.00    +0.000 A 
ATOM     15  N   UNL     1       5.984   4.596  19.357  0.00  0.00    +0.000 NA
ATOM     16  H   UNL     1       9.412   7.518  18.909  0.00  0.00    +0.000 HD
ENDBRANCH   5   7
BRANCH   1  18
ATOM     17  C   UNL     1       1.165   2.530  21.930  0.00  0.00    +0.000 C 
ATOM     18  O   UNL     1       0.745   3.025  20.657  0.00  0.00    +0.000 OA
ENDBRANCH   1  18
BRANCH   6  19
ATOM     19  O   UNL     1       2.924   4.948  20.534  0.00  0.00    +0.000 OA
ATOM     20  C   UNL     1       2.168   6.141  20.413  0.00  0.00    +0.000 C 
ENDBRANCH   6  19
TORSDOF 3
ENDMDL
MODEL 5
REMARK VINA RESULT:      -6.8      2.665      6.069
REMARK  Name = 
REMARK  5 active torsions:
REMARK  status: ('A' for Active; 'I' for Inactive)
REMARK    1  A    between atoms: C_1  and  O_2
REMARK    2  A    between atoms: O_2  and  C_3
REMARK    3  A    between atoms: C_7  and  C_8
REMARK    4  A    between atoms: C_17  and  O_18
REMARK    5  A    between atoms: O_18  and  C_19
REMARK                            x       y       z     vdW  Elec       q    Type
REMARK                         _______ _______ _______ _____ _____    ______ ____
ROOT
ATOM      1  C   UNL     1       1.676   3.046  19.723  0.00  0.00    +0.000 A 
ATOM      2  C   UNL     1       1.559   2.003  18.786  0.00  0.00    +0.000 A 
ATOM      3  C   UNL     1       2.473   1.871  17.745  0.00  0.00    +0.000 A 
ATOM      4  C   UNL     1       3.490   2.808  17.607  0.00  0.00    +0.000 A 
ATOM      5  C   UNL     1       3.566   3.900  18.486  0.00  0.00    +0.000 A 
ATOM      6  C   UNL     1       2.652   4.044  19.551  0.00  0.00    +0.000 A 
ENDROOT
BRANCH   5   7
ATOM      7  C   UNL     1       4.655   4.875  18.263  0.00  0.00    +0.000 A 
ATOM      8  N   UNL     1       5.814   4.764  19.042  0.00  0.00    +0.000 NA
ATOM      9  C   UNL     1       6.540   5.753  18.625  0.00  0.00    +0.000 A 
ATOM     10  C   UNL     1       7.874   6.216  19.050  0.00  0.00    +0.000 A 
ATOM     11  C   UNL     1       8.347   7.291  18.396  0.00  0.00    +0.000 A 
ATOM     12  N   UNL     1       7.657   7.937  17.393  0.00  0.00    +0.000 N 
ATOM     13  C   UNL     1       6.407   7.517  16.993  0.00  0.00    +0.000 A 
ATOM     14  C   UNL     1       5.824   6.457  17.558  0.00  0.00    +0.000 A 
ATOM     15  N   UNL     1       4.628   5.837  17.373  0.00  0.00    +0.000 NA
ATOM     16  H   UNL     1       8.073   8.741  16.937  0.00  0.00    +0.000 HD
ENDBRANCH   5   7
BRANCH   1  18
ATOM     17  C   UNL     1       1.360   2.534  22.002  0.00  0.00    +0.000 C 
ATOM     18  O   UNL     1       0.830   3.095  20.800  0.00  0.00    +0.000 OA
ENDBRANCH   1  18
BRANCH   6  19
ATOM     19  O   UNL     1       2.879   5.114  20.373  0.00  0.00    +0.000 OA
ATOM     20  C   UNL     1       2.020   6.240  20.334  0.00  0.00    +0.000 C 
ENDBRANCH   6  19
TORSDOF 3
ENDMDL
MODEL 6
REMARK VINA RESULT:      -6.8      1.812      2.731
REMARK  Name = 
REMARK  5 active torsions:
REMARK  status: ('A' for Active; 'I' for Inactive)
REMARK    1  A    between atoms: C_1  and  O_2
REMARK    2  A    between atoms: O_2  and  C_3
REMARK    3  A    between atoms: C_7  and  C_8
REMARK    4  A    between atoms: C_17  and  O_18
REMARK    5  A    between atoms: O_18  and  C_19
REMARK                            x       y       z     vdW  Elec       q    Type
REMARK                         _______ _______ _______ _____ _____    ______ ____
ROOT
ATOM      1  C   UNL     1       7.263   7.180  17.894  0.00  0.00    +0.000 A 
ATOM      2  C   UNL     1       8.257   6.802  18.813  0.00  0.00    +0.000 A 
ATOM      3  C   UNL     1       8.092   5.683  19.625  0.00  0.00    +0.000 A 
ATOM      4  C   UNL     1       6.910   4.956  19.553  0.00  0.00    +0.000 A 
ATOM      5  C   UNL     1       5.877   5.374  18.699  0.00  0.00    +0.000 A 
ATOM      6  C   UNL     1       6.031   6.500  17.865  0.00  0.00    +0.000 A 
ENDROOT
BRANCH   5   7
ATOM      7  C   UNL     1       4.636   4.571  18.695  0.00  0.00    +0.000 A 
ATOM      8  N   UNL     1       3.612   4.928  19.583  0.00  0.00    +0.000 NA
ATOM      9  C   UNL     1       2.700   4.037  19.349  0.00  0.00    +0.000 A 
ATOM     10  C   UNL     1       1.376   3.829  19.963  0.00  0.00    +0.000 A 
ATOM     11  C   UNL     1       0.671   2.794  19.475  0.00  0.00    +0.000 A 
ATOM     12  N   UNL     1       1.127   1.967  18.471  0.00  0.00    +0.000 N 
ATOM     13  C   UNL     1       2.366   2.148  17.895  0.00  0.00    +0.000 A 
ATOM     14  C   UNL     1       3.166   3.144  18.285  0.00  0.00    +0.000 A 
ATOM     15  N   UNL     1       4.408   3.548  17.909  0.00  0.00    +0.000 NA
ATOM     16  H   UNL     1       0.541   1.205  18.145  0.00  0.00    +0.000 HD
ENDBRANCH   5   7
BRANCH   1  18
ATOM     17  C   UNL     1       8.098   9.368  17.626  0.00  0.00    +0.000 C 
ATOM     18  O   UNL     1       7.490   8.220  17.031  0.00  0.00    +0.000 OA
ENDBRANCH   1  18
BRANCH   6  19
ATOM     19  O   UNL     1       4.976   6.758  17.033  0.00  0.00    +0.000 OA
ATOM     20  C   UNL     1       5.062   6.447  15.653  0.00  0.00    +0.000 C 
ENDBRANCH   6  19
TORSDOF 3
ENDMDL
MODEL 7
REMARK VINA RESULT:      -6.7      3.859      6.095
REMARK  Name = 
REMARK  5 active torsions:
REMARK  status: ('A' for Active; 'I' for Inactive)
REMARK    1  A    between atoms: C_1  and  O_2
REMARK    2  A    between atoms: O_2  and  C_3
REMARK    3  A    between atoms: C_7  and  C_8
REMARK    4  A    between atoms: C_17  and  O_18
REMARK    5  A    between atoms: O_18  and  C_19
REMARK                            x       y       z     vdW  Elec       q    Type
REMARK                         _______ _______ _______ _____ _____    ______ ____
ROOT
ATOM      1  C   UNL     1       1.305   8.355  20.250  0.00  0.00    +0.000 A 
ATOM      2  C   UNL     1       0.978   9.489  19.486  0.00  0.00    +0.000 A 
ATOM      3  C   UNL     1       1.447   9.635  18.184  0.00  0.00    +0.000 A 
ATOM      4  C   UNL     1       2.285   8.664  17.648  0.00  0.00    +0.000 A 
ATOM      5  C   UNL     1       2.686   7.570  18.431  0.00  0.00    +0.000 A 
ATOM      6  C   UNL     1       2.213   7.404  19.749  0.00  0.00    +0.000 A 
ENDROOT
BRANCH   5   7
ATOM      7  C   UNL     1       3.602   6.591  17.807  0.00  0.00    +0.000 A 
ATOM      8  N   UNL     1       4.899   7.011  17.481  0.00  0.00    +0.000 NA
ATOM      9  C   UNL     1       5.421   5.952  16.946  0.00  0.00    +0.000 A 
ATOM     10  C   UNL     1       6.758   5.725  16.367  0.00  0.00    +0.000 A 
ATOM     11  C   UNL     1       6.977   4.486  15.893  0.00  0.00    +0.000 A 
ATOM     12  N   UNL     1       6.038   3.478  15.932  0.00  0.00    +0.000 N 
ATOM     13  C   UNL     1       4.784   3.682  16.465  0.00  0.00    +0.000 A 
ATOM     14  C   UNL     1       4.438   4.867  16.974  0.00  0.00    +0.000 A 
ATOM     15  N   UNL     1       3.300   5.343  17.545  0.00  0.00    +0.000 NA
ATOM     16  H   UNL     1       6.270   2.564  15.560  0.00  0.00    +0.000 HD
ENDBRANCH   5   7
BRANCH   1  18
ATOM     17  C   UNL     1       0.909   9.287  22.378  0.00  0.00    +0.000 C 
ATOM     18  O   UNL     1       0.746   8.181  21.489  0.00  0.00    +0.000 OA
ENDBRANCH   1  18
BRANCH   6  19
ATOM     19  O   UNL     1       2.627   6.260  20.376  0.00  0.00    +0.000 OA
ATOM     20  C   UNL     1       1.707   5.213  20.632  0.00  0.00    +0.000 C 
ENDBRANCH   6  19
TORSDOF 3
ENDMDL
MODEL 8
REMARK VINA RESULT:      -6.7      1.299      1.891
REMARK  Name = 
REMARK  5 active torsions:
REMARK  status: ('A' for Active; 'I' for Inactive)
REMARK    1  A    between atoms: C_1  and  O_2
REMARK    2  A    between atoms: O_2  and  C_3
REMARK    3  A    between atoms: C_7  and  C_8
REMARK    4  A    between atoms: C_17  and  O_18
REMARK    5  A    between atoms: O_18  and  C_19
REMARK                            x       y       z     vdW  Elec       q    Type
REMARK                         _______ _______ _______ _____ _____    ______ ____
ROOT
ATOM      1  C   UNL     1       6.454   6.218  16.499  0.00  0.00    +0.000 A 
ATOM      2  C   UNL     1       7.047   5.267  15.649  0.00  0.00    +0.000 A 
ATOM      3  C   UNL     1       6.559   3.964  15.582  0.00  0.00    +0.000 A 
ATOM      4  C   UNL     1       5.498   3.591  16.398  0.00  0.00    +0.000 A 
ATOM      5  C   UNL     1       4.954   4.509  17.311  0.00  0.00    +0.000 A 
ATOM      6  C   UNL     1       5.432   5.834  17.385  0.00  0.00    +0.000 A 
ENDROOT
BRANCH   5   7
ATOM      7  C   UNL     1       3.848   4.035  18.169  0.00  0.00    +0.000 A 
ATOM      8  N   UNL     1       4.113   3.802  19.525  0.00  0.00    +0.000 NA
ATOM      9  C   UNL     1       2.972   3.385  19.978  0.00  0.00    +0.000 A 
ATOM     10  C   UNL     1       2.573   2.946  21.328  0.00  0.00    +0.000 A 
ATOM     11  C   UNL     1       1.288   2.574  21.456  0.00  0.00    +0.000 A 
ATOM     12  N   UNL     1       0.382   2.592  20.417  0.00  0.00    +0.000 N 
ATOM     13  C   UNL     1       0.746   2.994  19.150  0.00  0.00    +0.000 A 
ATOM     14  C   UNL     1       1.993   3.393  18.888  0.00  0.00    +0.000 A 
ATOM     15  N   UNL     1       2.619   3.827  17.762  0.00  0.00    +0.000 NA
ATOM     16  H   UNL     1      -0.575   2.302  20.583  0.00  0.00    +0.000 HD
ENDBRANCH   5   7
BRANCH   1  18
ATOM     17  C   UNL     1       7.766   7.882  17.532  0.00  0.00    +0.000 C 
ATOM     18  O   UNL     1       6.882   7.519  16.470  0.00  0.00    +0.000 OA
ENDBRANCH   1  18
BRANCH   6  19
ATOM     19  O   UNL     1       4.770   6.643  18.267  0.00  0.00    +0.000 OA
ATOM     20  C   UNL     1       3.646   7.395  17.842  0.00  0.00    +0.000 C 
ENDBRANCH   6  19
TORSDOF 3
ENDMDL
MODEL 9
REMARK VINA RESULT:      -6.7      4.210      5.528
REMARK  Name = 
REMARK  5 active torsions:
REMARK  status: ('A' for Active; 'I' for Inactive)
REMARK    1  A    between atoms: C_1  and  O_2
REMARK    2  A    between atoms: O_2  and  C_3
REMARK    3  A    between atoms: C_7  and  C_8
REMARK    4  A    between atoms: C_17  and  O_18
REMARK    5  A    between atoms: O_18  and  C_19
REMARK                            x       y       z     vdW  Elec       q    Type
REMARK                         _______ _______ _______ _____ _____    ______ ____
ROOT
ATOM      1  C   UNL     1       3.343   3.637  17.457  0.00  0.00    +0.000 A 
ATOM      2  C   UNL     1       4.580   3.910  16.848  0.00  0.00    +0.000 A 
ATOM      3  C   UNL     1       5.142   5.183  16.909  0.00  0.00    +0.000 A 
ATOM      4  C   UNL     1       4.448   6.205  17.546  0.00  0.00    +0.000 A 
ATOM      5  C   UNL     1       3.174   5.963  18.083  0.00  0.00    +0.000 A 
ATOM      6  C   UNL     1       2.595   4.678  18.037  0.00  0.00    +0.000 A 
ENDROOT
BRANCH   5   7
ATOM      7  C   UNL     1       2.480   7.103  18.719  0.00  0.00    +0.000 A 
ATOM      8  N   UNL     1       2.066   8.166  17.905  0.00  0.00    +0.000 NA
ATOM      9  C   UNL     1       1.527   8.987  18.750  0.00  0.00    +0.000 A 
ATOM     10  C   UNL     1       0.916  10.314  18.549  0.00  0.00    +0.000 A 
ATOM     11  C   UNL     1       0.443  10.904  19.659  0.00  0.00    +0.000 A 
ATOM     12  N   UNL     1       0.509  10.335  20.913  0.00  0.00    +0.000 N 
ATOM     13  C   UNL     1       1.084   9.099  21.113  0.00  0.00    +0.000 A 
ATOM     14  C   UNL     1       1.589   8.402  20.092  0.00  0.00    +0.000 A 
ATOM     15  N   UNL     1       2.204   7.194  19.998  0.00  0.00    +0.000 NA
ATOM     16  H   UNL     1       0.128  10.833  21.710  0.00  0.00    +0.000 HD
ENDBRANCH   5   7
BRANCH   1  18
ATOM     17  C   UNL     1       3.544   1.472  18.370  0.00  0.00    +0.000 C 
ATOM     18  O   UNL     1       2.860   2.354  17.477  0.00  0.00    +0.000 OA
ENDBRANCH   1  18
BRANCH   6  19
ATOM     19  O   UNL     1       1.381   4.563  18.658  0.00  0.00    +0.000 OA
ATOM     20  C   UNL     1       1.272   3.874  19.891  0.00  0.00    +0.000 C 
ENDBRANCH   6  19
TORSDOF 3
ENDMDL
