MODEL 1
REMARK VINA RESULT:      -8.6      0.000      0.000
REMARK  Name = 
REMARK  7 active torsions:
REMARK  status: ('A' for Active; 'I' for Inactive)
REMARK    1  A    between atoms: C_2  and  C_3
REMARK    2  A    between atoms: C_3  and  C_4
REMARK    3  A    between atoms: C_4  and  C_5
REMARK    4  A    between atoms: N_7  and  C_8
REMARK    5  A    between atoms: C_8  and  C_9
REMARK    6  A    between atoms: N_22  and  C_23
REMARK    7  A    between atoms: C_26  and  N_27
REMARK                            x       y       z     vdW  Elec       q    Type
REMARK                         _______ _______ _______ _____ _____    ______ ____
ROOT
ATOM      1  C   UNL     1       2.582   6.423  19.684  0.00  0.00    +0.000 A 
ATOM      2  C   UNL     1       3.886   6.380  19.235  0.00  0.00    +0.000 A 
ATOM      3  N   UNL     1       4.319   5.076  19.270  0.00  0.00    +0.000 N 
ATOM      4  C   UNL     1       3.307   4.257  19.731  0.00  0.00    +0.000 A 
ATOM      5  C   UNL     1       3.259   2.867  19.929  0.00  0.00    +0.000 A 
ATOM      6  C   UNL     1       2.079   2.312  20.436  0.00  0.00    +0.000 A 
ATOM      7  C   UNL     1       0.984   3.113  20.740  0.00  0.00    +0.000 A 
ATOM      8  C   UNL     1       1.038   4.495  20.534  0.00  0.00    +0.000 A 
ATOM      9  C   UNL     1       2.212   5.082  20.015  0.00  0.00    +0.000 A 
ENDROOT
BRANCH   1  10
ATOM     10  C   UNL     1       1.736   7.649  19.814  0.00  0.00    +0.000 C 
BRANCH  10  11
ATOM     11  C   UNL     1       1.627   8.135  21.261  0.00  0.00    +0.000 C 
BRANCH  11  13
ATOM     12  O   UNL     1      -0.745   8.116  21.619  0.00  0.00    +0.000 OA
ATOM     13  C   UNL     1       0.279   8.784  21.507  0.00  0.00    +0.000 C 
ATOM     14  N   UNL     1       0.349  10.173  21.555  0.00  0.00    +0.000 N 
ATOM     15  H   UNL     1       1.212  10.599  21.238  0.00  0.00    +0.000 HD
BRANCH  14  16
ATOM     16  C   UNL     1      -0.748  11.036  21.783  0.00  0.00    +0.000 A 
ATOM     17  C   UNL     1      -1.328  11.205  23.044  0.00  0.00    +0.000 A 
ATOM     18  C   UNL     1      -2.479  11.978  23.210  0.00  0.00    +0.000 A 
ATOM     19  C   UNL     1      -3.048  12.607  22.102  0.00  0.00    +0.000 A 
ATOM     20  C   UNL     1      -2.436  12.516  20.846  0.00  0.00    +0.000 A 
ATOM     21  C   UNL     1      -1.277  11.740  20.692  0.00  0.00    +0.000 A 
BRANCH  19  22
ATOM     22  N   UNL     1      -4.310  13.343  22.258  0.00  0.00    +0.000 N 
ATOM     23  O   UNL     1      -4.859  13.320  23.367  0.00  0.00    +0.000 OA
ATOM     24  O   UNL     1      -4.754  13.936  21.264  0.00  0.00    +0.000 OA
ENDBRANCH  19  22
ENDBRANCH  14  16
ENDBRANCH  11  13
ENDBRANCH  10  11
ENDBRANCH   1  10
BRANCH   3  25
ATOM     25  C   UNL     1       5.675   4.653  18.926  0.00  0.00    +0.000 C 
BRANCH  25  26
ATOM     26  C   UNL     1       5.876   4.563  17.432  0.00  0.00    +0.000 A 
ATOM     27  C   UNL     1       4.865   4.053  16.600  0.00  0.00    +0.000 A 
ATOM     28  C   UNL     1       5.080   3.901  15.230  0.00  0.00    +0.000 A 
ATOM     29  C   UNL     1       6.300   4.278  14.675  0.00  0.00    +0.000 A 
ATOM     30 CL   UNL     1       6.584   4.041  12.995  0.00  0.00    +0.000 Cl
ATOM     31  C   UNL     1       7.296   4.833  15.476  0.00  0.00    +0.000 A 
ATOM     32  C   UNL     1       7.083   4.977  16.849  0.00  0.00    +0.000 A 
ENDBRANCH  25  26
ENDBRANCH   3  25
TORSDOF 7
ENDMDL
MODEL 2
REMARK VINA RESULT:      -8.4      5.118     10.807
REMARK  Name = 
REMARK  7 active torsions:
REMARK  status: ('A' for Active; 'I' for Inactive)
REMARK    1  A    between atoms: C_2  and  C_3
REMARK    2  A    between atoms: C_3  and  C_4
REMARK    3  A    between atoms: C_4  and  C_5
REMARK    4  A    between atoms: N_7  and  C_8
REMARK    5  A    between atoms: C_8  and  C_9
REMARK    6  A    between atoms: N_22  and  C_23
REMARK    7  A    between atoms: C_26  and  N_27
REMARK                            x       y       z     vdW  Elec       q    Type
REMARK                         _______ _______ _______ _____ _____    ______ ____
ROOT
ATOM      1  C   UNL     1      -0.241  10.356  19.172  0.00  0.00    +0.000 A 
ATOM      2  C   UNL     1      -0.889  11.557  18.964  0.00  0.00    +0.000 A 
ATOM      3  N   UNL     1      -1.313  12.044  20.176  0.00  0.00    +0.000 N 
ATOM      4  C   UNL     1      -0.943  11.178  21.186  0.00  0.00    +0.000 A 
ATOM      5  C   UNL     1      -1.133  11.240  22.577  0.00  0.00    +0.000 A 
ATOM      6  C   UNL     1      -0.654  10.184  23.358  0.00  0.00    +0.000 A 
ATOM      7  C   UNL     1      -0.010   9.098  22.776  0.00  0.00    +0.000 A 
ATOM      8  C   UNL     1       0.180   9.045  21.392  0.00  0.00    +0.000 A 
ATOM      9  C   UNL     1      -0.284  10.102  20.579  0.00  0.00    +0.000 A 
ENDROOT
BRANCH   1  10
ATOM     10  C   UNL     1       0.367   9.489  18.117  0.00  0.00    +0.000 C 
BRANCH  10  11
ATOM     11  C   UNL     1       1.881   9.680  18.004  0.00  0.00    +0.000 C 
BRANCH  11  13
ATOM     12  O   UNL     1       3.396   8.193  16.886  0.00  0.00    +0.000 OA
ATOM     13  C   UNL     1       2.573   8.349  17.783  0.00  0.00    +0.000 C 
ATOM     14  N   UNL     1       2.146   7.365  18.670  0.00  0.00    +0.000 N 
ATOM     15  H   UNL     1       1.316   7.569  19.215  0.00  0.00    +0.000 HD
BRANCH  14  16
ATOM     16  C   UNL     1       2.628   6.036  18.705  0.00  0.00    +0.000 A 
ATOM     17  C   UNL     1       1.841   4.937  18.350  0.00  0.00    +0.000 A 
ATOM     18  C   UNL     1       2.314   3.632  18.504  0.00  0.00    +0.000 A 
ATOM     19  C   UNL     1       3.601   3.423  19.001  0.00  0.00    +0.000 A 
ATOM     20  C   UNL     1       4.434   4.513  19.287  0.00  0.00    +0.000 A 
ATOM     21  C   UNL     1       3.949   5.819  19.124  0.00  0.00    +0.000 A 
BRANCH  19  22
ATOM     22  N   UNL     1       4.066   2.052  19.252  0.00  0.00    +0.000 N 
ATOM     23  O   UNL     1       4.819   1.865  20.217  0.00  0.00    +0.000 OA
ATOM     24  O   UNL     1       3.684   1.166  18.474  0.00  0.00    +0.000 OA
ENDBRANCH  19  22
ENDBRANCH  14  16
ENDBRANCH  11  13
ENDBRANCH  10  11
ENDBRANCH   1  10
BRANCH   3  25
ATOM     25  C   UNL     1      -2.096  13.267  20.341  0.00  0.00    +0.000 C 
BRANCH  25  26
ATOM     26  C   UNL     1      -3.537  12.971  20.683  0.00  0.00    +0.000 A 
ATOM     27  C   UNL     1      -4.396  12.387  19.738  0.00  0.00    +0.000 A 
ATOM     28  C   UNL     1      -5.745  12.184  20.031  0.00  0.00    +0.000 A 
ATOM     29  C   UNL     1      -6.243  12.542  21.281  0.00  0.00    +0.000 A 
ATOM     30 CL   UNL     1      -7.916  12.340  21.624  0.00  0.00    +0.000 Cl
ATOM     31  C   UNL     1      -5.395  13.076  22.250  0.00  0.00    +0.000 A 
ATOM     32  C   UNL     1      -4.047  13.287  21.953  0.00  0.00    +0.000 A 
ENDBRANCH  25  26
ENDBRANCH   3  25
TORSDOF 7
ENDMDL
MODEL 3
REMARK VINA RESULT:      -8.3      2.320      2.916
REMARK  Name = 
REMARK  7 active torsions:
REMARK  status: ('A' for Active; 'I' for Inactive)
REMARK    1  A    between atoms: C_2  and  C_3
REMARK    2  A    between atoms: C_3  and  C_4
REMARK    3  A    between atoms: C_4  and  C_5
REMARK    4  A    between atoms: N_7  and  C_8
REMARK    5  A    between atoms: C_8  and  C_9
REMARK    6  A    between atoms: N_22  and  C_23
REMARK    7  A    between atoms: C_26  and  N_27
REMARK                            x       y       z     vdW  Elec       q    Type
REMARK                         _______ _______ _______ _____ _____    ______ ____
ROOT
ATOM      1  C   UNL     1       3.040   6.967  18.024  0.00  0.00    +0.000 A 
ATOM      2  C   UNL     1       4.282   6.609  17.540  0.00  0.00    +0.000 A 
ATOM      3  N   UNL     1       4.682   5.454  18.167  0.00  0.00    +0.000 N 
ATOM      4  C   UNL     1       3.710   5.042  19.057  0.00  0.00    +0.000 A 
ATOM      5  C   UNL     1       3.649   3.928  19.912  0.00  0.00    +0.000 A 
ATOM      6  C   UNL     1       2.522   3.781  20.727  0.00  0.00    +0.000 A 
ATOM      7  C   UNL     1       1.490   4.712  20.697  0.00  0.00    +0.000 A 
ATOM      8  C   UNL     1       1.556   5.815  19.839  0.00  0.00    +0.000 A 
ATOM      9  C   UNL     1       2.677   5.984  18.998  0.00  0.00    +0.000 A 
ENDROOT
BRANCH   1  10
ATOM     10  C   UNL     1       2.246   8.166  17.614  0.00  0.00    +0.000 C 
BRANCH  10  11
ATOM     11  C   UNL     1       2.219   9.247  18.697  0.00  0.00    +0.000 C 
BRANCH  11  13
ATOM     12  O   UNL     1       0.378   9.395  20.227  0.00  0.00    +0.000 OA
ATOM     13  C   UNL     1       0.792   9.577  19.086  0.00  0.00    +0.000 C 
ATOM     14  N   UNL     1       0.039  10.062  18.020  0.00  0.00    +0.000 N 
ATOM     15  H   UNL     1       0.439   9.962  17.095  0.00  0.00    +0.000 HD
BRANCH  14  16
ATOM     16  C   UNL     1      -1.315  10.462  18.095  0.00  0.00    +0.000 A 
ATOM     17  C   UNL     1      -2.330   9.834  17.368  0.00  0.00    +0.000 A 
ATOM     18  C   UNL     1      -3.637  10.327  17.380  0.00  0.00    +0.000 A 
ATOM     19  C   UNL     1      -3.937  11.453  18.147  0.00  0.00    +0.000 A 
ATOM     20  C   UNL     1      -2.952  12.048  18.946  0.00  0.00    +0.000 A 
ATOM     21  C   UNL     1      -1.644  11.540  18.929  0.00  0.00    +0.000 A 
BRANCH  19  22
ATOM     22  N   UNL     1      -5.287  12.029  18.089  0.00  0.00    +0.000 N 
ATOM     23  O   UNL     1      -5.976  11.992  19.117  0.00  0.00    +0.000 OA
ATOM     24  O   UNL     1      -5.661  12.509  17.009  0.00  0.00    +0.000 OA
ENDBRANCH  19  22
ENDBRANCH  14  16
ENDBRANCH  11  13
ENDBRANCH  10  11
ENDBRANCH   1  10
BRANCH   3  25
ATOM     25  C   UNL     1       5.978   4.813  17.955  0.00  0.00    +0.000 C 
BRANCH  25  26
ATOM     26  C   UNL     1       6.263   4.591  16.488  0.00  0.00    +0.000 A 
ATOM     27  C   UNL     1       7.296   5.289  15.843  0.00  0.00    +0.000 A 
ATOM     28  C   UNL     1       7.509   5.139  14.471  0.00  0.00    +0.000 A 
ATOM     29  C   UNL     1       6.706   4.270  13.739  0.00  0.00    +0.000 A 
ATOM     30 CL   UNL     1       6.934   4.124  12.040  0.00  0.00    +0.000 Cl
ATOM     31  C   UNL     1       5.710   3.529  14.371  0.00  0.00    +0.000 A 
ATOM     32  C   UNL     1       5.491   3.687  15.742  0.00  0.00    +0.000 A 
ENDBRANCH  25  26
ENDBRANCH   3  25
TORSDOF 7
ENDMDL
MODEL 4
REMARK VINA RESULT:      -8.3      2.039      2.466
REMARK  Name = 
REMARK  7 active torsions:
REMARK  status: ('A' for Active; 'I' for Inactive)
REMARK    1  A    between atoms: C_2  and  C_3
REMARK    2  A    between atoms: C_3  and  C_4
REMARK    3  A    between atoms: C_4  and  C_5
REMARK    4  A    between atoms: N_7  and  C_8
REMARK    5  A    between atoms: C_8  and  C_9
REMARK    6  A    between atoms: N_22  and  C_23
REMARK    7  A    between atoms: C_26  and  N_27
REMARK                            x       y       z     vdW  Elec       q    Type
REMARK                         _______ _______ _______ _____ _____    ______ ____
ROOT
ATOM      1  C   UNL     1       2.630   6.469  19.522  0.00  0.00    +0.000 A 
ATOM      2  C   UNL     1       3.921   6.415  19.037  0.00  0.00    +0.000 A 
ATOM      3  N   UNL     1       4.385   5.129  19.165  0.00  0.00    +0.000 N 
ATOM      4  C   UNL     1       3.407   4.330  19.724  0.00  0.00    +0.000 A 
ATOM      5  C   UNL     1       3.398   2.960  20.038  0.00  0.00    +0.000 A 
ATOM      6  C   UNL     1       2.247   2.425  20.626  0.00  0.00    +0.000 A 
ATOM      7  C   UNL     1       1.143   3.225  20.897  0.00  0.00    +0.000 A 
ATOM      8  C   UNL     1       1.158   4.586  20.576  0.00  0.00    +0.000 A 
ATOM      9  C   UNL     1       2.302   5.152  19.973  0.00  0.00    +0.000 A 
ENDROOT
BRANCH   1  10
ATOM     10  C   UNL     1       1.759   7.683  19.576  0.00  0.00    +0.000 C 
BRANCH  10  11
ATOM     11  C   UNL     1       1.428   8.101  21.011  0.00  0.00    +0.000 C 
BRANCH  11  13
ATOM     12  O   UNL     1       1.077  10.194  22.129  0.00  0.00    +0.000 OA
ATOM     13  C   UNL     1       1.077   9.575  21.069  0.00  0.00    +0.000 C 
ATOM     14  N   UNL     1       0.738  10.100  19.826  0.00  0.00    +0.000 N 
ATOM     15  H   UNL     1       0.573   9.436  19.078  0.00  0.00    +0.000 HD
BRANCH  14  16
ATOM     16  C   UNL     1       0.381  11.446  19.580  0.00  0.00    +0.000 A 
ATOM     17  C   UNL     1       1.272  12.378  19.040  0.00  0.00    +0.000 A 
ATOM     18  C   UNL     1       0.919  13.724  18.916  0.00  0.00    +0.000 A 
ATOM     19  C   UNL     1      -0.349  14.140  19.320  0.00  0.00    +0.000 A 
ATOM     20  C   UNL     1      -1.284  13.208  19.788  0.00  0.00    +0.000 A 
ATOM     21  C   UNL     1      -0.920  11.858  19.904  0.00  0.00    +0.000 A 
BRANCH  19  22
ATOM     22  N   UNL     1      -0.689  15.569  19.278  0.00  0.00    +0.000 N 
ATOM     23  O   UNL     1      -1.529  15.987  20.086  0.00  0.00    +0.000 OA
ATOM     24  O   UNL     1      -0.121  16.269  18.428  0.00  0.00    +0.000 OA
ENDBRANCH  19  22
ENDBRANCH  14  16
ENDBRANCH  11  13
ENDBRANCH  10  11
ENDBRANCH   1  10
BRANCH   3  25
ATOM     25  C   UNL     1       5.741   4.707  18.815  0.00  0.00    +0.000 C 
BRANCH  25  26
ATOM     26  C   UNL     1       5.921   4.576  17.321  0.00  0.00    +0.000 A 
ATOM     27  C   UNL     1       4.907   4.029  16.519  0.00  0.00    +0.000 A 
ATOM     28  C   UNL     1       5.105   3.840  15.151  0.00  0.00    +0.000 A 
ATOM     29  C   UNL     1       6.311   4.217  14.569  0.00  0.00    +0.000 A 
ATOM     30 CL   UNL     1       6.576   3.936  12.892  0.00  0.00    +0.000 Cl
ATOM     31  C   UNL     1       7.311   4.809  15.338  0.00  0.00    +0.000 A 
ATOM     32  C   UNL     1       7.115   4.989  16.710  0.00  0.00    +0.000 A 
ENDBRANCH  25  26
ENDBRANCH   3  25
TORSDOF 7
ENDMDL
MODEL 5
REMARK VINA RESULT:      -8.3      4.767     11.014
REMARK  Name = 
REMARK  7 active torsions:
REMARK  status: ('A' for Active; 'I' for Inactive)
REMARK    1  A    between atoms: C_2  and  C_3
REMARK    2  A    between atoms: C_3  and  C_4
REMARK    3  A    between atoms: C_4  and  C_5
REMARK    4  A    between atoms: N_7  and  C_8
REMARK    5  A    between atoms: C_8  and  C_9
REMARK    6  A    between atoms: N_22  and  C_23
REMARK    7  A    between atoms: C_26  and  N_27
REMARK                            x       y       z     vdW  Elec       q    Type
REMARK                         _______ _______ _______ _____ _____    ______ ____
ROOT
ATOM      1  C   UNL     1      -0.474  10.477  18.208  0.00  0.00    +0.000 A 
ATOM      2  C   UNL     1      -0.206  11.500  19.096  0.00  0.00    +0.000 A 
ATOM      3  N   UNL     1      -1.358  12.222  19.295  0.00  0.00    +0.000 N 
ATOM      4  C   UNL     1      -2.387  11.679  18.551  0.00  0.00    +0.000 A 
ATOM      5  C   UNL     1      -3.737  12.049  18.430  0.00  0.00    +0.000 A 
ATOM      6  C   UNL     1      -4.551  11.306  17.568  0.00  0.00    +0.000 A 
ATOM      7  C   UNL     1      -4.039  10.234  16.846  0.00  0.00    +0.000 A 
ATOM      8  C   UNL     1      -2.696   9.869  16.977  0.00  0.00    +0.000 A 
ATOM      9  C   UNL     1      -1.853  10.594  17.847  0.00  0.00    +0.000 A 
ENDROOT
BRANCH   1  10
ATOM     10  C   UNL     1       0.505   9.461  17.713  0.00  0.00    +0.000 C 
BRANCH  10  11
ATOM     11  C   UNL     1       1.810   9.468  18.513  0.00  0.00    +0.000 C 
BRANCH  11  13
ATOM     12  O   UNL     1       1.883   7.749  20.184  0.00  0.00    +0.000 OA
ATOM     13  C   UNL     1       2.127   8.078  19.027  0.00  0.00    +0.000 C 
ATOM     14  N   UNL     1       2.733   7.272  18.068  0.00  0.00    +0.000 N 
ATOM     15  H   UNL     1       3.068   7.732  17.229  0.00  0.00    +0.000 HD
BRANCH  14  16
ATOM     16  C   UNL     1       3.126   5.928  18.264  0.00  0.00    +0.000 A 
ATOM     17  C   UNL     1       2.322   4.844  17.898  0.00  0.00    +0.000 A 
ATOM     18  C   UNL     1       2.693   3.534  18.209  0.00  0.00    +0.000 A 
ATOM     19  C   UNL     1       3.895   3.303  18.879  0.00  0.00    +0.000 A 
ATOM     20  C   UNL     1       4.752   4.368  19.182  0.00  0.00    +0.000 A 
ATOM     21  C   UNL     1       4.371   5.680  18.860  0.00  0.00    +0.000 A 
BRANCH  19  22
ATOM     22  N   UNL     1       4.243   1.936  19.289  0.00  0.00    +0.000 N 
ATOM     23  O   UNL     1       3.751   0.997  18.649  0.00  0.00    +0.000 OA
ATOM     24  O   UNL     1       5.002   1.804  20.261  0.00  0.00    +0.000 OA
ENDBRANCH  19  22
ENDBRANCH  14  16
ENDBRANCH  11  13
ENDBRANCH  10  11
ENDBRANCH   1  10
BRANCH   3  25
ATOM     25  C   UNL     1      -1.440  13.422  20.125  0.00  0.00    +0.000 C 
BRANCH  25  26
ATOM     26  C   UNL     1      -2.233  13.180  21.388  0.00  0.00    +0.000 A 
ATOM     27  C   UNL     1      -1.852  12.177  22.295  0.00  0.00    +0.000 A 
ATOM     28  C   UNL     1      -2.628  11.905  23.423  0.00  0.00    +0.000 A 
ATOM     29  C   UNL     1      -3.778  12.649  23.666  0.00  0.00    +0.000 A 
ATOM     30 CL   UNL     1      -4.763  12.279  25.028  0.00  0.00    +0.000 Cl
ATOM     31  C   UNL     1      -4.144  13.682  22.806  0.00  0.00    +0.000 A 
ATOM     32  C   UNL     1      -3.373  13.948  21.672  0.00  0.00    +0.000 A 
ENDBRANCH  25  26
ENDBRANCH   3  25
TORSDOF 7
ENDMDL
MODEL 6
REMARK VINA RESULT:      -8.2      6.147      9.244
REMARK  Name = 
REMARK  7 active torsions:
REMARK  status: ('A' for Active; 'I' for Inactive)
REMARK    1  A    between atoms: C_2  and  C_3
REMARK    2  A    between atoms: C_3  and  C_4
REMARK    3  A    between atoms: C_4  and  C_5
REMARK    4  A    between atoms: N_7  and  C_8
REMARK    5  A    between atoms: C_8  and  C_9
REMARK    6  A    between atoms: N_22  and  C_23
REMARK    7  A    between atoms: C_26  and  N_27
REMARK                            x       y       z     vdW  Elec       q    Type
REMARK                         _______ _______ _______ _____ _____    ______ ____
ROOT
ATOM      1  C   UNL     1       5.484   5.896  17.623  0.00  0.00    +0.000 A 
ATOM      2  C   UNL     1       4.849   7.120  17.555  0.00  0.00    +0.000 A 
ATOM      3  N   UNL     1       3.492   6.915  17.617  0.00  0.00    +0.000 N 
ATOM      4  C   UNL     1       3.226   5.565  17.733  0.00  0.00    +0.000 A 
ATOM      5  C   UNL     1       2.011   4.866  17.841  0.00  0.00    +0.000 A 
ATOM      6  C   UNL     1       2.057   3.471  17.927  0.00  0.00    +0.000 A 
ATOM      7  C   UNL     1       3.269   2.791  17.901  0.00  0.00    +0.000 A 
ATOM      8  C   UNL     1       4.474   3.494  17.799  0.00  0.00    +0.000 A 
ATOM      9  C   UNL     1       4.459   4.903  17.721  0.00  0.00    +0.000 A 
ENDROOT
BRANCH   1  10
ATOM     10  C   UNL     1       6.961   5.666  17.580  0.00  0.00    +0.000 C 
BRANCH  10  11
ATOM     11  C   UNL     1       7.711   6.488  18.631  0.00  0.00    +0.000 C 
BRANCH  11  13
ATOM     12  O   UNL     1       7.959   8.114  16.885  0.00  0.00    +0.000 OA
ATOM     13  C   UNL     1       8.086   7.848  18.077  0.00  0.00    +0.000 C 
ATOM     14  N   UNL     1       8.599   8.704  19.046  0.00  0.00    +0.000 N 
ATOM     15  H   UNL     1       8.846   8.290  19.938  0.00  0.00    +0.000 HD
BRANCH  14  16
ATOM     16  C   UNL     1       9.018  10.035  18.818  0.00  0.00    +0.000 A 
ATOM     17  C   UNL     1       8.337  10.906  17.961  0.00  0.00    +0.000 A 
ATOM     18  C   UNL     1       8.843  12.175  17.673  0.00  0.00    +0.000 A 
ATOM     19  C   UNL     1      10.036  12.589  18.266  0.00  0.00    +0.000 A 
ATOM     20  C   UNL     1      10.689  11.764  19.190  0.00  0.00    +0.000 A 
ATOM     21  C   UNL     1      10.170  10.492  19.474  0.00  0.00    +0.000 A 
BRANCH  19  22
ATOM     22  N   UNL     1      10.617  13.886  17.894  0.00  0.00    +0.000 N 
ATOM     23  O   UNL     1      11.837  13.935  17.691  0.00  0.00    +0.000 OA
ATOM     24  O   UNL     1       9.850  14.857  17.814  0.00  0.00    +0.000 OA
ENDBRANCH  19  22
ENDBRANCH  14  16
ENDBRANCH  11  13
ENDBRANCH  10  11
ENDBRANCH   1  10
BRANCH   3  25
ATOM     25  C   UNL     1       2.496   7.979  17.508  0.00  0.00    +0.000 C 
BRANCH  25  26
ATOM     26  C   UNL     1       1.916   8.347  18.854  0.00  0.00    +0.000 A 
ATOM     27  C   UNL     1       2.101   7.514  19.969  0.00  0.00    +0.000 A 
ATOM     28  C   UNL     1       1.502   7.819  21.193  0.00  0.00    +0.000 A 
ATOM     29  C   UNL     1       0.732   8.971  21.317  0.00  0.00    +0.000 A 
ATOM     30 CL   UNL     1      -0.049   9.319  22.810  0.00  0.00    +0.000 Cl
ATOM     31  C   UNL     1       0.580   9.837  20.236  0.00  0.00    +0.000 A 
ATOM     32  C   UNL     1       1.172   9.527  19.009  0.00  0.00    +0.000 A 
ENDBRANCH  25  26
ENDBRANCH   3  25
TORSDOF 7
ENDMDL
MODEL 7
REMARK VINA RESULT:      -8.2      0.914      1.058
REMARK  Name = 
REMARK  7 active torsions:
REMARK  status: ('A' for Active; 'I' for Inactive)
REMARK    1  A    between atoms: C_2  and  C_3
REMARK    2  A    between atoms: C_3  and  C_4
REMARK    3  A    between atoms: C_4  and  C_5
REMARK    4  A    between atoms: N_7  and  C_8
REMARK    5  A    between atoms: C_8  and  C_9
REMARK    6  A    between atoms: N_22  and  C_23
REMARK    7  A    between atoms: C_26  and  N_27
REMARK                            x       y       z     vdW  Elec       q    Type
REMARK                         _______ _______ _______ _____ _____    ______ ____
ROOT
ATOM      1  C   UNL     1       2.618   6.551  19.402  0.00  0.00    +0.000 A 
ATOM      2  C   UNL     1       3.904   6.497  18.902  0.00  0.00    +0.000 A 
ATOM      3  N   UNL     1       4.392   5.226  19.083  0.00  0.00    +0.000 N 
ATOM      4  C   UNL     1       3.437   4.437  19.692  0.00  0.00    +0.000 A 
ATOM      5  C   UNL     1       3.456   3.084  20.070  0.00  0.00    +0.000 A 
ATOM      6  C   UNL     1       2.323   2.556  20.698  0.00  0.00    +0.000 A 
ATOM      7  C   UNL     1       1.208   3.349  20.947  0.00  0.00    +0.000 A 
ATOM      8  C   UNL     1       1.195   4.694  20.564  0.00  0.00    +0.000 A 
ATOM      9  C   UNL     1       2.320   5.251  19.919  0.00  0.00    +0.000 A 
ENDROOT
BRANCH   1  10
ATOM     10  C   UNL     1       1.727   7.751  19.413  0.00  0.00    +0.000 C 
BRANCH  10  11
ATOM     11  C   UNL     1       1.560   8.343  20.815  0.00  0.00    +0.000 C 
BRANCH  11  13
ATOM     12  O   UNL     1      -0.170   9.672  19.817  0.00  0.00    +0.000 OA
ATOM     13  C   UNL     1       0.513   9.440  20.810  0.00  0.00    +0.000 C 
ATOM     14  N   UNL     1       0.456  10.137  22.012  0.00  0.00    +0.000 N 
ATOM     15  H   UNL     1       1.214   9.985  22.667  0.00  0.00    +0.000 HD
BRANCH  14  16
ATOM     16  C   UNL     1      -0.433  11.200  22.295  0.00  0.00    +0.000 A 
ATOM     17  C   UNL     1      -1.554  11.051  23.117  0.00  0.00    +0.000 A 
ATOM     18  C   UNL     1      -2.470  12.091  23.283  0.00  0.00    +0.000 A 
ATOM     19  C   UNL     1      -2.253  13.307  22.634  0.00  0.00    +0.000 A 
ATOM     20  C   UNL     1      -1.095  13.503  21.871  0.00  0.00    +0.000 A 
ATOM     21  C   UNL     1      -0.179  12.451  21.715  0.00  0.00    +0.000 A 
BRANCH  19  22
ATOM     22  N   UNL     1      -3.262  14.370  22.731  0.00  0.00    +0.000 N 
ATOM     23  O   UNL     1      -3.226  15.279  21.892  0.00  0.00    +0.000 OA
ATOM     24  O   UNL     1      -4.083  14.298  23.657  0.00  0.00    +0.000 OA
ENDBRANCH  19  22
ENDBRANCH  14  16
ENDBRANCH  11  13
ENDBRANCH  10  11
ENDBRANCH   1  10
BRANCH   3  25
ATOM     25  C   UNL     1       5.750   4.812  18.734  0.00  0.00    +0.000 C 
BRANCH  25  26
ATOM     26  C   UNL     1       5.924   4.654  17.242  0.00  0.00    +0.000 A 
ATOM     27  C   UNL     1       4.908   4.089  16.455  0.00  0.00    +0.000 A 
ATOM     28  C   UNL     1       5.099   3.874  15.089  0.00  0.00    +0.000 A 
ATOM     29  C   UNL     1       6.302   4.244  14.495  0.00  0.00    +0.000 A 
ATOM     30 CL   UNL     1       6.559   3.933  12.822  0.00  0.00    +0.000 Cl
ATOM     31  C   UNL     1       7.303   4.853  15.248  0.00  0.00    +0.000 A 
ATOM     32  C   UNL     1       7.114   5.060  16.617  0.00  0.00    +0.000 A 
ENDBRANCH  25  26
ENDBRANCH   3  25
TORSDOF 7
ENDMDL
MODEL 8
REMARK VINA RESULT:      -8.1      1.608      1.990
REMARK  Name = 
REMARK  7 active torsions:
REMARK  status: ('A' for Active; 'I' for Inactive)
REMARK    1  A    between atoms: C_2  and  C_3
REMARK    2  A    between atoms: C_3  and  C_4
REMARK    3  A    between atoms: C_4  and  C_5
REMARK    4  A    between atoms: N_7  and  C_8
REMARK    5  A    between atoms: C_8  and  C_9
REMARK    6  A    between atoms: N_22  and  C_23
REMARK    7  A    between atoms: C_26  and  N_27
REMARK                            x       y       z     vdW  Elec       q    Type
REMARK                         _______ _______ _______ _____ _____    ______ ____
ROOT
ATOM      1  C   UNL     1       2.516   6.053  18.462  0.00  0.00    +0.000 A 
ATOM      2  C   UNL     1       3.821   5.921  18.034  0.00  0.00    +0.000 A 
ATOM      3  N   UNL     1       4.361   4.797  18.611  0.00  0.00    +0.000 N 
ATOM      4  C   UNL     1       3.420   4.182  19.411  0.00  0.00    +0.000 A 
ATOM      5  C   UNL     1       3.487   3.013  20.190  0.00  0.00    +0.000 A 
ATOM      6  C   UNL     1       2.356   2.641  20.924  0.00  0.00    +0.000 A 
ATOM      7  C   UNL     1       1.197   3.408  20.889  0.00  0.00    +0.000 A 
ATOM      8  C   UNL     1       1.136   4.566  20.108  0.00  0.00    +0.000 A 
ATOM      9  C   UNL     1       2.258   4.960  19.349  0.00  0.00    +0.000 A 
ENDROOT
BRANCH   1  10
ATOM     10  C   UNL     1       1.569   7.146  18.080  0.00  0.00    +0.000 C 
BRANCH  10  11
ATOM     11  C   UNL     1       2.163   8.538  18.305  0.00  0.00    +0.000 C 
BRANCH  11  13
ATOM     12  O   UNL     1       0.282  10.028  18.323  0.00  0.00    +0.000 OA
ATOM     13  C   UNL     1       1.149   9.448  18.971  0.00  0.00    +0.000 C 
ATOM     14  N   UNL     1       1.343   9.560  20.345  0.00  0.00    +0.000 N 
ATOM     15  H   UNL     1       2.216   9.202  20.714  0.00  0.00    +0.000 HD
BRANCH  14  16
ATOM     16  C   UNL     1       0.542  10.328  21.220  0.00  0.00    +0.000 A 
ATOM     17  C   UNL     1      -0.255   9.755  22.216  0.00  0.00    +0.000 A 
ATOM     18  C   UNL     1      -1.118  10.536  22.987  0.00  0.00    +0.000 A 
ATOM     19  C   UNL     1      -1.172  11.914  22.774  0.00  0.00    +0.000 A 
ATOM     20  C   UNL     1      -0.322  12.517  21.837  0.00  0.00    +0.000 A 
ATOM     21  C   UNL     1       0.544  11.723  21.071  0.00  0.00    +0.000 A 
BRANCH  19  22
ATOM     22  N   UNL     1      -2.145  12.724  23.518  0.00  0.00    +0.000 N 
ATOM     23  O   UNL     1      -1.860  13.907  23.744  0.00  0.00    +0.000 OA
ATOM     24  O   UNL     1      -3.192  12.170  23.884  0.00  0.00    +0.000 OA
ENDBRANCH  19  22
ENDBRANCH  14  16
ENDBRANCH  11  13
ENDBRANCH  10  11
ENDBRANCH   1  10
BRANCH   3  25
ATOM     25  C   UNL     1       5.750   4.374  18.439  0.00  0.00    +0.000 C 
BRANCH  25  26
ATOM     26  C   UNL     1       6.188   4.453  16.996  0.00  0.00    +0.000 A 
ATOM     27  C   UNL     1       7.194   5.348  16.597  0.00  0.00    +0.000 A 
ATOM     28  C   UNL     1       7.545   5.473  15.252  0.00  0.00    +0.000 A 
ATOM     29  C   UNL     1       6.908   4.687  14.296  0.00  0.00    +0.000 A 
ATOM     30 CL   UNL     1       7.303   4.878  12.633  0.00  0.00    +0.000 Cl
ATOM     31  C   UNL     1       5.944   3.757  14.678  0.00  0.00    +0.000 A 
ATOM     32  C   UNL     1       5.587   3.639  16.024  0.00  0.00    +0.000 A 
ENDBRANCH  25  26
ENDBRANCH   3  25
TORSDOF 7
ENDMDL
MODEL 9
REMARK VINA RESULT:      -8.1      1.812      2.199
REMARK  Name = 
REMARK  7 active torsions:
REMARK  status: ('A' for Active; 'I' for Inactive)
REMARK    1  A    between atoms: C_2  and  C_3
REMARK    2  A    between atoms: C_3  and  C_4
REMARK    3  A    between atoms: C_4  and  C_5
REMARK    4  A    between atoms: N_7  and  C_8
REMARK    5  A    between atoms: C_8  and  C_9
REMARK    6  A    between atoms: N_22  and  C_23
REMARK    7  A    between atoms: C_26  and  N_27
REMARK                            x       y       z     vdW  Elec       q    Type
REMARK                         _______ _______ _______ _____ _____    ______ ____
ROOT
ATOM      1  C   UNL     1       2.653   6.450  19.753  0.00  0.00    +0.000 A 
ATOM      2  C   UNL     1       3.973   6.414  19.351  0.00  0.00    +0.000 A 
ATOM      3  N   UNL     1       4.394   5.107  19.345  0.00  0.00    +0.000 N 
ATOM      4  C   UNL     1       3.360   4.278  19.732  0.00  0.00    +0.000 A 
ATOM      5  C   UNL     1       3.294   2.881  19.868  0.00  0.00    +0.000 A 
ATOM      6  C   UNL     1       2.092   2.315  20.306  0.00  0.00    +0.000 A 
ATOM      7  C   UNL     1       0.992   3.112  20.603  0.00  0.00    +0.000 A 
ATOM      8  C   UNL     1       1.064   4.501  20.461  0.00  0.00    +0.000 A 
ATOM      9  C   UNL     1       2.261   5.099  20.011  0.00  0.00    +0.000 A 
ENDROOT
BRANCH   1  10
ATOM     10  C   UNL     1       1.812   7.677  19.905  0.00  0.00    +0.000 C 
BRANCH  10  11
ATOM     11  C   UNL     1       1.061   7.710  21.239  0.00  0.00    +0.000 C 
BRANCH  11  13
ATOM     12  O   UNL     1       1.844   9.433  22.712  0.00  0.00    +0.000 OA
ATOM     13  C   UNL     1       1.066   9.110  21.819  0.00  0.00    +0.000 C 
ATOM     14  N   UNL     1       0.096   9.933  21.255  0.00  0.00    +0.000 N 
ATOM     15  H   UNL     1      -0.612   9.483  20.687  0.00  0.00    +0.000 HD
BRANCH  14  16
ATOM     16  C   UNL     1      -0.119  11.289  21.594  0.00  0.00    +0.000 A 
ATOM     17  C   UNL     1       0.583  12.339  20.994  0.00  0.00    +0.000 A 
ATOM     18  C   UNL     1       0.425  13.655  21.432  0.00  0.00    +0.000 A 
ATOM     19  C   UNL     1      -0.462  13.929  22.474  0.00  0.00    +0.000 A 
ATOM     20  C   UNL     1      -1.234  12.903  23.033  0.00  0.00    +0.000 A 
ATOM     21  C   UNL     1      -1.070  11.585  22.581  0.00  0.00    +0.000 A 
BRANCH  19  22
ATOM     22  N   UNL     1      -0.560  15.297  22.999  0.00  0.00    +0.000 N 
ATOM     23  O   UNL     1       0.361  16.083  22.740  0.00  0.00    +0.000 OA
ATOM     24  O   UNL     1      -1.556  15.581  23.680  0.00  0.00    +0.000 OA
ENDBRANCH  19  22
ENDBRANCH  14  16
ENDBRANCH  11  13
ENDBRANCH  10  11
ENDBRANCH   1  10
BRANCH   3  25
ATOM     25  C   UNL     1       5.759   4.686  19.034  0.00  0.00    +0.000 C 
BRANCH  25  26
ATOM     26  C   UNL     1       5.961   4.481  17.551  0.00  0.00    +0.000 A 
ATOM     27  C   UNL     1       7.168   4.844  16.932  0.00  0.00    +0.000 A 
ATOM     28  C   UNL     1       7.325   4.724  15.550  0.00  0.00    +0.000 A 
ATOM     29  C   UNL     1       6.283   4.218  14.778  0.00  0.00    +0.000 A 
ATOM     30 CL   UNL     1       6.457   4.118  13.069  0.00  0.00    +0.000 Cl
ATOM     31  C   UNL     1       5.097   3.804  15.380  0.00  0.00    +0.000 A 
ATOM     32  C   UNL     1       4.937   3.933  16.762  0.00  0.00    +0.000 A 
ENDBRANCH  25  26
ENDBRANCH   3  25
TORSDOF 7
ENDMDL
