MODEL 1
REMARK VINA RESULT:      -8.0      0.000      0.000
REMARK  Name = 
REMARK  4 active torsions:
REMARK  status: ('A' for Active; 'I' for Inactive)
REMARK    1  A    between atoms: C_1  and  C_2
REMARK    2  A    between atoms: C_10  and  C_11
REMARK    3  A    between atoms: N_13  and  C_14
REMARK    4  A    between atoms: C_26  and  C_27
REMARK                            x       y       z     vdW  Elec       q    Type
REMARK                         _______ _______ _______ _____ _____    ______ ____
ROOT
ATOM      1  C   UNL     1      -2.896  12.019  23.709  0.00  0.00    +0.000 C 
ATOM      2  C   UNL     1      -1.966  12.177  22.542  0.00  0.00    +0.000 A 
ATOM      3  C   UNL     1      -1.674  13.432  22.003  0.00  0.00    +0.000 A 
ATOM      4  C   UNL     1      -0.789  13.570  20.925  0.00  0.00    +0.000 A 
ATOM      5  C   UNL     1      -0.182  12.455  20.348  0.00  0.00    +0.000 A 
ATOM      6  C   UNL     1      -0.483  11.195  20.900  0.00  0.00    +0.000 A 
ATOM      7  C   UNL     1      -1.360  11.053  21.985  0.00  0.00    +0.000 A 
ATOM      8  C   UNL     1       0.152   9.976  20.346  0.00  0.00    +0.000 A 
ATOM      9  O   UNL     1      -0.109   8.869  20.812  0.00  0.00    +0.000 OA
ATOM     10  C   UNL     1       1.100  10.139  19.221  0.00  0.00    +0.000 A 
ATOM     11  C   UNL     1       1.294  11.390  18.772  0.00  0.00    +0.000 A 
ATOM     12  N   UNL     1       0.713  12.549  19.271  0.00  0.00    +0.000 N 
ATOM     13  C   UNL     1       1.009  13.894  18.744  0.00  0.00    +0.000 C 
ATOM     14  C   UNL     1       0.152  15.043  19.319  0.00  0.00    +0.000 C 
ATOM     15  O   UNL     1      -0.545  14.855  20.548  0.00  0.00    +0.000 OA
ENDROOT
BRANCH  13  16
ATOM     16  C   UNL     1       2.495  14.224  18.858  0.00  0.00    +0.000 A 
ATOM     17  C   UNL     1       3.244  14.506  17.702  0.00  0.00    +0.000 A 
ATOM     18  C   UNL     1       4.593  14.854  17.796  0.00  0.00    +0.000 A 
ATOM     19  C   UNL     1       5.208  14.921  19.041  0.00  0.00    +0.000 A 
ATOM     20  C   UNL     1       4.479  14.636  20.195  0.00  0.00    +0.000 A 
ATOM     21  C   UNL     1       3.131  14.288  20.107  0.00  0.00    +0.000 A 
ENDBRANCH  13  16
BRANCH  10  22
ATOM     22  C   UNL     1       1.852   9.021  18.584  0.00  0.00    +0.000 C 
ATOM     23  O   UNL     1       2.272   9.120  17.434  0.00  0.00    +0.000 OA
ATOM     24  N   UNL     1       2.038   7.908  19.374  0.00  0.00    +0.000 N 
ATOM     25  H   UNL     1       1.627   7.925  20.309  0.00  0.00    +0.000 HD
BRANCH  24  26
ATOM     26  C   UNL     1       2.776   6.711  18.966  0.00  0.00    +0.000 C 
ATOM     27  C   UNL     1       3.070   5.799  20.184  0.00  0.00    +0.000 C 
ATOM     28  C   UNL     1       3.853   4.551  19.753  0.00  0.00    +0.000 C 
ATOM     29  C   UNL     1       3.010   3.749  18.751  0.00  0.00    +0.000 C 
ATOM     30  C   UNL     1       2.696   4.613  17.520  0.00  0.00    +0.000 C 
ATOM     31  C   UNL     1       4.019   5.021  16.851  0.00  0.00    +0.000 C 
ATOM     32  C   UNL     1       4.872   5.836  17.835  0.00  0.00    +0.000 C 
ATOM     33  C   UNL     1       5.168   4.991  19.085  0.00  0.00    +0.000 C 
ATOM     34  C   UNL     1       4.097   7.093  18.254  0.00  0.00    +0.000 C 
ATOM     35  C   UNL     1       1.932   5.879  17.961  0.00  0.00    +0.000 C 
ENDBRANCH  24  26
ENDBRANCH  10  22
TORSDOF 3
ENDMDL
MODEL 2
REMARK VINA RESULT:      -8.0      0.058      1.273
REMARK  Name = 
REMARK  4 active torsions:
REMARK  status: ('A' for Active; 'I' for Inactive)
REMARK    1  A    between atoms: C_1  and  C_2
REMARK    2  A    between atoms: C_10  and  C_11
REMARK    3  A    between atoms: N_13  and  C_14
REMARK    4  A    between atoms: C_26  and  C_27
REMARK                            x       y       z     vdW  Elec       q    Type
REMARK                         _______ _______ _______ _____ _____    ______ ____
ROOT
ATOM      1  C   UNL     1      -2.858  11.978  23.719  0.00  0.00    +0.000 C 
ATOM      2  C   UNL     1      -1.934  12.140  22.548  0.00  0.00    +0.000 A 
ATOM      3  C   UNL     1      -1.650  13.397  22.008  0.00  0.00    +0.000 A 
ATOM      4  C   UNL     1      -0.770  13.538  20.925  0.00  0.00    +0.000 A 
ATOM      5  C   UNL     1      -0.161  12.426  20.345  0.00  0.00    +0.000 A 
ATOM      6  C   UNL     1      -0.454  11.165  20.899  0.00  0.00    +0.000 A 
ATOM      7  C   UNL     1      -1.326  11.019  21.988  0.00  0.00    +0.000 A 
ATOM      8  C   UNL     1       0.183   9.949  20.341  0.00  0.00    +0.000 A 
ATOM      9  O   UNL     1      -0.071   8.840  20.809  0.00  0.00    +0.000 OA
ATOM     10  C   UNL     1       1.125  10.116  19.212  0.00  0.00    +0.000 A 
ATOM     11  C   UNL     1       1.312  11.369  18.762  0.00  0.00    +0.000 A 
ATOM     12  N   UNL     1       0.728  12.525  19.265  0.00  0.00    +0.000 N 
ATOM     13  C   UNL     1       1.015  13.871  18.737  0.00  0.00    +0.000 C 
ATOM     14  C   UNL     1       0.157  15.017  19.316  0.00  0.00    +0.000 C 
ATOM     15  O   UNL     1      -0.534  14.825  20.548  0.00  0.00    +0.000 OA
ENDROOT
BRANCH  13  16
ATOM     16  C   UNL     1       2.501  14.208  18.844  0.00  0.00    +0.000 A 
ATOM     17  C   UNL     1       3.242  14.497  17.684  0.00  0.00    +0.000 A 
ATOM     18  C   UNL     1       4.590  14.851  17.772  0.00  0.00    +0.000 A 
ATOM     19  C   UNL     1       5.212  14.916  19.014  0.00  0.00    +0.000 A 
ATOM     20  C   UNL     1       4.491  14.623  20.171  0.00  0.00    +0.000 A 
ATOM     21  C   UNL     1       3.143  14.270  20.089  0.00  0.00    +0.000 A 
ENDBRANCH  13  16
BRANCH  10  22
ATOM     22  C   UNL     1       1.879   9.002  18.571  0.00  0.00    +0.000 C 
ATOM     23  O   UNL     1       2.303   9.107  17.424  0.00  0.00    +0.000 OA
ATOM     24  N   UNL     1       2.061   7.884  19.355  0.00  0.00    +0.000 N 
ATOM     25  H   UNL     1       1.647   7.895  20.289  0.00  0.00    +0.000 HD
BRANCH  24  26
ATOM     26  C   UNL     1       2.801   6.689  18.943  0.00  0.00    +0.000 C 
ATOM     27  C   UNL     1       4.186   7.069  18.361  0.00  0.00    +0.000 C 
ATOM     28  C   UNL     1       4.954   5.815  17.921  0.00  0.00    +0.000 C 
ATOM     29  C   UNL     1       5.182   4.910  19.141  0.00  0.00    +0.000 C 
ATOM     30  C   UNL     1       3.832   4.503  19.751  0.00  0.00    +0.000 C 
ATOM     31  C   UNL     1       3.026   3.729  18.695  0.00  0.00    +0.000 C 
ATOM     32  C   UNL     1       2.776   4.623  17.471  0.00  0.00    +0.000 C 
ATOM     33  C   UNL     1       4.121   5.062  16.869  0.00  0.00    +0.000 C 
ATOM     34  C   UNL     1       1.993   5.869  17.906  0.00  0.00    +0.000 C 
ATOM     35  C   UNL     1       3.053   5.768  20.168  0.00  0.00    +0.000 C 
ENDBRANCH  24  26
ENDBRANCH  10  22
TORSDOF 3
ENDMDL
MODEL 3
REMARK VINA RESULT:      -7.9      0.085      1.295
REMARK  Name = 
REMARK  4 active torsions:
REMARK  status: ('A' for Active; 'I' for Inactive)
REMARK    1  A    between atoms: C_1  and  C_2
REMARK    2  A    between atoms: C_10  and  C_11
REMARK    3  A    between atoms: N_13  and  C_14
REMARK    4  A    between atoms: C_26  and  C_27
REMARK                            x       y       z     vdW  Elec       q    Type
REMARK                         _______ _______ _______ _____ _____    ______ ____
ROOT
ATOM      1  C   UNL     1      -2.978  12.136  23.621  0.00  0.00    +0.000 C 
ATOM      2  C   UNL     1      -2.026  12.276  22.470  0.00  0.00    +0.000 A 
ATOM      3  C   UNL     1      -1.704  13.525  21.934  0.00  0.00    +0.000 A 
ATOM      4  C   UNL     1      -0.799  13.646  20.870  0.00  0.00    +0.000 A 
ATOM      5  C   UNL     1      -0.201  12.520  20.305  0.00  0.00    +0.000 A 
ATOM      6  C   UNL     1      -0.532  11.266  20.855  0.00  0.00    +0.000 A 
ATOM      7  C   UNL     1      -1.429  11.141  21.925  0.00  0.00    +0.000 A 
ATOM      8  C   UNL     1       0.092  10.036  20.313  0.00  0.00    +0.000 A 
ATOM      9  O   UNL     1      -0.196   8.934  20.777  0.00  0.00    +0.000 OA
ATOM     10  C   UNL     1       1.061  10.181  19.204  0.00  0.00    +0.000 A 
ATOM     11  C   UNL     1       1.284  11.428  18.756  0.00  0.00    +0.000 A 
ATOM     12  N   UNL     1       0.713  12.598  19.244  0.00  0.00    +0.000 N 
ATOM     13  C   UNL     1       1.040  13.936  18.720  0.00  0.00    +0.000 C 
ATOM     14  C   UNL     1       0.193  15.101  19.278  0.00  0.00    +0.000 C 
ATOM     15  O   UNL     1      -0.527  14.926  20.495  0.00  0.00    +0.000 OA
ENDROOT
BRANCH  13  16
ATOM     16  C   UNL     1       2.530  14.242  18.858  0.00  0.00    +0.000 A 
ATOM     17  C   UNL     1       3.304  14.503  17.714  0.00  0.00    +0.000 A 
ATOM     18  C   UNL     1       4.657  14.828  17.829  0.00  0.00    +0.000 A 
ATOM     19  C   UNL     1       5.251  14.894  19.085  0.00  0.00    +0.000 A 
ATOM     20  C   UNL     1       4.497  14.629  20.228  0.00  0.00    +0.000 A 
ATOM     21  C   UNL     1       3.144  14.303  20.118  0.00  0.00    +0.000 A 
ENDBRANCH  13  16
BRANCH  10  22
ATOM     22  C   UNL     1       1.805   9.050  18.582  0.00  0.00    +0.000 C 
ATOM     23  O   UNL     1       2.236   9.135  17.435  0.00  0.00    +0.000 OA
ATOM     24  N   UNL     1       1.969   7.940  19.381  0.00  0.00    +0.000 N 
ATOM     25  H   UNL     1       1.551   7.968  20.312  0.00  0.00    +0.000 HD
BRANCH  24  26
ATOM     26  C   UNL     1       2.697   6.731  18.988  0.00  0.00    +0.000 C 
ATOM     27  C   UNL     1       1.881   5.902  17.964  0.00  0.00    +0.000 C 
ATOM     28  C   UNL     1       2.643   4.631  17.563  0.00  0.00    +0.000 C 
ATOM     29  C   UNL     1       3.970   5.028  16.901  0.00  0.00    +0.000 C 
ATOM     30  C   UNL     1       4.819   5.852  17.882  0.00  0.00    +0.000 C 
ATOM     31  C   UNL     1       5.113   4.993  19.123  0.00  0.00    +0.000 C 
ATOM     32  C   UNL     1       3.795   4.596  19.807  0.00  0.00    +0.000 C 
ATOM     33  C   UNL     1       2.924   3.796  18.824  0.00  0.00    +0.000 C 
ATOM     34  C   UNL     1       3.040   5.865  20.225  0.00  0.00    +0.000 C 
ATOM     35  C   UNL     1       4.039   7.115  18.304  0.00  0.00    +0.000 C 
ENDBRANCH  24  26
ENDBRANCH  10  22
TORSDOF 3
ENDMDL
MODEL 4
REMARK VINA RESULT:      -7.7      2.520      9.644
REMARK  Name = 
REMARK  4 active torsions:
REMARK  status: ('A' for Active; 'I' for Inactive)
REMARK    1  A    between atoms: C_1  and  C_2
REMARK    2  A    between atoms: C_10  and  C_11
REMARK    3  A    between atoms: N_13  and  C_14
REMARK    4  A    between atoms: C_26  and  C_27
REMARK                            x       y       z     vdW  Elec       q    Type
REMARK                         _______ _______ _______ _____ _____    ______ ____
ROOT
ATOM      1  C   UNL     1       7.451   5.330  14.716  0.00  0.00    +0.000 C 
ATOM      2  C   UNL     1       6.204   5.151  15.531  0.00  0.00    +0.000 A 
ATOM      3  C   UNL     1       5.628   3.893  15.720  0.00  0.00    +0.000 A 
ATOM      4  C   UNL     1       4.472   3.734  16.499  0.00  0.00    +0.000 A 
ATOM      5  C   UNL     1       3.854   4.832  17.097  0.00  0.00    +0.000 A 
ATOM      6  C   UNL     1       4.444   6.095  16.900  0.00  0.00    +0.000 A 
ATOM      7  C   UNL     1       5.606   6.257  16.130  0.00  0.00    +0.000 A 
ATOM      8  C   UNL     1       3.848   7.295  17.532  0.00  0.00    +0.000 A 
ATOM      9  O   UNL     1       4.347   8.405  17.361  0.00  0.00    +0.000 OA
ATOM     10  C   UNL     1       2.640   7.110  18.368  0.00  0.00    +0.000 A 
ATOM     11  C   UNL     1       2.162   5.857  18.469  0.00  0.00    +0.000 A 
ATOM     12  N   UNL     1       2.700   4.716  17.887  0.00  0.00    +0.000 N 
ATOM     13  C   UNL     1       2.135   3.368  18.078  0.00  0.00    +0.000 C 
ATOM     14  C   UNL     1       2.773   2.246  17.229  0.00  0.00    +0.000 C 
ATOM     15  O   UNL     1       4.061   2.446  16.654  0.00  0.00    +0.000 OA
ENDROOT
BRANCH  13  16
ATOM     16  C   UNL     1       2.111   2.976  19.553  0.00  0.00    +0.000 A 
ATOM     17  C   UNL     1       3.282   2.511  20.177  0.00  0.00    +0.000 A 
ATOM     18  C   UNL     1       3.285   2.192  21.536  0.00  0.00    +0.000 A 
ATOM     19  C   UNL     1       2.121   2.331  22.285  0.00  0.00    +0.000 A 
ATOM     20  C   UNL     1       0.951   2.782  21.677  0.00  0.00    +0.000 A 
ATOM     21  C   UNL     1       0.942   3.103  20.319  0.00  0.00    +0.000 A 
ENDBRANCH  13  16
BRANCH  10  22
ATOM     22  C   UNL     1       1.949   8.205  19.105  0.00  0.00    +0.000 C 
ATOM     23  O   UNL     1       1.830   8.162  20.327  0.00  0.00    +0.000 OA
ATOM     24  N   UNL     1       1.480   9.239  18.325  0.00  0.00    +0.000 N 
ATOM     25  H   UNL     1       1.616   9.161  17.316  0.00  0.00    +0.000 HD
BRANCH  24  26
ATOM     26  C   UNL     1       0.805  10.431  18.842  0.00  0.00    +0.000 C 
ATOM     27  C   UNL     1       1.619  11.711  18.521  0.00  0.00    +0.000 C 
ATOM     28  C   UNL     1       0.912  12.957  19.073  0.00  0.00    +0.000 C 
ATOM     29  C   UNL     1      -0.465  13.091  18.409  0.00  0.00    +0.000 C 
ATOM     30  C   UNL     1      -1.313  11.843  18.703  0.00  0.00    +0.000 C 
ATOM     31  C   UNL     1      -1.498  11.719  20.224  0.00  0.00    +0.000 C 
ATOM     32  C   UNL     1      -0.129  11.571  20.907  0.00  0.00    +0.000 C 
ATOM     33  C   UNL     1       0.739  12.802  20.594  0.00  0.00    +0.000 C 
ATOM     34  C   UNL     1       0.571  10.316  20.368  0.00  0.00    +0.000 C 
ATOM     35  C   UNL     1      -0.587  10.590  18.170  0.00  0.00    +0.000 C 
ENDBRANCH  24  26
ENDBRANCH  10  22
TORSDOF 3
ENDMDL
MODEL 5
REMARK VINA RESULT:      -7.7      2.502      9.653
REMARK  Name = 
REMARK  4 active torsions:
REMARK  status: ('A' for Active; 'I' for Inactive)
REMARK    1  A    between atoms: C_1  and  C_2
REMARK    2  A    between atoms: C_10  and  C_11
REMARK    3  A    between atoms: N_13  and  C_14
REMARK    4  A    between atoms: C_26  and  C_27
REMARK                            x       y       z     vdW  Elec       q    Type
REMARK                         _______ _______ _______ _____ _____    ______ ____
ROOT
ATOM      1  C   UNL     1       7.482   5.269  14.724  0.00  0.00    +0.000 C 
ATOM      2  C   UNL     1       6.230   5.100  15.532  0.00  0.00    +0.000 A 
ATOM      3  C   UNL     1       5.649   3.844  15.726  0.00  0.00    +0.000 A 
ATOM      4  C   UNL     1       4.488   3.695  16.499  0.00  0.00    +0.000 A 
ATOM      5  C   UNL     1       3.870   4.798  17.086  0.00  0.00    +0.000 A 
ATOM      6  C   UNL     1       4.466   6.058  16.884  0.00  0.00    +0.000 A 
ATOM      7  C   UNL     1       5.632   6.211  16.121  0.00  0.00    +0.000 A 
ATOM      8  C   UNL     1       3.869   7.264  17.505  0.00  0.00    +0.000 A 
ATOM      9  O   UNL     1       4.373   8.371  17.329  0.00  0.00    +0.000 OA
ATOM     10  C   UNL     1       2.655   7.088  18.335  0.00  0.00    +0.000 A 
ATOM     11  C   UNL     1       2.173   5.838  18.441  0.00  0.00    +0.000 A 
ATOM     12  N   UNL     1       2.711   4.691  17.870  0.00  0.00    +0.000 N 
ATOM     13  C   UNL     1       2.140   3.346  18.066  0.00  0.00    +0.000 C 
ATOM     14  C   UNL     1       2.780   2.217  17.229  0.00  0.00    +0.000 C 
ATOM     15  O   UNL     1       4.072   2.408  16.660  0.00  0.00    +0.000 OA
ENDROOT
BRANCH  13  16
ATOM     16  C   UNL     1       2.106   2.964  19.544  0.00  0.00    +0.000 A 
ATOM     17  C   UNL     1       3.272   2.497  20.177  0.00  0.00    +0.000 A 
ATOM     18  C   UNL     1       3.266   2.187  21.539  0.00  0.00    +0.000 A 
ATOM     19  C   UNL     1       2.099   2.337  22.281  0.00  0.00    +0.000 A 
ATOM     20  C   UNL     1       0.934   2.791  21.663  0.00  0.00    +0.000 A 
ATOM     21  C   UNL     1       0.934   3.102  20.303  0.00  0.00    +0.000 A 
ENDBRANCH  13  16
BRANCH  10  22
ATOM     22  C   UNL     1       1.964   8.190  19.061  0.00  0.00    +0.000 C 
ATOM     23  O   UNL     1       1.786   8.129  20.274  0.00  0.00    +0.000 OA
ATOM     24  N   UNL     1       1.565   9.253  18.281  0.00  0.00    +0.000 N 
ATOM     25  H   UNL     1       1.745   9.190  17.277  0.00  0.00    +0.000 HD
BRANCH  24  26
ATOM     26  C   UNL     1       0.902  10.456  18.789  0.00  0.00    +0.000 C 
ATOM     27  C   UNL     1      -0.547  10.560  18.249  0.00  0.00    +0.000 C 
ATOM     28  C   UNL     1      -1.234  11.827  18.777  0.00  0.00    +0.000 C 
ATOM     29  C   UNL     1      -1.302  11.763  20.309  0.00  0.00    +0.000 C 
ATOM     30  C   UNL     1       0.117  11.662  20.892  0.00  0.00    +0.000 C 
ATOM     31  C   UNL     1       0.912  12.911  20.476  0.00  0.00    +0.000 C 
ATOM     32  C   UNL     1       1.001  12.986  18.944  0.00  0.00    +0.000 C 
ATOM     33  C   UNL     1      -0.415  13.057  18.347  0.00  0.00    +0.000 C 
ATOM     34  C   UNL     1       1.703  11.727  18.416  0.00  0.00    +0.000 C 
ATOM     35  C   UNL     1       0.813  10.401  20.339  0.00  0.00    +0.000 C 
ENDBRANCH  24  26
ENDBRANCH  10  22
TORSDOF 3
ENDMDL
MODEL 6
REMARK VINA RESULT:      -7.7      2.508      9.650
REMARK  Name = 
REMARK  4 active torsions:
REMARK  status: ('A' for Active; 'I' for Inactive)
REMARK    1  A    between atoms: C_1  and  C_2
REMARK    2  A    between atoms: C_10  and  C_11
REMARK    3  A    between atoms: N_13  and  C_14
REMARK    4  A    between atoms: C_26  and  C_27
REMARK                            x       y       z     vdW  Elec       q    Type
REMARK                         _______ _______ _______ _____ _____    ______ ____
ROOT
ATOM      1  C   UNL     1       7.442   5.283  14.705  0.00  0.00    +0.000 C 
ATOM      2  C   UNL     1       6.195   5.111  15.521  0.00  0.00    +0.000 A 
ATOM      3  C   UNL     1       5.616   3.855  15.717  0.00  0.00    +0.000 A 
ATOM      4  C   UNL     1       4.461   3.703  16.497  0.00  0.00    +0.000 A 
ATOM      5  C   UNL     1       3.846   4.804  17.091  0.00  0.00    +0.000 A 
ATOM      6  C   UNL     1       4.439   6.065  16.887  0.00  0.00    +0.000 A 
ATOM      7  C   UNL     1       5.600   6.221  16.117  0.00  0.00    +0.000 A 
ATOM      8  C   UNL     1       3.846   7.269  17.515  0.00  0.00    +0.000 A 
ATOM      9  O   UNL     1       4.348   8.377  17.338  0.00  0.00    +0.000 OA
ATOM     10  C   UNL     1       2.638   7.090  18.352  0.00  0.00    +0.000 A 
ATOM     11  C   UNL     1       2.158   5.840  18.459  0.00  0.00    +0.000 A 
ATOM     12  N   UNL     1       2.693   4.695  17.882  0.00  0.00    +0.000 N 
ATOM     13  C   UNL     1       2.124   3.349  18.079  0.00  0.00    +0.000 C 
ATOM     14  C   UNL     1       2.759   2.222  17.235  0.00  0.00    +0.000 C 
ATOM     15  O   UNL     1       4.047   2.416  16.658  0.00  0.00    +0.000 OA
ENDROOT
BRANCH  13  16
ATOM     16  C   UNL     1       2.100   2.964  19.557  0.00  0.00    +0.000 A 
ATOM     17  C   UNL     1       3.276   2.519  20.187  0.00  0.00    +0.000 A 
ATOM     18  C   UNL     1       3.279   2.207  21.548  0.00  0.00    +0.000 A 
ATOM     19  C   UNL     1       2.110   2.332  22.292  0.00  0.00    +0.000 A 
ATOM     20  C   UNL     1       0.935   2.763  21.677  0.00  0.00    +0.000 A 
ATOM     21  C   UNL     1       0.927   3.077  20.317  0.00  0.00    +0.000 A 
ENDBRANCH  13  16
BRANCH  10  22
ATOM     22  C   UNL     1       1.951   8.190  19.085  0.00  0.00    +0.000 C 
ATOM     23  O   UNL     1       1.802   8.137  20.303  0.00  0.00    +0.000 OA
ATOM     24  N   UNL     1       1.520   9.242  18.306  0.00  0.00    +0.000 N 
ATOM     25  H   UNL     1       1.677   9.172  17.299  0.00  0.00    +0.000 HD
BRANCH  24  26
ATOM     26  C   UNL     1       0.855  10.441  18.819  0.00  0.00    +0.000 C 
ATOM     27  C   UNL     1       0.742  10.393  20.365  0.00  0.00    +0.000 C 
ATOM     28  C   UNL     1       0.036  11.647  20.897  0.00  0.00    +0.000 C 
ATOM     29  C   UNL     1       0.858  12.887  20.520  0.00  0.00    +0.000 C 
ATOM     30  C   UNL     1       0.995  12.980  18.992  0.00  0.00    +0.000 C 
ATOM     31  C   UNL     1      -0.409  13.102  18.377  0.00  0.00    +0.000 C 
ATOM     32  C   UNL     1      -1.245  11.862  18.734  0.00  0.00    +0.000 C 
ATOM     33  C   UNL     1      -1.363  11.742  20.263  0.00  0.00    +0.000 C 
ATOM     34  C   UNL     1      -0.549  10.609  18.186  0.00  0.00    +0.000 C 
ATOM     35  C   UNL     1       1.681  11.706  18.458  0.00  0.00    +0.000 C 
ENDBRANCH  24  26
ENDBRANCH  10  22
TORSDOF 3
ENDMDL
MODEL 7
REMARK VINA RESULT:      -7.2      2.415      8.532
REMARK  Name = 
REMARK  4 active torsions:
REMARK  status: ('A' for Active; 'I' for Inactive)
REMARK    1  A    between atoms: C_1  and  C_2
REMARK    2  A    between atoms: C_10  and  C_11
REMARK    3  A    between atoms: N_13  and  C_14
REMARK    4  A    between atoms: C_26  and  C_27
REMARK                            x       y       z     vdW  Elec       q    Type
REMARK                         _______ _______ _______ _____ _____    ______ ____
ROOT
ATOM      1  C   UNL     1       1.298   1.919  22.355  0.00  0.00    +0.000 C 
ATOM      2  C   UNL     1       2.049   2.906  21.512  0.00  0.00    +0.000 A 
ATOM      3  C   UNL     1       3.291   2.595  20.952  0.00  0.00    +0.000 A 
ATOM      4  C   UNL     1       3.977   3.518  20.150  0.00  0.00    +0.000 A 
ATOM      5  C   UNL     1       3.445   4.782  19.896  0.00  0.00    +0.000 A 
ATOM      6  C   UNL     1       2.192   5.084  20.464  0.00  0.00    +0.000 A 
ATOM      7  C   UNL     1       1.498   4.160  21.259  0.00  0.00    +0.000 A 
ATOM      8  C   UNL     1       1.565   6.401  20.208  0.00  0.00    +0.000 A 
ATOM      9  O   UNL     1       0.476   6.682  20.706  0.00  0.00    +0.000 OA
ATOM     10  C   UNL     1       2.290   7.359  19.343  0.00  0.00    +0.000 A 
ATOM     11  C   UNL     1       3.484   6.960  18.871  0.00  0.00    +0.000 A 
ATOM     12  N   UNL     1       4.096   5.733  19.096  0.00  0.00    +0.000 N 
ATOM     13  C   UNL     1       5.395   5.358  18.509  0.00  0.00    +0.000 C 
ATOM     14  C   UNL     1       5.989   4.018  18.994  0.00  0.00    +0.000 C 
ATOM     15  O   UNL     1       5.141   3.056  19.616  0.00  0.00    +0.000 OA
ENDROOT
BRANCH  13  16
ATOM     16  C   UNL     1       5.353   5.404  16.983  0.00  0.00    +0.000 A 
ATOM     17  C   UNL     1       5.210   6.636  16.320  0.00  0.00    +0.000 A 
ATOM     18  C   UNL     1       5.216   6.699  14.926  0.00  0.00    +0.000 A 
ATOM     19  C   UNL     1       5.362   5.534  14.179  0.00  0.00    +0.000 A 
ATOM     20  C   UNL     1       5.496   4.305  14.824  0.00  0.00    +0.000 A 
ATOM     21  C   UNL     1       5.491   4.237  16.217  0.00  0.00    +0.000 A 
ENDBRANCH  13  16
BRANCH  10  22
ATOM     22  C   UNL     1       1.775   8.702  18.955  0.00  0.00    +0.000 C 
ATOM     23  O   UNL     1       2.027   9.177  17.851  0.00  0.00    +0.000 OA
ATOM     24  N   UNL     1       1.009   9.339  19.906  0.00  0.00    +0.000 N 
ATOM     25  H   UNL     1       0.880   8.860  20.799  0.00  0.00    +0.000 HD
BRANCH  24  26
ATOM     26  C   UNL     1       0.374  10.645  19.725  0.00  0.00    +0.000 C 
ATOM     27  C   UNL     1      -0.773  10.565  18.685  0.00  0.00    +0.000 C 
ATOM     28  C   UNL     1      -1.429  11.939  18.491  0.00  0.00    +0.000 C 
ATOM     29  C   UNL     1      -2.030  12.402  19.826  0.00  0.00    +0.000 C 
ATOM     30  C   UNL     1      -0.927  12.502  20.891  0.00  0.00    +0.000 C 
ATOM     31  C   UNL     1       0.118  13.529  20.427  0.00  0.00    +0.000 C 
ATOM     32  C   UNL     1       0.741  13.076  19.097  0.00  0.00    +0.000 C 
ATOM     33  C   UNL     1      -0.359  12.944  18.030  0.00  0.00    +0.000 C 
ATOM     34  C   UNL     1       1.412  11.710  19.294  0.00  0.00    +0.000 C 
ATOM     35  C   UNL     1      -0.253  11.125  21.064  0.00  0.00    +0.000 C 
ENDBRANCH  24  26
ENDBRANCH  10  22
TORSDOF 3
ENDMDL
MODEL 8
REMARK VINA RESULT:      -7.2      3.147      8.574
REMARK  Name = 
REMARK  4 active torsions:
REMARK  status: ('A' for Active; 'I' for Inactive)
REMARK    1  A    between atoms: C_1  and  C_2
REMARK    2  A    between atoms: C_10  and  C_11
REMARK    3  A    between atoms: N_13  and  C_14
REMARK    4  A    between atoms: C_26  and  C_27
REMARK                            x       y       z     vdW  Elec       q    Type
REMARK                         _______ _______ _______ _____ _____    ______ ____
ROOT
ATOM      1  C   UNL     1       1.772   8.907  17.757  0.00  0.00    +0.000 C 
ATOM      2  C   UNL     1       1.533  10.304  18.250  0.00  0.00    +0.000 A 
ATOM      3  C   UNL     1       2.446  11.333  18.005  0.00  0.00    +0.000 A 
ATOM      4  C   UNL     1       2.204  12.639  18.454  0.00  0.00    +0.000 A 
ATOM      5  C   UNL     1       1.048  12.949  19.171  0.00  0.00    +0.000 A 
ATOM      6  C   UNL     1       0.135  11.903  19.410  0.00  0.00    +0.000 A 
ATOM      7  C   UNL     1       0.368  10.598  18.955  0.00  0.00    +0.000 A 
ATOM      8  C   UNL     1      -1.122  12.177  20.144  0.00  0.00    +0.000 A 
ATOM      9  O   UNL     1      -1.924  11.272  20.369  0.00  0.00    +0.000 OA
ATOM     10  C   UNL     1      -1.374  13.565  20.594  0.00  0.00    +0.000 A 
ATOM     11  C   UNL     1      -0.421  14.471  20.318  0.00  0.00    +0.000 A 
ATOM     12  N   UNL     1       0.766  14.242  19.633  0.00  0.00    +0.000 N 
ATOM     13  C   UNL     1       1.746  15.303  19.337  0.00  0.00    +0.000 C 
ATOM     14  C   UNL     1       3.075  14.832  18.706  0.00  0.00    +0.000 C 
ATOM     15  O   UNL     1       3.143  13.552  18.085  0.00  0.00    +0.000 OA
ENDROOT
BRANCH  13  16
ATOM     16  C   UNL     1       1.124  16.422  18.505  0.00  0.00    +0.000 A 
ATOM     17  C   UNL     1       1.936  17.221  17.681  0.00  0.00    +0.000 A 
ATOM     18  C   UNL     1       1.375  18.217  16.880  0.00  0.00    +0.000 A 
ATOM     19  C   UNL     1       0.000  18.429  16.896  0.00  0.00    +0.000 A 
ATOM     20  C   UNL     1      -0.816  17.650  17.715  0.00  0.00    +0.000 A 
ATOM     21  C   UNL     1      -0.260  16.652  18.517  0.00  0.00    +0.000 A 
ENDBRANCH  13  16
BRANCH  10  22
ATOM     22  C   UNL     1      -2.607  14.010  21.302  0.00  0.00    +0.000 C 
ATOM     23  O   UNL     1      -2.624  15.063  21.935  0.00  0.00    +0.000 OA
ATOM     24  N   UNL     1      -3.694  13.172  21.182  0.00  0.00    +0.000 N 
ATOM     25  H   UNL     1      -3.562  12.311  20.649  0.00  0.00    +0.000 HD
BRANCH  24  26
ATOM     26  C   UNL     1      -5.013  13.430  21.764  0.00  0.00    +0.000 C 
ATOM     27  C   UNL     1      -5.548  14.818  21.328  0.00  0.00    +0.000 C 
ATOM     28  C   UNL     1      -6.926  15.088  21.949  0.00  0.00    +0.000 C 
ATOM     29  C   UNL     1      -7.917  14.022  21.458  0.00  0.00    +0.000 C 
ATOM     30  C   UNL     1      -7.429  12.624  21.871  0.00  0.00    +0.000 C 
ATOM     31  C   UNL     1      -7.343  12.564  23.405  0.00  0.00    +0.000 C 
ATOM     32  C   UNL     1      -6.346  13.616  23.914  0.00  0.00    +0.000 C 
ATOM     33  C   UNL     1      -6.808  15.018  23.481  0.00  0.00    +0.000 C 
ATOM     34  C   UNL     1      -4.964  13.337  23.309  0.00  0.00    +0.000 C 
ATOM     35  C   UNL     1      -6.032  12.367  21.267  0.00  0.00    +0.000 C 
ENDBRANCH  24  26
ENDBRANCH  10  22
TORSDOF 3
ENDMDL
MODEL 9
REMARK VINA RESULT:      -7.2      2.413      8.530
REMARK  Name = 
REMARK  4 active torsions:
REMARK  status: ('A' for Active; 'I' for Inactive)
REMARK    1  A    between atoms: C_1  and  C_2
REMARK    2  A    between atoms: C_10  and  C_11
REMARK    3  A    between atoms: N_13  and  C_14
REMARK    4  A    between atoms: C_26  and  C_27
REMARK                            x       y       z     vdW  Elec       q    Type
REMARK                         _______ _______ _______ _____ _____    ______ ____
ROOT
ATOM      1  C   UNL     1       1.259   1.908  22.339  0.00  0.00    +0.000 C 
ATOM      2  C   UNL     1       2.019   2.895  21.503  0.00  0.00    +0.000 A 
ATOM      3  C   UNL     1       3.262   2.581  20.950  0.00  0.00    +0.000 A 
ATOM      4  C   UNL     1       3.956   3.504  20.154  0.00  0.00    +0.000 A 
ATOM      5  C   UNL     1       3.430   4.771  19.902  0.00  0.00    +0.000 A 
ATOM      6  C   UNL     1       2.175   5.075  20.464  0.00  0.00    +0.000 A 
ATOM      7  C   UNL     1       1.474   4.152  21.252  0.00  0.00    +0.000 A 
ATOM      8  C   UNL     1       1.554   6.396  20.209  0.00  0.00    +0.000 A 
ATOM      9  O   UNL     1       0.463   6.679  20.701  0.00  0.00    +0.000 OA
ATOM     10  C   UNL     1       2.288   7.353  19.351  0.00  0.00    +0.000 A 
ATOM     11  C   UNL     1       3.483   6.952  18.884  0.00  0.00    +0.000 A 
ATOM     12  N   UNL     1       4.089   5.722  19.108  0.00  0.00    +0.000 N 
ATOM     13  C   UNL     1       5.390   5.344  18.527  0.00  0.00    +0.000 C 
ATOM     14  C   UNL     1       5.976   4.000  19.012  0.00  0.00    +0.000 C 
ATOM     15  O   UNL     1       5.121   3.040  19.626  0.00  0.00    +0.000 OA
ENDROOT
BRANCH  13  16
ATOM     16  C   UNL     1       5.357   5.396  17.001  0.00  0.00    +0.000 A 
ATOM     17  C   UNL     1       5.212   6.629  16.342  0.00  0.00    +0.000 A 
ATOM     18  C   UNL     1       5.226   6.696  14.948  0.00  0.00    +0.000 A 
ATOM     19  C   UNL     1       5.381   5.535  14.198  0.00  0.00    +0.000 A 
ATOM     20  C   UNL     1       5.517   4.304  14.839  0.00  0.00    +0.000 A 
ATOM     21  C   UNL     1       5.504   4.232  16.232  0.00  0.00    +0.000 A 
ENDBRANCH  13  16
BRANCH  10  22
ATOM     22  C   UNL     1       1.780   8.700  18.964  0.00  0.00    +0.000 C 
ATOM     23  O   UNL     1       2.043   9.179  17.865  0.00  0.00    +0.000 OA
ATOM     24  N   UNL     1       1.008   9.335  19.912  0.00  0.00    +0.000 N 
ATOM     25  H   UNL     1       0.870   8.853  20.802  0.00  0.00    +0.000 HD
BRANCH  24  26
ATOM     26  C   UNL     1       0.378  10.644  19.731  0.00  0.00    +0.000 C 
ATOM     27  C   UNL     1       1.417  11.701  19.276  0.00  0.00    +0.000 C 
ATOM     28  C   UNL     1       0.755  13.074  19.098  0.00  0.00    +0.000 C 
ATOM     29  C   UNL     1      -0.327  12.974  18.012  0.00  0.00    +0.000 C 
ATOM     30  C   UNL     1      -1.386  11.937  18.422  0.00  0.00    +0.000 C 
ATOM     31  C   UNL     1      -2.036  12.389  19.739  0.00  0.00    +0.000 C 
ATOM     32  C   UNL     1      -0.970  12.483  20.842  0.00  0.00    +0.000 C 
ATOM     33  C   UNL     1       0.111  13.496  20.430  0.00  0.00    +0.000 C 
ATOM     34  C   UNL     1      -0.319  11.107  21.034  0.00  0.00    +0.000 C 
ATOM     35  C   UNL     1      -0.711  10.565  18.625  0.00  0.00    +0.000 C 
ENDBRANCH  24  26
ENDBRANCH  10  22
TORSDOF 3
ENDMDL
