MODEL 1
REMARK VINA RESULT:      -7.9      0.000      0.000
REMARK  Name = 
REMARK  5 active torsions:
REMARK  status: ('A' for Active; 'I' for Inactive)
REMARK    1  A    between atoms: C_9  and  C_10
REMARK    2  A    between atoms: C_14  and  O_15
REMARK    3  A    between atoms: O_15  and  C_16
REMARK    4  A    between atoms: C_16  and  C_17
REMARK    5  A    between atoms: C_17  and  O_18
REMARK                            x       y       z     vdW  Elec       q    Type
REMARK                         _______ _______ _______ _____ _____    ______ ____
ROOT
ATOM      1  O   UNL     1       4.868   2.994  16.417  0.00  0.00    +0.000 OA
ATOM      2  C   UNL     1       5.606   3.860  15.998  0.00  0.00    +0.000 C 
ATOM      3  C   UNL     1       6.200   4.962  16.763  0.00  0.00    +0.000 C 
ATOM      4  C   UNL     1       7.010   5.648  15.954  0.00  0.00    +0.000 C 
ATOM      5  N   UNL     1       7.703   6.721  16.404  0.00  0.00    +0.000 N 
ATOM      6  C   UNL     1       7.640   7.136  17.708  0.00  0.00    +0.000 C 
ATOM      7  S   UNL     1       8.499   8.451  18.244  0.00  0.00    +0.000 S 
ATOM      8  N   UNL     1       6.843   6.421  18.554  0.00  0.00    +0.000 N 
ATOM      9  C   UNL     1       5.965   5.307  18.172  0.00  0.00    +0.000 C 
ATOM     10  C   UNL     1       6.984   5.093  14.620  0.00  0.00    +0.000 A 
ATOM     11  C   UNL     1       7.621   5.457  13.449  0.00  0.00    +0.000 A 
ATOM     12  C   UNL     1       7.352   4.710  12.295  0.00  0.00    +0.000 A 
ATOM     13  C   UNL     1       6.461   3.619  12.324  0.00  0.00    +0.000 A 
ATOM     14  C   UNL     1       5.826   3.251  13.510  0.00  0.00    +0.000 A 
ATOM     15  C   UNL     1       6.112   4.004  14.631  0.00  0.00    +0.000 A 
ATOM     16  H   UNL     1       8.307   7.246  15.780  0.00  0.00    +0.000 HD
ATOM     17  H   UNL     1       6.780   6.759  19.506  0.00  0.00    +0.000 HD
ENDROOT
BRANCH   9  18
ATOM     18  C   UNL     1       4.524   5.672  18.471  0.00  0.00    +0.000 A 
ATOM     19  C   UNL     1       3.862   6.694  17.771  0.00  0.00    +0.000 A 
ATOM     20  C   UNL     1       2.544   7.026  18.082  0.00  0.00    +0.000 A 
ATOM     21  C   UNL     1       1.890   6.369  19.124  0.00  0.00    +0.000 A 
ATOM     22  C   UNL     1       2.542   5.373  19.847  0.00  0.00    +0.000 A 
ATOM     23  C   UNL     1       3.834   4.990  19.486  0.00  0.00    +0.000 A 
BRANCH  22  24
ATOM     24  O   UNL     1       1.839   4.843  20.896  0.00  0.00    +0.000 OA
BRANCH  24  25
ATOM     25  C   UNL     1       1.033   3.700  20.572  0.00  0.00    +0.000 C 
BRANCH  25  26
ATOM     26  C   UNL     1       1.336   2.600  21.582  0.00  0.00    +0.000 C 
BRANCH  26  27
ATOM     27  O   UNL     1       2.658   2.733  22.098  0.00  0.00    +0.000 OA
ATOM     28  H   UNL     1       3.239   2.830  21.320  0.00  0.00    +0.000 HD
ENDBRANCH  26  27
ENDBRANCH  25  26
ENDBRANCH  24  25
ENDBRANCH  22  24
ENDBRANCH   9  18
TORSDOF 5
ENDMDL
MODEL 2
REMARK VINA RESULT:      -7.1      1.824      2.967
REMARK  Name = 
REMARK  5 active torsions:
REMARK  status: ('A' for Active; 'I' for Inactive)
REMARK    1  A    between atoms: C_9  and  C_10
REMARK    2  A    between atoms: C_14  and  O_15
REMARK    3  A    between atoms: O_15  and  C_16
REMARK    4  A    between atoms: C_16  and  C_17
REMARK    5  A    between atoms: C_17  and  O_18
REMARK                            x       y       z     vdW  Elec       q    Type
REMARK                         _______ _______ _______ _____ _____    ______ ____
ROOT
ATOM      1  O   UNL     1       5.061   2.720  16.101  0.00  0.00    +0.000 OA
ATOM      2  C   UNL     1       5.751   3.653  15.748  0.00  0.00    +0.000 C 
ATOM      3  C   UNL     1       6.270   4.736  16.591  0.00  0.00    +0.000 C 
ATOM      4  C   UNL     1       7.047   5.519  15.838  0.00  0.00    +0.000 C 
ATOM      5  N   UNL     1       7.670   6.600  16.366  0.00  0.00    +0.000 N 
ATOM      6  C   UNL     1       7.567   6.925  17.692  0.00  0.00    +0.000 C 
ATOM      7  S   UNL     1       8.341   8.252  18.323  0.00  0.00    +0.000 S 
ATOM      8  N   UNL     1       6.805   6.112  18.479  0.00  0.00    +0.000 N 
ATOM      9  C   UNL     1       5.999   4.976  18.015  0.00  0.00    +0.000 C 
ATOM     10  C   UNL     1       7.069   5.050  14.472  0.00  0.00    +0.000 A 
ATOM     11  C   UNL     1       7.696   5.524  13.336  0.00  0.00    +0.000 A 
ATOM     12  C   UNL     1       7.485   4.837  12.133  0.00  0.00    +0.000 A 
ATOM     13  C   UNL     1       6.659   3.696  12.080  0.00  0.00    +0.000 A 
ATOM     14  C   UNL     1       6.034   3.217  13.231  0.00  0.00    +0.000 A 
ATOM     15  C   UNL     1       6.263   3.913  14.401  0.00  0.00    +0.000 A 
ATOM     16  H   UNL     1       8.249   7.198  15.785  0.00  0.00    +0.000 HD
ATOM     17  H   UNL     1       6.712   6.385  19.449  0.00  0.00    +0.000 HD
ENDROOT
BRANCH   9  18
ATOM     18  C   UNL     1       4.536   5.236  18.314  0.00  0.00    +0.000 A 
ATOM     19  C   UNL     1       3.697   4.230  18.821  0.00  0.00    +0.000 A 
ATOM     20  C   UNL     1       2.349   4.489  19.065  0.00  0.00    +0.000 A 
ATOM     21  C   UNL     1       1.817   5.743  18.766  0.00  0.00    +0.000 A 
ATOM     22  C   UNL     1       2.629   6.743  18.235  0.00  0.00    +0.000 A 
ATOM     23  C   UNL     1       3.993   6.506  18.062  0.00  0.00    +0.000 A 
BRANCH  22  24
ATOM     24  O   UNL     1       1.996   7.912  17.907  0.00  0.00    +0.000 OA
BRANCH  24  25
ATOM     25  C   UNL     1       1.603   8.725  19.024  0.00  0.00    +0.000 C 
BRANCH  25  26
ATOM     26  C   UNL     1       1.201  10.097  18.496  0.00  0.00    +0.000 C 
BRANCH  26  27
ATOM     27  O   UNL     1       1.985  10.457  17.362  0.00  0.00    +0.000 OA
ATOM     28  H   UNL     1       2.540   9.679  17.164  0.00  0.00    +0.000 HD
ENDBRANCH  26  27
ENDBRANCH  25  26
ENDBRANCH  24  25
ENDBRANCH  22  24
ENDBRANCH   9  18
TORSDOF 5
ENDMDL
MODEL 3
REMARK VINA RESULT:      -7.0      3.648      6.679
REMARK  Name = 
REMARK  5 active torsions:
REMARK  status: ('A' for Active; 'I' for Inactive)
REMARK    1  A    between atoms: C_9  and  C_10
REMARK    2  A    between atoms: C_14  and  O_15
REMARK    3  A    between atoms: O_15  and  C_16
REMARK    4  A    between atoms: C_16  and  C_17
REMARK    5  A    between atoms: C_17  and  O_18
REMARK                            x       y       z     vdW  Elec       q    Type
REMARK                         _______ _______ _______ _____ _____    ______ ____
ROOT
ATOM      1  O   UNL     1       5.086   3.569  16.671  0.00  0.00    +0.000 OA
ATOM      2  C   UNL     1       4.131   4.031  17.259  0.00  0.00    +0.000 C 
ATOM      3  C   UNL     1       3.767   5.447  17.379  0.00  0.00    +0.000 C 
ATOM      4  C   UNL     1       2.610   5.529  18.040  0.00  0.00    +0.000 C 
ATOM      5  N   UNL     1       2.029   6.728  18.286  0.00  0.00    +0.000 N 
ATOM      6  C   UNL     1       2.572   7.905  17.846  0.00  0.00    +0.000 C 
ATOM      7  S   UNL     1       1.845   9.366  18.152  0.00  0.00    +0.000 S 
ATOM      8  N   UNL     1       3.737   7.832  17.137  0.00  0.00    +0.000 N 
ATOM      9  C   UNL     1       4.517   6.612  16.892  0.00  0.00    +0.000 C 
ATOM     10  C   UNL     1       2.153   4.215  18.431  0.00  0.00    +0.000 A 
ATOM     11  C   UNL     1       1.045   3.788  19.137  0.00  0.00    +0.000 A 
ATOM     12  C   UNL     1       0.908   2.415  19.376  0.00  0.00    +0.000 A 
ATOM     13  C   UNL     1       1.869   1.494  18.912  0.00  0.00    +0.000 A 
ATOM     14  C   UNL     1       2.982   1.930  18.194  0.00  0.00    +0.000 A 
ATOM     15  C   UNL     1       3.089   3.287  17.971  0.00  0.00    +0.000 A 
ATOM     16  H   UNL     1       1.156   6.784  18.801  0.00  0.00    +0.000 HD
ATOM     17  H   UNL     1       4.143   8.712  16.848  0.00  0.00    +0.000 HD
ENDROOT
BRANCH   9  18
ATOM     18  C   UNL     1       5.888   6.753  17.522  0.00  0.00    +0.000 A 
ATOM     19  C   UNL     1       6.402   5.780  18.397  0.00  0.00    +0.000 A 
ATOM     20  C   UNL     1       7.656   5.946  18.982  0.00  0.00    +0.000 A 
ATOM     21  C   UNL     1       8.391   7.104  18.733  0.00  0.00    +0.000 A 
ATOM     22  C   UNL     1       7.884   8.092  17.891  0.00  0.00    +0.000 A 
ATOM     23  C   UNL     1       6.663   7.891  17.248  0.00  0.00    +0.000 A 
BRANCH  22  24
ATOM     24  O   UNL     1       8.650   9.221  17.772  0.00  0.00    +0.000 OA
BRANCH  24  25
ATOM     25  C   UNL     1       9.009   9.847  19.013  0.00  0.00    +0.000 C 
BRANCH  25  26
ATOM     26  C   UNL     1       9.852  11.078  18.700  0.00  0.00    +0.000 C 
BRANCH  26  27
ATOM     27  O   UNL     1       9.045  12.251  18.661  0.00  0.00    +0.000 OA
ATOM     28  H   UNL     1       9.396  12.793  17.931  0.00  0.00    +0.000 HD
ENDBRANCH  26  27
ENDBRANCH  25  26
ENDBRANCH  24  25
ENDBRANCH  22  24
ENDBRANCH   9  18
TORSDOF 5
ENDMDL
MODEL 4
REMARK VINA RESULT:      -7.0      1.095      1.095
REMARK  Name = 
REMARK  5 active torsions:
REMARK  status: ('A' for Active; 'I' for Inactive)
REMARK    1  A    between atoms: C_9  and  C_10
REMARK    2  A    between atoms: C_14  and  O_15
REMARK    3  A    between atoms: O_15  and  C_16
REMARK    4  A    between atoms: C_16  and  C_17
REMARK    5  A    between atoms: C_17  and  O_18
REMARK                            x       y       z     vdW  Elec       q    Type
REMARK                         _______ _______ _______ _____ _____    ______ ____
ROOT
ATOM      1  O   UNL     1       5.111   2.640  15.824  0.00  0.00    +0.000 OA
ATOM      2  C   UNL     1       5.793   3.593  15.515  0.00  0.00    +0.000 C 
ATOM      3  C   UNL     1       6.252   4.674  16.395  0.00  0.00    +0.000 C 
ATOM      4  C   UNL     1       7.041   5.486  15.688  0.00  0.00    +0.000 C 
ATOM      5  N   UNL     1       7.617   6.572  16.258  0.00  0.00    +0.000 N 
ATOM      6  C   UNL     1       7.453   6.872  17.584  0.00  0.00    +0.000 C 
ATOM      7  S   UNL     1       8.170   8.205  18.267  0.00  0.00    +0.000 S 
ATOM      8  N   UNL     1       6.678   6.029  18.326  0.00  0.00    +0.000 N 
ATOM      9  C   UNL     1       5.918   4.883  17.810  0.00  0.00    +0.000 C 
ATOM     10  C   UNL     1       7.130   5.041  14.316  0.00  0.00    +0.000 A 
ATOM     11  C   UNL     1       7.791   5.549  13.215  0.00  0.00    +0.000 A 
ATOM     12  C   UNL     1       7.646   4.878  11.994  0.00  0.00    +0.000 A 
ATOM     13  C   UNL     1       6.849   3.720  11.889  0.00  0.00    +0.000 A 
ATOM     14  C   UNL     1       6.189   3.207  13.005  0.00  0.00    +0.000 A 
ATOM     15  C   UNL     1       6.353   3.887  14.194  0.00  0.00    +0.000 A 
ATOM     16  H   UNL     1       8.205   7.192  15.711  0.00  0.00    +0.000 HD
ATOM     17  H   UNL     1       6.539   6.284  19.296  0.00  0.00    +0.000 HD
ENDROOT
BRANCH   9  18
ATOM     18  C   UNL     1       4.439   5.106  18.054  0.00  0.00    +0.000 A 
ATOM     19  C   UNL     1       3.906   6.393  18.237  0.00  0.00    +0.000 A 
ATOM     20  C   UNL     1       2.546   6.568  18.484  0.00  0.00    +0.000 A 
ATOM     21  C   UNL     1       1.711   5.456  18.591  0.00  0.00    +0.000 A 
ATOM     22  C   UNL     1       2.227   4.171  18.441  0.00  0.00    +0.000 A 
ATOM     23  C   UNL     1       3.575   4.001  18.120  0.00  0.00    +0.000 A 
BRANCH  22  24
ATOM     24  O   UNL     1       1.340   3.147  18.639  0.00  0.00    +0.000 OA
BRANCH  24  25
ATOM     25  C   UNL     1       1.850   2.038  19.396  0.00  0.00    +0.000 C 
BRANCH  25  26
ATOM     26  C   UNL     1       2.121   2.515  20.818  0.00  0.00    +0.000 C 
BRANCH  26  27
ATOM     27  O   UNL     1       0.906   2.835  21.488  0.00  0.00    +0.000 OA
ATOM     28  H   UNL     1       1.157   3.404  22.239  0.00  0.00    +0.000 HD
ENDBRANCH  26  27
ENDBRANCH  25  26
ENDBRANCH  24  25
ENDBRANCH  22  24
ENDBRANCH   9  18
TORSDOF 5
ENDMDL
MODEL 5
REMARK VINA RESULT:      -6.7      6.062      9.399
REMARK  Name = 
REMARK  5 active torsions:
REMARK  status: ('A' for Active; 'I' for Inactive)
REMARK    1  A    between atoms: C_9  and  C_10
REMARK    2  A    between atoms: C_14  and  O_15
REMARK    3  A    between atoms: O_15  and  C_16
REMARK    4  A    between atoms: C_16  and  C_17
REMARK    5  A    between atoms: C_17  and  O_18
REMARK                            x       y       z     vdW  Elec       q    Type
REMARK                         _______ _______ _______ _____ _____    ______ ____
ROOT
ATOM      1  O   UNL     1      -1.485   9.611  16.952  0.00  0.00    +0.000 OA
ATOM      2  C   UNL     1      -1.733  10.448  17.794  0.00  0.00    +0.000 C 
ATOM      3  C   UNL     1      -0.768  11.214  18.590  0.00  0.00    +0.000 C 
ATOM      4  C   UNL     1      -1.442  12.083  19.347  0.00  0.00    +0.000 C 
ATOM      5  N   UNL     1      -0.795  12.933  20.180  0.00  0.00    +0.000 N 
ATOM      6  C   UNL     1       0.571  12.972  20.265  0.00  0.00    +0.000 C 
ATOM      7  S   UNL     1       1.348  14.023  21.289  0.00  0.00    +0.000 S 
ATOM      8  N   UNL     1       1.273  12.113  19.470  0.00  0.00    +0.000 N 
ATOM      9  C   UNL     1       0.695  11.077  18.604  0.00  0.00    +0.000 C 
ATOM     10  C   UNL     1      -2.865  11.935  19.145  0.00  0.00    +0.000 A 
ATOM     11  C   UNL     1      -3.954  12.576  19.703  0.00  0.00    +0.000 A 
ATOM     12  C   UNL     1      -5.233  12.167  19.302  0.00  0.00    +0.000 A 
ATOM     13  C   UNL     1      -5.406  11.134  18.358  0.00  0.00    +0.000 A 
ATOM     14  C   UNL     1      -4.303  10.496  17.793  0.00  0.00    +0.000 A 
ATOM     15  C   UNL     1      -3.056  10.921  18.205  0.00  0.00    +0.000 A 
ATOM     16  H   UNL     1      -1.314  13.582  20.762  0.00  0.00    +0.000 HD
ATOM     17  H   UNL     1       2.280  12.130  19.570  0.00  0.00    +0.000 HD
ENDROOT
BRANCH   9  18
ATOM     18  C   UNL     1       1.168   9.712  19.063  0.00  0.00    +0.000 A 
ATOM     19  C   UNL     1       0.927   9.247  20.367  0.00  0.00    +0.000 A 
ATOM     20  C   UNL     1       1.395   7.998  20.771  0.00  0.00    +0.000 A 
ATOM     21  C   UNL     1       2.143   7.218  19.889  0.00  0.00    +0.000 A 
ATOM     22  C   UNL     1       2.417   7.677  18.602  0.00  0.00    +0.000 A 
ATOM     23  C   UNL     1       1.885   8.894  18.175  0.00  0.00    +0.000 A 
BRANCH  22  24
ATOM     24  O   UNL     1       3.221   6.870  17.843  0.00  0.00    +0.000 OA
BRANCH  24  25
ATOM     25  C   UNL     1       3.794   5.753  18.538  0.00  0.00    +0.000 C 
BRANCH  25  26
ATOM     26  C   UNL     1       4.084   4.655  17.521  0.00  0.00    +0.000 C 
BRANCH  26  27
ATOM     27  O   UNL     1       5.185   3.852  17.938  0.00  0.00    +0.000 OA
ATOM     28  H   UNL     1       5.631   4.357  18.643  0.00  0.00    +0.000 HD
ENDBRANCH  26  27
ENDBRANCH  25  26
ENDBRANCH  24  25
ENDBRANCH  22  24
ENDBRANCH   9  18
TORSDOF 5
ENDMDL
MODEL 6
REMARK VINA RESULT:      -6.6      6.488      9.446
REMARK  Name = 
REMARK  5 active torsions:
REMARK  status: ('A' for Active; 'I' for Inactive)
REMARK    1  A    between atoms: C_9  and  C_10
REMARK    2  A    between atoms: C_14  and  O_15
REMARK    3  A    between atoms: O_15  and  C_16
REMARK    4  A    between atoms: C_16  and  C_17
REMARK    5  A    between atoms: C_17  and  O_18
REMARK                            x       y       z     vdW  Elec       q    Type
REMARK                         _______ _______ _______ _____ _____    ______ ____
ROOT
ATOM      1  O   UNL     1       1.433  12.034  21.397  0.00  0.00    +0.000 OA
ATOM      2  C   UNL     1       0.886  12.575  20.459  0.00  0.00    +0.000 C 
ATOM      3  C   UNL     1      -0.085  11.976  19.537  0.00  0.00    +0.000 C 
ATOM      4  C   UNL     1      -0.505  12.924  18.695  0.00  0.00    +0.000 C 
ATOM      5  N   UNL     1      -1.420  12.650  17.734  0.00  0.00    +0.000 N 
ATOM      6  C   UNL     1      -1.985  11.410  17.598  0.00  0.00    +0.000 C 
ATOM      7  S   UNL     1      -3.109  11.093  16.418  0.00  0.00    +0.000 S 
ATOM      8  N   UNL     1      -1.591  10.442  18.476  0.00  0.00    +0.000 N 
ATOM      9  C   UNL     1      -0.539  10.580  19.491  0.00  0.00    +0.000 C 
ATOM     10  C   UNL     1       0.166  14.175  18.963  0.00  0.00    +0.000 A 
ATOM     11  C   UNL     1       0.092  15.417  18.362  0.00  0.00    +0.000 A 
ATOM     12  C   UNL     1       0.916  16.436  18.857  0.00  0.00    +0.000 A 
ATOM     13  C   UNL     1       1.795  16.205  19.935  0.00  0.00    +0.000 A 
ATOM     14  C   UNL     1       1.861  14.952  20.542  0.00  0.00    +0.000 A 
ATOM     15  C   UNL     1       1.036  13.968  20.035  0.00  0.00    +0.000 A 
ATOM     16  H   UNL     1      -1.724  13.372  17.089  0.00  0.00    +0.000 HD
ATOM     17  H   UNL     1      -1.993   9.523  18.341  0.00  0.00    +0.000 HD
ENDROOT
BRANCH   9  18
ATOM     18  C   UNL     1       0.576   9.593  19.202  0.00  0.00    +0.000 A 
ATOM     19  C   UNL     1       1.271   9.603  17.981  0.00  0.00    +0.000 A 
ATOM     20  C   UNL     1       2.275   8.669  17.731  0.00  0.00    +0.000 A 
ATOM     21  C   UNL     1       2.566   7.690  18.681  0.00  0.00    +0.000 A 
ATOM     22  C   UNL     1       1.866   7.649  19.885  0.00  0.00    +0.000 A 
ATOM     23  C   UNL     1       0.913   8.629  20.165  0.00  0.00    +0.000 A 
BRANCH  22  24
ATOM     24  O   UNL     1       2.175   6.606  20.717  0.00  0.00    +0.000 OA
BRANCH  24  25
ATOM     25  C   UNL     1       2.354   5.340  20.064  0.00  0.00    +0.000 C 
BRANCH  25  26
ATOM     26  C   UNL     1       1.299   4.376  20.596  0.00  0.00    +0.000 C 
BRANCH  26  27
ATOM     27  O   UNL     1       0.970   3.392  19.619  0.00  0.00    +0.000 OA
ATOM     28  H   UNL     1       0.871   3.874  18.777  0.00  0.00    +0.000 HD
ENDBRANCH  26  27
ENDBRANCH  25  26
ENDBRANCH  24  25
ENDBRANCH  22  24
ENDBRANCH   9  18
TORSDOF 5
ENDMDL
MODEL 7
REMARK VINA RESULT:      -6.5      9.032     11.672
REMARK  Name = 
REMARK  5 active torsions:
REMARK  status: ('A' for Active; 'I' for Inactive)
REMARK    1  A    between atoms: C_9  and  C_10
REMARK    2  A    between atoms: C_14  and  O_15
REMARK    3  A    between atoms: O_15  and  C_16
REMARK    4  A    between atoms: C_16  and  C_17
REMARK    5  A    between atoms: C_17  and  O_18
REMARK                            x       y       z     vdW  Elec       q    Type
REMARK                         _______ _______ _______ _____ _____    ______ ____
ROOT
ATOM      1  O   UNL     1      -2.632  12.572  20.462  0.00  0.00    +0.000 OA
ATOM      2  C   UNL     1      -2.194  11.833  19.607  0.00  0.00    +0.000 C 
ATOM      3  C   UNL     1      -2.796  11.534  18.303  0.00  0.00    +0.000 C 
ATOM      4  C   UNL     1      -1.966  10.736  17.629  0.00  0.00    +0.000 C 
ATOM      5  N   UNL     1      -2.267  10.308  16.379  0.00  0.00    +0.000 N 
ATOM      6  C   UNL     1      -3.411  10.695  15.733  0.00  0.00    +0.000 C 
ATOM      7  S   UNL     1      -3.764  10.164  14.200  0.00  0.00    +0.000 S 
ATOM      8  N   UNL     1      -4.251  11.540  16.398  0.00  0.00    +0.000 N 
ATOM      9  C   UNL     1      -4.093  11.993  17.786  0.00  0.00    +0.000 C 
ATOM     10  C   UNL     1      -0.803  10.422  18.427  0.00  0.00    +0.000 A 
ATOM     11  C   UNL     1       0.305   9.633  18.185  0.00  0.00    +0.000 A 
ATOM     12  C   UNL     1       1.261   9.513  19.203  0.00  0.00    +0.000 A 
ATOM     13  C   UNL     1       1.099  10.175  20.436  0.00  0.00    +0.000 A 
ATOM     14  C   UNL     1      -0.018  10.975  20.673  0.00  0.00    +0.000 A 
ATOM     15  C   UNL     1      -0.940  11.077  19.652  0.00  0.00    +0.000 A 
ATOM     16  H   UNL     1      -1.638   9.691  15.878  0.00  0.00    +0.000 HD
ATOM     17  H   UNL     1      -5.108  11.790  15.920  0.00  0.00    +0.000 HD
ENDROOT
BRANCH   9  18
ATOM     18  C   UNL     1      -5.273  11.520  18.611  0.00  0.00    +0.000 A 
ATOM     19  C   UNL     1      -5.801  10.226  18.468  0.00  0.00    +0.000 A 
ATOM     20  C   UNL     1      -6.903   9.824  19.222  0.00  0.00    +0.000 A 
ATOM     21  C   UNL     1      -7.512  10.724  20.096  0.00  0.00    +0.000 A 
ATOM     22  C   UNL     1      -7.019  12.020  20.228  0.00  0.00    +0.000 A 
ATOM     23  C   UNL     1      -5.872  12.397  19.529  0.00  0.00    +0.000 A 
BRANCH  22  24
ATOM     24  O   UNL     1      -7.732  12.846  21.054  0.00  0.00    +0.000 OA
BRANCH  24  25
ATOM     25  C   UNL     1      -7.882  12.378  22.403  0.00  0.00    +0.000 C 
BRANCH  25  26
ATOM     26  C   UNL     1      -6.767  12.987  23.246  0.00  0.00    +0.000 C 
BRANCH  26  27
ATOM     27  O   UNL     1      -7.249  13.360  24.534  0.00  0.00    +0.000 OA
ATOM     28  H   UNL     1      -6.595  13.019  25.172  0.00  0.00    +0.000 HD
ENDBRANCH  26  27
ENDBRANCH  25  26
ENDBRANCH  24  25
ENDBRANCH  22  24
ENDBRANCH   9  18
TORSDOF 5
ENDMDL
MODEL 8
REMARK VINA RESULT:      -6.5      2.630      3.806
REMARK  Name = 
REMARK  5 active torsions:
REMARK  status: ('A' for Active; 'I' for Inactive)
REMARK    1  A    between atoms: C_9  and  C_10
REMARK    2  A    between atoms: C_14  and  O_15
REMARK    3  A    between atoms: O_15  and  C_16
REMARK    4  A    between atoms: C_16  and  C_17
REMARK    5  A    between atoms: C_17  and  O_18
REMARK                            x       y       z     vdW  Elec       q    Type
REMARK                         _______ _______ _______ _____ _____    ______ ____
ROOT
ATOM      1  O   UNL     1       5.726   4.134  19.434  0.00  0.00    +0.000 OA
ATOM      2  C   UNL     1       5.315   4.851  18.547  0.00  0.00    +0.000 C 
ATOM      3  C   UNL     1       4.258   5.864  18.647  0.00  0.00    +0.000 C 
ATOM      4  C   UNL     1       4.158   6.486  17.470  0.00  0.00    +0.000 C 
ATOM      5  N   UNL     1       3.261   7.483  17.280  0.00  0.00    +0.000 N 
ATOM      6  C   UNL     1       2.442   7.927  18.283  0.00  0.00    +0.000 C 
ATOM      7  S   UNL     1       1.351   9.154  18.034  0.00  0.00    +0.000 S 
ATOM      8  N   UNL     1       2.560   7.324  19.502  0.00  0.00    +0.000 N 
ATOM      9  C   UNL     1       3.414   6.170  19.810  0.00  0.00    +0.000 C 
ATOM     10  C   UNL     1       5.086   5.922  16.517  0.00  0.00    +0.000 A 
ATOM     11  C   UNL     1       5.340   6.203  15.188  0.00  0.00    +0.000 A 
ATOM     12  C   UNL     1       6.308   5.434  14.528  0.00  0.00    +0.000 A 
ATOM     13  C   UNL     1       7.002   4.405  15.195  0.00  0.00    +0.000 A 
ATOM     14  C   UNL     1       6.746   4.130  16.538  0.00  0.00    +0.000 A 
ATOM     15  C   UNL     1       5.791   4.904  17.163  0.00  0.00    +0.000 A 
ATOM     16  H   UNL     1       3.182   7.942  16.379  0.00  0.00    +0.000 HD
ATOM     17  H   UNL     1       1.924   7.641  20.223  0.00  0.00    +0.000 HD
ENDROOT
BRANCH   9  18
ATOM     18  C   UNL     1       2.551   5.005  20.252  0.00  0.00    +0.000 A 
ATOM     19  C   UNL     1       2.566   4.537  21.577  0.00  0.00    +0.000 A 
ATOM     20  C   UNL     1       1.781   3.447  21.951  0.00  0.00    +0.000 A 
ATOM     21  C   UNL     1       1.006   2.789  20.997  0.00  0.00    +0.000 A 
ATOM     22  C   UNL     1       1.003   3.222  19.672  0.00  0.00    +0.000 A 
ATOM     23  C   UNL     1       1.730   4.357  19.315  0.00  0.00    +0.000 A 
BRANCH  22  24
ATOM     24  O   UNL     1       0.268   2.463  18.801  0.00  0.00    +0.000 OA
BRANCH  24  25
ATOM     25  C   UNL     1       0.993   1.405  18.156  0.00  0.00    +0.000 C 
BRANCH  25  26
ATOM     26  C   UNL     1       2.371   1.934  17.774  0.00  0.00    +0.000 C 
BRANCH  26  27
ATOM     27  O   UNL     1       3.400   1.103  18.304  0.00  0.00    +0.000 OA
ATOM     28  H   UNL     1       3.457   0.335  17.706  0.00  0.00    +0.000 HD
ENDBRANCH  26  27
ENDBRANCH  25  26
ENDBRANCH  24  25
ENDBRANCH  22  24
ENDBRANCH   9  18
TORSDOF 5
ENDMDL
MODEL 9
REMARK VINA RESULT:      -6.4      4.181      6.044
REMARK  Name = 
REMARK  5 active torsions:
REMARK  status: ('A' for Active; 'I' for Inactive)
REMARK    1  A    between atoms: C_9  and  C_10
REMARK    2  A    between atoms: C_14  and  O_15
REMARK    3  A    between atoms: O_15  and  C_16
REMARK    4  A    between atoms: C_16  and  C_17
REMARK    5  A    between atoms: C_17  and  O_18
REMARK                            x       y       z     vdW  Elec       q    Type
REMARK                         _______ _______ _______ _____ _____    ______ ____
ROOT
ATOM      1  O   UNL     1       3.356   8.014  17.062  0.00  0.00    +0.000 OA
ATOM      2  C   UNL     1       3.834   7.105  17.706  0.00  0.00    +0.000 C 
ATOM      3  C   UNL     1       3.150   6.271  18.700  0.00  0.00    +0.000 C 
ATOM      4  C   UNL     1       4.004   5.336  19.125  0.00  0.00    +0.000 C 
ATOM      5  N   UNL     1       3.632   4.415  20.046  0.00  0.00    +0.000 N 
ATOM      6  C   UNL     1       2.363   4.370  20.560  0.00  0.00    +0.000 C 
ATOM      7  S   UNL     1       1.922   3.231  21.685  0.00  0.00    +0.000 S 
ATOM      8  N   UNL     1       1.470   5.298  20.107  0.00  0.00    +0.000 N 
ATOM      9  C   UNL     1       1.773   6.407  19.193  0.00  0.00    +0.000 C 
ATOM     10  C   UNL     1       5.292   5.501  18.492  0.00  0.00    +0.000 A 
ATOM     11  C   UNL     1       6.484   4.811  18.616  0.00  0.00    +0.000 A 
ATOM     12  C   UNL     1       7.580   5.254  17.863  0.00  0.00    +0.000 A 
ATOM     13  C   UNL     1       7.474   6.367  17.006  0.00  0.00    +0.000 A 
ATOM     14  C   UNL     1       6.268   7.055  16.879  0.00  0.00    +0.000 A 
ATOM     15  C   UNL     1       5.205   6.595  17.630  0.00  0.00    +0.000 A 
ATOM     16  H   UNL     1       4.290   3.716  20.374  0.00  0.00    +0.000 HD
ATOM     17  H   UNL     1       0.547   5.272  20.521  0.00  0.00    +0.000 HD
ENDROOT
BRANCH   9  18
ATOM     18  C   UNL     1       1.511   7.726  19.893  0.00  0.00    +0.000 A 
ATOM     19  C   UNL     1       1.478   7.823  21.294  0.00  0.00    +0.000 A 
ATOM     20  C   UNL     1       1.210   9.043  21.913  0.00  0.00    +0.000 A 
ATOM     21  C   UNL     1       0.932  10.169  21.138  0.00  0.00    +0.000 A 
ATOM     22  C   UNL     1       0.932  10.083  19.747  0.00  0.00    +0.000 A 
ATOM     23  C   UNL     1       1.273   8.879  19.129  0.00  0.00    +0.000 A 
BRANCH  22  24
ATOM     24  O   UNL     1       0.575  11.224  19.081  0.00  0.00    +0.000 OA
BRANCH  24  25
ATOM     25  C   UNL     1      -0.706  11.763  19.442  0.00  0.00    +0.000 C 
BRANCH  25  26
ATOM     26  C   UNL     1      -1.668  11.527  18.283  0.00  0.00    +0.000 C 
BRANCH  26  27
ATOM     27  O   UNL     1      -1.421  12.446  17.222  0.00  0.00    +0.000 OA
ATOM     28  H   UNL     1      -2.184  12.368  16.619  0.00  0.00    +0.000 HD
ENDBRANCH  26  27
ENDBRANCH  25  26
ENDBRANCH  24  25
ENDBRANCH  22  24
ENDBRANCH   9  18
TORSDOF 5
ENDMDL
