MODEL 1
REMARK VINA RESULT:      -9.0      0.000      0.000
REMARK  Name = 
REMARK  8 active torsions:
REMARK  status: ('A' for Active; 'I' for Inactive)
REMARK    1  A    between atoms: C_2  and  C_7
REMARK    2  A    between atoms: N_3  and  C_4
REMARK    3  A    between atoms: C_4  and  C_5
REMARK    4  A    between atoms: C_5  and  O_6
REMARK    5  A    between atoms: C_11  and  C_12
REMARK    6  A    between atoms: C_19  and  C_20
REMARK    7  A    between atoms: C_20  and  C_21
REMARK    8  A    between atoms: C_25  and  C_26
REMARK                            x       y       z     vdW  Elec       q    Type
REMARK                         _______ _______ _______ _____ _____    ______ ____
ROOT
ATOM      1  C   UNL     1       2.470   5.477  18.887  0.00  0.00    +0.000 A 
ATOM      2  C   UNL     1       1.659   4.443  19.428  0.00  0.00    +0.000 A 
ATOM      3  C   UNL     1       1.964   3.075  19.298  0.00  0.00    +0.000 A 
ATOM      4  C   UNL     1       3.076   2.680  18.577  0.00  0.00    +0.000 A 
ATOM      5  C   UNL     1       3.864   3.673  18.038  0.00  0.00    +0.000 A 
ATOM      6  C   UNL     1       3.615   5.042  18.210  0.00  0.00    +0.000 A 
ATOM      7  C   UNL     1       4.795   5.747  17.615  0.00  0.00    +0.000 C 
ATOM      8  C   UNL     1       5.201   4.666  16.596  0.00  0.00    +0.000 C 
ATOM      9  O   UNL     1       4.957   3.397  17.255  0.00  0.00    +0.000 OA
ENDROOT
BRANCH   1  14
ATOM     10  C   UNL     1       1.331   8.827  20.342  0.00  0.00    +0.000 A 
ATOM     11  C   UNL     1       1.403   9.661  19.223  0.00  0.00    +0.000 A 
ATOM     12  C   UNL     1       1.747   9.118  17.990  0.00  0.00    +0.000 A 
ATOM     13  C   UNL     1       2.015   7.748  17.878  0.00  0.00    +0.000 A 
ATOM     14  C   UNL     1       2.002   6.885  18.997  0.00  0.00    +0.000 A 
ATOM     15  C   UNL     1       1.658   7.465  20.230  0.00  0.00    +0.000 A 
BRANCH  10  17
ATOM     16  O   UNL     1       1.774   9.368  22.596  0.00  0.00    +0.000 OA
ATOM     17  C   UNL     1       0.958   9.362  21.680  0.00  0.00    +0.000 C 
ATOM     18  N   UNL     1      -0.338   9.812  21.817  0.00  0.00    +0.000 N 
ATOM     19  H   UNL     1      -1.011   9.645  21.080  0.00  0.00    +0.000 HD
BRANCH  18  20
ATOM     20  C   UNL     1      -0.846  10.286  23.097  0.00  0.00    +0.000 C 
BRANCH  20  21
ATOM     21  C   UNL     1      -1.413  11.700  22.996  0.00  0.00    +0.000 C 
BRANCH  21  22
ATOM     22  O   UNL     1      -0.380  12.614  22.630  0.00  0.00    +0.000 OA
ATOM     23  H   UNL     1       0.395  12.065  22.419  0.00  0.00    +0.000 HD
ENDBRANCH  21  22
ENDBRANCH  20  21
ENDBRANCH  18  20
ENDBRANCH  10  17
ENDBRANCH   1  14
BRANCH   8  24
ATOM     24  C   UNL     1       6.661   4.724  16.135  0.00  0.00    +0.000 C 
BRANCH  24  25
ATOM     25  C   UNL     1       6.782   4.626  14.623  0.00  0.00    +0.000 A 
ATOM     26  C   UNL     1       7.838   5.243  13.940  0.00  0.00    +0.000 A 
ATOM     27  C   UNL     1       7.920   5.173  12.547  0.00  0.00    +0.000 A 
ATOM     28  C   UNL     1       6.944   4.496  11.816  0.00  0.00    +0.000 A 
ATOM     29  C   UNL     1       5.868   3.879  12.473  0.00  0.00    +0.000 A 
ATOM     30  C   UNL     1       5.800   3.950  13.873  0.00  0.00    +0.000 A 
BRANCH  29  31
ATOM     31  C   UNL     1       4.791   3.155  11.704  0.00  0.00    +0.000 C 
ATOM     32  F   UNL     1       5.169   1.923  11.258  0.00  0.00    +0.000 F 
ATOM     33  F   UNL     1       3.668   2.949  12.449  0.00  0.00    +0.000 F 
ATOM     34  F   UNL     1       4.382   3.837  10.597  0.00  0.00    +0.000 F 
ENDBRANCH  29  31
ENDBRANCH  24  25
ENDBRANCH   8  24
TORSDOF 8
ENDMDL
MODEL 2
REMARK VINA RESULT:      -8.9      5.000      9.366
REMARK  Name = 
REMARK  8 active torsions:
REMARK  status: ('A' for Active; 'I' for Inactive)
REMARK    1  A    between atoms: C_2  and  C_7
REMARK    2  A    between atoms: N_3  and  C_4
REMARK    3  A    between atoms: C_4  and  C_5
REMARK    4  A    between atoms: C_5  and  O_6
REMARK    5  A    between atoms: C_11  and  C_12
REMARK    6  A    between atoms: C_19  and  C_20
REMARK    7  A    between atoms: C_20  and  C_21
REMARK    8  A    between atoms: C_25  and  C_26
REMARK                            x       y       z     vdW  Elec       q    Type
REMARK                         _______ _______ _______ _____ _____    ______ ____
ROOT
ATOM      1  C   UNL     1       3.535   3.831  18.170  0.00  0.00    +0.000 A 
ATOM      2  C   UNL     1       2.924   2.587  17.855  0.00  0.00    +0.000 A 
ATOM      3  C   UNL     1       1.649   2.214  18.318  0.00  0.00    +0.000 A 
ATOM      4  C   UNL     1       0.944   3.057  19.159  0.00  0.00    +0.000 A 
ATOM      5  C   UNL     1       1.531   4.261  19.481  0.00  0.00    +0.000 A 
ATOM      6  C   UNL     1       2.771   4.681  18.979  0.00  0.00    +0.000 A 
ATOM      7  C   UNL     1       2.939   6.096  19.440  0.00  0.00    +0.000 C 
ATOM      8  C   UNL     1       2.060   6.017  20.702  0.00  0.00    +0.000 C 
ATOM      9  O   UNL     1       0.951   5.149  20.352  0.00  0.00    +0.000 OA
ENDROOT
BRANCH   1  14
ATOM     10  C   UNL     1       6.559   4.485  15.919  0.00  0.00    +0.000 A 
ATOM     11  C   UNL     1       7.529   4.861  16.852  0.00  0.00    +0.000 A 
ATOM     12  C   UNL     1       7.221   4.828  18.207  0.00  0.00    +0.000 A 
ATOM     13  C   UNL     1       5.949   4.419  18.626  0.00  0.00    +0.000 A 
ATOM     14  C   UNL     1       4.928   4.082  17.710  0.00  0.00    +0.000 A 
ATOM     15  C   UNL     1       5.268   4.132  16.348  0.00  0.00    +0.000 A 
BRANCH  10  17
ATOM     16  O   UNL     1       7.599   5.336  13.980  0.00  0.00    +0.000 OA
ATOM     17  C   UNL     1       6.846   4.496  14.458  0.00  0.00    +0.000 C 
ATOM     18  N   UNL     1       6.203   3.536  13.704  0.00  0.00    +0.000 N 
ATOM     19  H   UNL     1       5.479   2.967  14.122  0.00  0.00    +0.000 HD
BRANCH  18  20
ATOM     20  C   UNL     1       6.341   3.493  12.255  0.00  0.00    +0.000 C 
BRANCH  20  21
ATOM     21  C   UNL     1       5.487   2.387  11.636  0.00  0.00    +0.000 C 
BRANCH  21  22
ATOM     22  O   UNL     1       6.273   1.209  11.454  0.00  0.00    +0.000 OA
ATOM     23  H   UNL     1       6.974   1.455  10.826  0.00  0.00    +0.000 HD
ENDBRANCH  21  22
ENDBRANCH  20  21
ENDBRANCH  18  20
ENDBRANCH  10  17
ENDBRANCH   1  14
BRANCH   8  24
ATOM     24  C   UNL     1       1.513   7.360  21.198  0.00  0.00    +0.000 C 
BRANCH  24  25
ATOM     25  C   UNL     1       1.233   8.315  20.048  0.00  0.00    +0.000 A 
ATOM     26  C   UNL     1       2.017   8.299  18.887  0.00  0.00    +0.000 A 
ATOM     27  C   UNL     1       1.771   9.204  17.851  0.00  0.00    +0.000 A 
ATOM     28  C   UNL     1       0.747  10.144  17.965  0.00  0.00    +0.000 A 
ATOM     29  C   UNL     1      -0.046  10.191  19.122  0.00  0.00    +0.000 A 
ATOM     30  C   UNL     1       0.206   9.273  20.152  0.00  0.00    +0.000 A 
BRANCH  29  31
ATOM     31  C   UNL     1      -1.148  11.210  19.276  0.00  0.00    +0.000 C 
ATOM     32  F   UNL     1      -2.352  10.793  18.786  0.00  0.00    +0.000 F 
ATOM     33  F   UNL     1      -1.375  11.539  20.579  0.00  0.00    +0.000 F 
ATOM     34  F   UNL     1      -0.878  12.383  18.638  0.00  0.00    +0.000 F 
ENDBRANCH  29  31
ENDBRANCH  24  25
ENDBRANCH   8  24
TORSDOF 8
ENDMDL
MODEL 3
REMARK VINA RESULT:      -8.7      1.925      2.521
REMARK  Name = 
REMARK  8 active torsions:
REMARK  status: ('A' for Active; 'I' for Inactive)
REMARK    1  A    between atoms: C_2  and  C_7
REMARK    2  A    between atoms: N_3  and  C_4
REMARK    3  A    between atoms: C_4  and  C_5
REMARK    4  A    between atoms: C_5  and  O_6
REMARK    5  A    between atoms: C_11  and  C_12
REMARK    6  A    between atoms: C_19  and  C_20
REMARK    7  A    between atoms: C_20  and  C_21
REMARK    8  A    between atoms: C_25  and  C_26
REMARK                            x       y       z     vdW  Elec       q    Type
REMARK                         _______ _______ _______ _____ _____    ______ ____
ROOT
ATOM      1  C   UNL     1       2.277   5.085  18.935  0.00  0.00    +0.000 A 
ATOM      2  C   UNL     1       1.315   4.044  19.052  0.00  0.00    +0.000 A 
ATOM      3  C   UNL     1       1.456   2.790  18.429  0.00  0.00    +0.000 A 
ATOM      4  C   UNL     1       2.551   2.538  17.622  0.00  0.00    +0.000 A 
ATOM      5  C   UNL     1       3.484   3.542  17.493  0.00  0.00    +0.000 A 
ATOM      6  C   UNL     1       3.397   4.775  18.155  0.00  0.00    +0.000 A 
ATOM      7  C   UNL     1       4.686   5.481  17.871  0.00  0.00    +0.000 C 
ATOM      8  C   UNL     1       5.013   4.801  16.529  0.00  0.00    +0.000 C 
ATOM      9  O   UNL     1       4.578   3.425  16.672  0.00  0.00    +0.000 OA
ENDROOT
BRANCH   1  14
ATOM     10  C   UNL     1       1.578   8.822  19.367  0.00  0.00    +0.000 A 
ATOM     11  C   UNL     1       1.114   8.872  20.684  0.00  0.00    +0.000 A 
ATOM     12  C   UNL     1       1.103   7.710  21.447  0.00  0.00    +0.000 A 
ATOM     13  C   UNL     1       1.554   6.505  20.895  0.00  0.00    +0.000 A 
ATOM     14  C   UNL     1       1.980   6.406  19.552  0.00  0.00    +0.000 A 
ATOM     15  C   UNL     1       1.974   7.596  18.805  0.00  0.00    +0.000 A 
BRANCH  10  17
ATOM     16  O   UNL     1       2.237  10.041  17.457  0.00  0.00    +0.000 OA
ATOM     17  C   UNL     1       1.617  10.042  18.515  0.00  0.00    +0.000 C 
ATOM     18  N   UNL     1       0.948  11.146  19.001  0.00  0.00    +0.000 N 
ATOM     19  H   UNL     1       0.583  11.140  19.944  0.00  0.00    +0.000 HD
BRANCH  18  20
ATOM     20  C   UNL     1       0.978  12.422  18.298  0.00  0.00    +0.000 C 
BRANCH  20  21
ATOM     21  C   UNL     1       2.230  13.229  18.640  0.00  0.00    +0.000 C 
BRANCH  21  22
ATOM     22  O   UNL     1       3.182  13.123  17.581  0.00  0.00    +0.000 OA
ATOM     23  H   UNL     1       3.060  12.234  17.206  0.00  0.00    +0.000 HD
ENDBRANCH  21  22
ENDBRANCH  20  21
ENDBRANCH  18  20
ENDBRANCH  10  17
ENDBRANCH   1  14
BRANCH   8  24
ATOM     24  C   UNL     1       6.494   4.824  16.133  0.00  0.00    +0.000 C 
BRANCH  24  25
ATOM     25  C   UNL     1       6.680   4.687  14.630  0.00  0.00    +0.000 A 
ATOM     26  C   UNL     1       7.792   5.245  13.986  0.00  0.00    +0.000 A 
ATOM     27  C   UNL     1       7.936   5.141  12.600  0.00  0.00    +0.000 A 
ATOM     28  C   UNL     1       6.966   4.488  11.838  0.00  0.00    +0.000 A 
ATOM     29  C   UNL     1       5.837   3.930  12.455  0.00  0.00    +0.000 A 
ATOM     30  C   UNL     1       5.707   4.035  13.848  0.00  0.00    +0.000 A 
BRANCH  29  31
ATOM     31  C   UNL     1       4.767   3.235  11.651  0.00  0.00    +0.000 C 
ATOM     32  F   UNL     1       3.621   2.999  12.352  0.00  0.00    +0.000 F 
ATOM     33  F   UNL     1       4.388   3.953  10.556  0.00  0.00    +0.000 F 
ATOM     34  F   UNL     1       5.165   2.020  11.179  0.00  0.00    +0.000 F 
ENDBRANCH  29  31
ENDBRANCH  24  25
ENDBRANCH   8  24
TORSDOF 8
ENDMDL
MODEL 4
REMARK VINA RESULT:      -8.6      5.045      7.338
REMARK  Name = 
REMARK  8 active torsions:
REMARK  status: ('A' for Active; 'I' for Inactive)
REMARK    1  A    between atoms: C_2  and  C_7
REMARK    2  A    between atoms: N_3  and  C_4
REMARK    3  A    between atoms: C_4  and  C_5
REMARK    4  A    between atoms: C_5  and  O_6
REMARK    5  A    between atoms: C_11  and  C_12
REMARK    6  A    between atoms: C_19  and  C_20
REMARK    7  A    between atoms: C_20  and  C_21
REMARK    8  A    between atoms: C_25  and  C_26
REMARK                            x       y       z     vdW  Elec       q    Type
REMARK                         _______ _______ _______ _____ _____    ______ ____
ROOT
ATOM      1  C   UNL     1      -1.169  10.594  19.016  0.00  0.00    +0.000 A 
ATOM      2  C   UNL     1      -1.396  11.183  20.290  0.00  0.00    +0.000 A 
ATOM      3  C   UNL     1      -0.473  11.111  21.349  0.00  0.00    +0.000 A 
ATOM      4  C   UNL     1       0.705  10.404  21.193  0.00  0.00    +0.000 A 
ATOM      5  C   UNL     1       0.932   9.819  19.967  0.00  0.00    +0.000 A 
ATOM      6  C   UNL     1       0.056   9.933  18.877  0.00  0.00    +0.000 A 
ATOM      7  C   UNL     1       0.766   9.304  17.718  0.00  0.00    +0.000 C 
ATOM      8  C   UNL     1       1.657   8.331  18.513  0.00  0.00    +0.000 C 
ATOM      9  O   UNL     1       2.037   9.046  19.717  0.00  0.00    +0.000 OA
ENDROOT
BRANCH   1  14
ATOM     10  C   UNL     1      -4.507  11.325  17.295  0.00  0.00    +0.000 A 
ATOM     11  C   UNL     1      -4.214  11.010  15.965  0.00  0.00    +0.000 A 
ATOM     12  C   UNL     1      -2.964  10.492  15.647  0.00  0.00    +0.000 A 
ATOM     13  C   UNL     1      -2.013  10.289  16.655  0.00  0.00    +0.000 A 
ATOM     14  C   UNL     1      -2.256  10.644  18.000  0.00  0.00    +0.000 A 
ATOM     15  C   UNL     1      -3.526  11.172  18.289  0.00  0.00    +0.000 A 
BRANCH  10  17
ATOM     16  O   UNL     1      -6.737  11.122  18.039  0.00  0.00    +0.000 OA
ATOM     17  C   UNL     1      -5.836  11.873  17.684  0.00  0.00    +0.000 C 
ATOM     18  N   UNL     1      -5.980  13.241  17.594  0.00  0.00    +0.000 N 
ATOM     19  H   UNL     1      -5.259  13.797  17.153  0.00  0.00    +0.000 HD
BRANCH  18  20
ATOM     20  C   UNL     1      -7.254  13.890  17.872  0.00  0.00    +0.000 C 
BRANCH  20  21
ATOM     21  C   UNL     1      -7.807  14.607  16.642  0.00  0.00    +0.000 C 
BRANCH  21  22
ATOM     22  O   UNL     1      -6.736  15.166  15.881  0.00  0.00    +0.000 OA
ATOM     23  H   UNL     1      -5.951  15.107  16.451  0.00  0.00    +0.000 HD
ENDBRANCH  21  22
ENDBRANCH  20  21
ENDBRANCH  18  20
ENDBRANCH  10  17
ENDBRANCH   1  14
BRANCH   8  24
ATOM     24  C   UNL     1       2.920   7.863  17.782  0.00  0.00    +0.000 C 
BRANCH  24  25
ATOM     25  C   UNL     1       3.152   6.371  17.953  0.00  0.00    +0.000 A 
ATOM     26  C   UNL     1       4.317   5.760  17.467  0.00  0.00    +0.000 A 
ATOM     27  C   UNL     1       4.504   4.381  17.601  0.00  0.00    +0.000 A 
ATOM     28  C   UNL     1       3.527   3.593  18.211  0.00  0.00    +0.000 A 
ATOM     29  C   UNL     1       2.347   4.176  18.695  0.00  0.00    +0.000 A 
ATOM     30  C   UNL     1       2.173   5.562  18.561  0.00  0.00    +0.000 A 
BRANCH  29  31
ATOM     31  C   UNL     1       1.268   3.343  19.342  0.00  0.00    +0.000 C 
ATOM     32  F   UNL     1       0.434   2.737  18.450  0.00  0.00    +0.000 F 
ATOM     33  F   UNL     1       1.777   2.338  20.111  0.00  0.00    +0.000 F 
ATOM     34  F   UNL     1       0.462   4.069  20.166  0.00  0.00    +0.000 F 
ENDBRANCH  29  31
ENDBRANCH  24  25
ENDBRANCH   8  24
TORSDOF 8
ENDMDL
MODEL 5
REMARK VINA RESULT:      -8.5      5.250     10.162
REMARK  Name = 
REMARK  8 active torsions:
REMARK  status: ('A' for Active; 'I' for Inactive)
REMARK    1  A    between atoms: C_2  and  C_7
REMARK    2  A    between atoms: N_3  and  C_4
REMARK    3  A    between atoms: C_4  and  C_5
REMARK    4  A    between atoms: C_5  and  O_6
REMARK    5  A    between atoms: C_11  and  C_12
REMARK    6  A    between atoms: C_19  and  C_20
REMARK    7  A    between atoms: C_20  and  C_21
REMARK    8  A    between atoms: C_25  and  C_26
REMARK                            x       y       z     vdW  Elec       q    Type
REMARK                         _______ _______ _______ _____ _____    ______ ____
ROOT
ATOM      1  C   UNL     1       3.812   4.321  18.378  0.00  0.00    +0.000 A 
ATOM      2  C   UNL     1       3.288   3.063  18.782  0.00  0.00    +0.000 A 
ATOM      3  C   UNL     1       2.050   2.916  19.434  0.00  0.00    +0.000 A 
ATOM      4  C   UNL     1       1.299   4.034  19.753  0.00  0.00    +0.000 A 
ATOM      5  C   UNL     1       1.802   5.259  19.376  0.00  0.00    +0.000 A 
ATOM      6  C   UNL     1       3.002   5.424  18.668  0.00  0.00    +0.000 A 
ATOM      7  C   UNL     1       3.073   6.879  18.323  0.00  0.00    +0.000 C 
ATOM      8  C   UNL     1       2.222   7.419  19.486  0.00  0.00    +0.000 C 
ATOM      9  O   UNL     1       1.173   6.437  19.691  0.00  0.00    +0.000 OA
ENDROOT
BRANCH   1  14
ATOM     10  C   UNL     1       6.672   4.572  15.848  0.00  0.00    +0.000 A 
ATOM     11  C   UNL     1       7.773   4.772  16.685  0.00  0.00    +0.000 A 
ATOM     12  C   UNL     1       7.594   4.748  18.064  0.00  0.00    +0.000 A 
ATOM     13  C   UNL     1       6.320   4.524  18.601  0.00  0.00    +0.000 A 
ATOM     14  C   UNL     1       5.177   4.371  17.786  0.00  0.00    +0.000 A 
ATOM     15  C   UNL     1       5.389   4.406  16.398  0.00  0.00    +0.000 A 
BRANCH  10  17
ATOM     16  O   UNL     1       7.373   5.515  13.802  0.00  0.00    +0.000 OA
ATOM     17  C   UNL     1       6.816   4.580  14.367  0.00  0.00    +0.000 C 
ATOM     18  N   UNL     1       6.272   3.504  13.696  0.00  0.00    +0.000 N 
ATOM     19  H   UNL     1       5.694   2.840  14.193  0.00  0.00    +0.000 HD
BRANCH  18  20
ATOM     20  C   UNL     1       6.280   3.435  12.241  0.00  0.00    +0.000 C 
BRANCH  20  21
ATOM     21  C   UNL     1       5.201   2.492  11.712  0.00  0.00    +0.000 C 
BRANCH  21  22
ATOM     22  O   UNL     1       4.065   3.243  11.283  0.00  0.00    +0.000 OA
ATOM     23  H   UNL     1       4.416   3.944  10.707  0.00  0.00    +0.000 HD
ENDBRANCH  21  22
ENDBRANCH  20  21
ENDBRANCH  18  20
ENDBRANCH  10  17
ENDBRANCH   1  14
BRANCH   8  24
ATOM     24  C   UNL     1       1.587   8.793  19.243  0.00  0.00    +0.000 C 
BRANCH  24  25
ATOM     25  C   UNL     1       0.930   9.343  20.499  0.00  0.00    +0.000 A 
ATOM     26  C   UNL     1       1.188   8.779  21.756  0.00  0.00    +0.000 A 
ATOM     27  C   UNL     1       0.552   9.272  22.899  0.00  0.00    +0.000 A 
ATOM     28  C   UNL     1      -0.356  10.327  22.801  0.00  0.00    +0.000 A 
ATOM     29  C   UNL     1      -0.642  10.902  21.554  0.00  0.00    +0.000 A 
ATOM     30  C   UNL     1       0.007  10.403  20.414  0.00  0.00    +0.000 A 
BRANCH  29  31
ATOM     31  C   UNL     1      -1.634  12.031  21.420  0.00  0.00    +0.000 C 
ATOM     32  F   UNL     1      -2.690  11.938  22.278  0.00  0.00    +0.000 F 
ATOM     33  F   UNL     1      -1.071  13.250  21.659  0.00  0.00    +0.000 F 
ATOM     34  F   UNL     1      -2.179  12.112  20.173  0.00  0.00    +0.000 F 
ENDBRANCH  29  31
ENDBRANCH  24  25
ENDBRANCH   8  24
TORSDOF 8
ENDMDL
MODEL 6
REMARK VINA RESULT:      -8.5      5.298     10.303
REMARK  Name = 
REMARK  8 active torsions:
REMARK  status: ('A' for Active; 'I' for Inactive)
REMARK    1  A    between atoms: C_2  and  C_7
REMARK    2  A    between atoms: N_3  and  C_4
REMARK    3  A    between atoms: C_4  and  C_5
REMARK    4  A    between atoms: C_5  and  O_6
REMARK    5  A    between atoms: C_11  and  C_12
REMARK    6  A    between atoms: C_19  and  C_20
REMARK    7  A    between atoms: C_20  and  C_21
REMARK    8  A    between atoms: C_25  and  C_26
REMARK                            x       y       z     vdW  Elec       q    Type
REMARK                         _______ _______ _______ _____ _____    ______ ____
ROOT
ATOM      1  C   UNL     1       3.789   4.508  19.011  0.00  0.00    +0.000 A 
ATOM      2  C   UNL     1       3.392   3.274  19.593  0.00  0.00    +0.000 A 
ATOM      3  C   UNL     1       2.228   3.126  20.369  0.00  0.00    +0.000 A 
ATOM      4  C   UNL     1       1.429   4.224  20.634  0.00  0.00    +0.000 A 
ATOM      5  C   UNL     1       1.809   5.428  20.084  0.00  0.00    +0.000 A 
ATOM      6  C   UNL     1       2.930   5.585  19.255  0.00  0.00    +0.000 A 
ATOM      7  C   UNL     1       2.868   6.994  18.750  0.00  0.00    +0.000 C 
ATOM      8  C   UNL     1       2.082   7.608  19.923  0.00  0.00    +0.000 C 
ATOM      9  O   UNL     1       1.127   6.594  20.328  0.00  0.00    +0.000 OA
ENDROOT
BRANCH   1  14
ATOM     10  C   UNL     1       6.395   4.762  16.220  0.00  0.00    +0.000 A 
ATOM     11  C   UNL     1       7.564   5.009  16.946  0.00  0.00    +0.000 A 
ATOM     12  C   UNL     1       7.514   5.016  18.336  0.00  0.00    +0.000 A 
ATOM     13  C   UNL     1       6.301   4.776  18.994  0.00  0.00    +0.000 A 
ATOM     14  C   UNL     1       5.092   4.575  18.293  0.00  0.00    +0.000 A 
ATOM     15  C   UNL     1       5.173   4.580  16.891  0.00  0.00    +0.000 A 
BRANCH  10  17
ATOM     16  O   UNL     1       7.142   5.481  14.101  0.00  0.00    +0.000 OA
ATOM     17  C   UNL     1       6.402   4.734  14.732  0.00  0.00    +0.000 C 
ATOM     18  N   UNL     1       5.524   3.854  14.135  0.00  0.00    +0.000 N 
ATOM     19  H   UNL     1       4.831   3.374  14.695  0.00  0.00    +0.000 HD
BRANCH  18  20
ATOM     20  C   UNL     1       5.381   3.790  12.687  0.00  0.00    +0.000 C 
BRANCH  20  21
ATOM     21  C   UNL     1       6.390   2.831  12.058  0.00  0.00    +0.000 C 
BRANCH  21  22
ATOM     22  O   UNL     1       5.735   1.626  11.662  0.00  0.00    +0.000 OA
ATOM     23  H   UNL     1       5.584   1.711  10.705  0.00  0.00    +0.000 HD
ENDBRANCH  21  22
ENDBRANCH  20  21
ENDBRANCH  18  20
ENDBRANCH  10  17
ENDBRANCH   1  14
BRANCH   8  24
ATOM     24  C   UNL     1       1.332   8.904  19.594  0.00  0.00    +0.000 C 
BRANCH  24  25
ATOM     25  C   UNL     1       0.632   9.479  20.815  0.00  0.00    +0.000 A 
ATOM     26  C   UNL     1       0.806   8.908  22.083  0.00  0.00    +0.000 A 
ATOM     27  C   UNL     1       0.131   9.424  23.193  0.00  0.00    +0.000 A 
ATOM     28  C   UNL     1      -0.734  10.509  23.050  0.00  0.00    +0.000 A 
ATOM     29  C   UNL     1      -0.936  11.092  21.790  0.00  0.00    +0.000 A 
ATOM     30  C   UNL     1      -0.248  10.570  20.684  0.00  0.00    +0.000 A 
BRANCH  29  31
ATOM     31  C   UNL     1      -1.880  12.255  21.606  0.00  0.00    +0.000 C 
ATOM     32  F   UNL     1      -1.248  13.451  21.432  0.00  0.00    +0.000 F 
ATOM     33  F   UNL     1      -2.689  12.104  20.519  0.00  0.00    +0.000 F 
ATOM     34  F   UNL     1      -2.715  12.432  22.669  0.00  0.00    +0.000 F 
ENDBRANCH  29  31
ENDBRANCH  24  25
ENDBRANCH   8  24
TORSDOF 8
ENDMDL
MODEL 7
REMARK VINA RESULT:      -8.5      6.058     11.499
REMARK  Name = 
REMARK  8 active torsions:
REMARK  status: ('A' for Active; 'I' for Inactive)
REMARK    1  A    between atoms: C_2  and  C_7
REMARK    2  A    between atoms: N_3  and  C_4
REMARK    3  A    between atoms: C_4  and  C_5
REMARK    4  A    between atoms: C_5  and  O_6
REMARK    5  A    between atoms: C_11  and  C_12
REMARK    6  A    between atoms: C_19  and  C_20
REMARK    7  A    between atoms: C_20  and  C_21
REMARK    8  A    between atoms: C_25  and  C_26
REMARK                            x       y       z     vdW  Elec       q    Type
REMARK                         _______ _______ _______ _____ _____    ______ ____
ROOT
ATOM      1  C   UNL     1       1.909   7.943  19.289  0.00  0.00    +0.000 A 
ATOM      2  C   UNL     1       2.240   8.548  18.046  0.00  0.00    +0.000 A 
ATOM      3  C   UNL     1       1.953   9.891  17.740  0.00  0.00    +0.000 A 
ATOM      4  C   UNL     1       1.278  10.680  18.655  0.00  0.00    +0.000 A 
ATOM      5  C   UNL     1       0.943  10.102  19.859  0.00  0.00    +0.000 A 
ATOM      6  C   UNL     1       1.276   8.785  20.210  0.00  0.00    +0.000 A 
ATOM      7  C   UNL     1       0.878   8.634  21.646  0.00  0.00    +0.000 C 
ATOM      8  C   UNL     1      -0.240   9.693  21.673  0.00  0.00    +0.000 C 
ATOM      9  O   UNL     1       0.222  10.770  20.817  0.00  0.00    +0.000 OA
ENDROOT
BRANCH   1  14
ATOM     10  C   UNL     1       3.274   4.404  18.792  0.00  0.00    +0.000 A 
ATOM     11  C   UNL     1       2.902   3.786  19.989  0.00  0.00    +0.000 A 
ATOM     12  C   UNL     1       2.147   4.496  20.915  0.00  0.00    +0.000 A 
ATOM     13  C   UNL     1       1.765   5.816  20.644  0.00  0.00    +0.000 A 
ATOM     14  C   UNL     1       2.167   6.489  19.469  0.00  0.00    +0.000 A 
ATOM     15  C   UNL     1       2.935   5.747  18.555  0.00  0.00    +0.000 A 
BRANCH  10  17
ATOM     16  O   UNL     1       4.035   2.457  17.697  0.00  0.00    +0.000 OA
ATOM     17  C   UNL     1       4.074   3.680  17.766  0.00  0.00    +0.000 C 
ATOM     18  N   UNL     1       4.858   4.462  16.942  0.00  0.00    +0.000 N 
ATOM     19  H   UNL     1       4.970   5.447  17.139  0.00  0.00    +0.000 HD
BRANCH  18  20
ATOM     20  C   UNL     1       5.745   3.867  15.951  0.00  0.00    +0.000 C 
BRANCH  20  21
ATOM     21  C   UNL     1       7.099   4.573  15.905  0.00  0.00    +0.000 C 
BRANCH  21  22
ATOM     22  O   UNL     1       7.917   4.128  16.987  0.00  0.00    +0.000 OA
ATOM     23  H   UNL     1       8.347   4.927  17.337  0.00  0.00    +0.000 HD
ENDBRANCH  21  22
ENDBRANCH  20  21
ENDBRANCH  18  20
ENDBRANCH  10  17
ENDBRANCH   1  14
BRANCH   8  24
ATOM     24  C   UNL     1      -0.568  10.255  23.060  0.00  0.00    +0.000 C 
BRANCH  24  25
ATOM     25  C   UNL     1      -1.297  11.587  22.973  0.00  0.00    +0.000 A 
ATOM     26  C   UNL     1      -0.647  12.737  22.506  0.00  0.00    +0.000 A 
ATOM     27  C   UNL     1      -1.318  13.963  22.461  0.00  0.00    +0.000 A 
ATOM     28  C   UNL     1      -2.641  14.058  22.892  0.00  0.00    +0.000 A 
ATOM     29  C   UNL     1      -3.312  12.925  23.376  0.00  0.00    +0.000 A 
ATOM     30  C   UNL     1      -2.631  11.699  23.410  0.00  0.00    +0.000 A 
BRANCH  29  31
ATOM     31  C   UNL     1      -4.738  13.006  23.863  0.00  0.00    +0.000 C 
ATOM     32  F   UNL     1      -5.657  12.614  22.936  0.00  0.00    +0.000 F 
ATOM     33  F   UNL     1      -4.960  12.223  24.957  0.00  0.00    +0.000 F 
ATOM     34  F   UNL     1      -5.101  14.268  24.230  0.00  0.00    +0.000 F 
ENDBRANCH  29  31
ENDBRANCH  24  25
ENDBRANCH   8  24
TORSDOF 8
ENDMDL
MODEL 8
REMARK VINA RESULT:      -8.3      4.609      6.899
REMARK  Name = 
REMARK  8 active torsions:
REMARK  status: ('A' for Active; 'I' for Inactive)
REMARK    1  A    between atoms: C_2  and  C_7
REMARK    2  A    between atoms: N_3  and  C_4
REMARK    3  A    between atoms: C_4  and  C_5
REMARK    4  A    between atoms: C_5  and  O_6
REMARK    5  A    between atoms: C_11  and  C_12
REMARK    6  A    between atoms: C_19  and  C_20
REMARK    7  A    between atoms: C_20  and  C_21
REMARK    8  A    between atoms: C_25  and  C_26
REMARK                            x       y       z     vdW  Elec       q    Type
REMARK                         _______ _______ _______ _____ _____    ______ ____
ROOT
ATOM      1  C   UNL     1      -1.055  10.345  18.948  0.00  0.00    +0.000 A 
ATOM      2  C   UNL     1      -1.311  10.887  20.237  0.00  0.00    +0.000 A 
ATOM      3  C   UNL     1      -0.408  10.782  21.311  0.00  0.00    +0.000 A 
ATOM      4  C   UNL     1       0.778  10.088  21.153  0.00  0.00    +0.000 A 
ATOM      5  C   UNL     1       1.032   9.549  19.911  0.00  0.00    +0.000 A 
ATOM      6  C   UNL     1       0.177   9.696  18.810  0.00  0.00    +0.000 A 
ATOM      7  C   UNL     1       0.913   9.113  17.643  0.00  0.00    +0.000 C 
ATOM      8  C   UNL     1       1.794   8.117  18.420  0.00  0.00    +0.000 C 
ATOM      9  O   UNL     1       2.147   8.791  19.656  0.00  0.00    +0.000 OA
ENDROOT
BRANCH   1  14
ATOM     10  C   UNL     1      -4.326  11.198  17.156  0.00  0.00    +0.000 A 
ATOM     11  C   UNL     1      -4.028  10.841  15.839  0.00  0.00    +0.000 A 
ATOM     12  C   UNL     1      -2.799  10.258  15.552  0.00  0.00    +0.000 A 
ATOM     13  C   UNL     1      -1.875  10.031  16.580  0.00  0.00    +0.000 A 
ATOM     14  C   UNL     1      -2.121  10.426  17.913  0.00  0.00    +0.000 A 
ATOM     15  C   UNL     1      -3.369  11.019  18.170  0.00  0.00    +0.000 A 
BRANCH  10  17
ATOM     16  O   UNL     1      -6.456  11.192  18.172  0.00  0.00    +0.000 OA
ATOM     17  C   UNL     1      -5.633  11.816  17.512  0.00  0.00    +0.000 C 
ATOM     18  N   UNL     1      -5.851  13.093  17.038  0.00  0.00    +0.000 N 
ATOM     19  H   UNL     1      -5.207  13.503  16.375  0.00  0.00    +0.000 HD
BRANCH  18  20
ATOM     20  C   UNL     1      -7.121  13.775  17.253  0.00  0.00    +0.000 C 
BRANCH  20  21
ATOM     21  C   UNL     1      -6.999  14.886  18.295  0.00  0.00    +0.000 C 
BRANCH  21  22
ATOM     22  O   UNL     1      -5.723  14.820  18.931  0.00  0.00    +0.000 OA
ATOM     23  H   UNL     1      -5.191  14.211  18.391  0.00  0.00    +0.000 HD
ENDBRANCH  21  22
ENDBRANCH  20  21
ENDBRANCH  18  20
ENDBRANCH  10  17
ENDBRANCH   1  14
BRANCH   8  24
ATOM     24  C   UNL     1       3.075   7.683  17.698  0.00  0.00    +0.000 C 
BRANCH  24  25
ATOM     25  C   UNL     1       3.514   6.289  18.116  0.00  0.00    +0.000 A 
ATOM     26  C   UNL     1       4.839   6.032  18.496  0.00  0.00    +0.000 A 
ATOM     27  C   UNL     1       5.238   4.739  18.846  0.00  0.00    +0.000 A 
ATOM     28  C   UNL     1       4.325   3.685  18.811  0.00  0.00    +0.000 A 
ATOM     29  C   UNL     1       2.996   3.912  18.423  0.00  0.00    +0.000 A 
ATOM     30  C   UNL     1       2.604   5.214  18.080  0.00  0.00    +0.000 A 
BRANCH  29  31
ATOM     31  C   UNL     1       1.994   2.785  18.362  0.00  0.00    +0.000 C 
ATOM     32  F   UNL     1       0.708   3.204  18.189  0.00  0.00    +0.000 F 
ATOM     33  F   UNL     1       2.242   1.923  17.335  0.00  0.00    +0.000 F 
ATOM     34  F   UNL     1       1.984   2.023  19.492  0.00  0.00    +0.000 F 
ENDBRANCH  29  31
ENDBRANCH  24  25
ENDBRANCH   8  24
TORSDOF 8
ENDMDL
MODEL 9
REMARK VINA RESULT:      -8.3      6.045     10.199
REMARK  Name = 
REMARK  8 active torsions:
REMARK  status: ('A' for Active; 'I' for Inactive)
REMARK    1  A    between atoms: C_2  and  C_7
REMARK    2  A    between atoms: N_3  and  C_4
REMARK    3  A    between atoms: C_4  and  C_5
REMARK    4  A    between atoms: C_5  and  O_6
REMARK    5  A    between atoms: C_11  and  C_12
REMARK    6  A    between atoms: C_19  and  C_20
REMARK    7  A    between atoms: C_20  and  C_21
REMARK    8  A    between atoms: C_25  and  C_26
REMARK                            x       y       z     vdW  Elec       q    Type
REMARK                         _______ _______ _______ _____ _____    ______ ____
ROOT
ATOM      1  C   UNL     1       0.808   8.881  20.906  0.00  0.00    +0.000 A 
ATOM      2  C   UNL     1       0.805   8.645  22.308  0.00  0.00    +0.000 A 
ATOM      3  C   UNL     1       0.118   9.460  23.226  0.00  0.00    +0.000 A 
ATOM      4  C   UNL     1      -0.563  10.579  22.783  0.00  0.00    +0.000 A 
ATOM      5  C   UNL     1      -0.558  10.825  21.428  0.00  0.00    +0.000 A 
ATOM      6  C   UNL     1       0.065   9.991  20.488  0.00  0.00    +0.000 A 
ATOM      7  C   UNL     1      -0.321  10.530  19.146  0.00  0.00    +0.000 C 
ATOM      8  C   UNL     1      -0.553  11.995  19.561  0.00  0.00    +0.000 C 
ATOM      9  O   UNL     1      -1.150  11.936  20.882  0.00  0.00    +0.000 OA
ENDROOT
BRANCH   1  14
ATOM     10  C   UNL     1       2.548   5.815  19.419  0.00  0.00    +0.000 A 
ATOM     11  C   UNL     1       3.011   6.316  18.200  0.00  0.00    +0.000 A 
ATOM     12  C   UNL     1       2.823   7.660  17.900  0.00  0.00    +0.000 A 
ATOM     13  C   UNL     1       2.177   8.499  18.817  0.00  0.00    +0.000 A 
ATOM     14  C   UNL     1       1.651   8.016  20.036  0.00  0.00    +0.000 A 
ATOM     15  C   UNL     1       1.850   6.652  20.307  0.00  0.00    +0.000 A 
BRANCH  10  17
ATOM     16  O   UNL     1       1.932   3.823  20.525  0.00  0.00    +0.000 OA
ATOM     17  C   UNL     1       2.735   4.384  19.787  0.00  0.00    +0.000 C 
ATOM     18  N   UNL     1       3.856   3.765  19.275  0.00  0.00    +0.000 N 
ATOM     19  H   UNL     1       4.561   4.311  18.799  0.00  0.00    +0.000 HD
BRANCH  18  20
ATOM     20  C   UNL     1       4.190   2.391  19.625  0.00  0.00    +0.000 C 
BRANCH  20  21
ATOM     21  C   UNL     1       3.665   1.397  18.591  0.00  0.00    +0.000 C 
BRANCH  21  22
ATOM     22  O   UNL     1       2.238   1.379  18.613  0.00  0.00    +0.000 OA
ATOM     23  H   UNL     1       1.984   1.739  19.480  0.00  0.00    +0.000 HD
ENDBRANCH  21  22
ENDBRANCH  20  21
ENDBRANCH  18  20
ENDBRANCH  10  17
ENDBRANCH   1  14
BRANCH   8  24
ATOM     24  C   UNL     1      -1.468  12.797  18.629  0.00  0.00    +0.000 C 
BRANCH  24  25
ATOM     25  C   UNL     1      -2.581  11.937  18.051  0.00  0.00    +0.000 A 
ATOM     26  C   UNL     1      -2.395  11.217  16.863  0.00  0.00    +0.000 A 
ATOM     27  C   UNL     1      -3.436  10.456  16.324  0.00  0.00    +0.000 A 
ATOM     28  C   UNL     1      -4.679  10.412  16.958  0.00  0.00    +0.000 A 
ATOM     29  C   UNL     1      -4.896  11.133  18.142  0.00  0.00    +0.000 A 
ATOM     30  C   UNL     1      -3.842  11.888  18.677  0.00  0.00    +0.000 A 
BRANCH  29  31
ATOM     31  C   UNL     1      -6.236  11.115  18.836  0.00  0.00    +0.000 C 
ATOM     32  F   UNL     1      -6.966   9.990  18.590  0.00  0.00    +0.000 F 
ATOM     33  F   UNL     1      -6.121  11.192  20.192  0.00  0.00    +0.000 F 
ATOM     34  F   UNL     1      -7.034  12.158  18.471  0.00  0.00    +0.000 F 
ENDBRANCH  29  31
ENDBRANCH  24  25
ENDBRANCH   8  24
TORSDOF 8
ENDMDL
