MODEL 1
REMARK VINA RESULT:      -7.3      0.000      0.000
REMARK  Name = 
REMARK  5 active torsions:
REMARK  status: ('A' for Active; 'I' for Inactive)
REMARK    1  A    between atoms: C_1  and  O_2
REMARK    2  A    between atoms: O_2  and  C_3
REMARK    3  A    between atoms: C_6  and  C_7
REMARK    4  A    between atoms: C_11  and  C_12
REMARK    5  A    between atoms: C_15  and  N_16
REMARK                            x       y       z     vdW  Elec       q    Type
REMARK                         _______ _______ _______ _____ _____    ______ ____
ROOT
ATOM      1  C   UNL     1       1.397   8.910  19.655  0.00  0.00    +0.000 A 
ATOM      2  C   UNL     1       1.552   9.454  18.380  0.00  0.00    +0.000 A 
ATOM      3  N   UNL     1       2.272   8.869  17.397  0.00  0.00    +0.000 NA
ATOM      4  C   UNL     1       2.833   7.686  17.738  0.00  0.00    +0.000 A 
ATOM      5  C   UNL     1       2.700   7.099  18.997  0.00  0.00    +0.000 A 
ATOM      6  N   UNL     1       1.966   7.711  19.965  0.00  0.00    +0.000 NA
ENDROOT
BRANCH   1  10
ATOM      7  C   UNL     1      -0.864  10.858  22.767  0.00  0.00    +0.000 A 
ATOM      8  C   UNL     1      -0.746  11.441  21.507  0.00  0.00    +0.000 A 
ATOM      9  C   UNL     1      -0.018  10.805  20.494  0.00  0.00    +0.000 A 
ATOM     10  C   UNL     1       0.633   9.580  20.723  0.00  0.00    +0.000 A 
ATOM     11  C   UNL     1       0.517   9.022  22.009  0.00  0.00    +0.000 A 
ATOM     12  C   UNL     1      -0.218   9.653  23.021  0.00  0.00    +0.000 A 
BRANCH   7  14
ATOM     13  C   UNL     1      -2.790  12.157  23.172  0.00  0.00    +0.000 C 
ATOM     14  O   UNL     1      -1.602  11.559  23.680  0.00  0.00    +0.000 OA
ENDBRANCH   7  14
ENDBRANCH   1  10
BRANCH   5  15
ATOM     15  C   UNL     1       3.288   5.784  19.320  0.00  0.00    +0.000 A 
ATOM     16  C   UNL     1       4.602   5.453  18.943  0.00  0.00    +0.000 A 
ATOM     17  C   UNL     1       5.113   4.165  19.137  0.00  0.00    +0.000 A 
ATOM     18  C   UNL     1       4.350   3.182  19.767  0.00  0.00    +0.000 A 
ATOM     19  C   UNL     1       3.046   3.497  20.147  0.00  0.00    +0.000 A 
ATOM     20  C   UNL     1       2.531   4.786  19.952  0.00  0.00    +0.000 A 
BRANCH  18  21
ATOM     21  N   UNL     1       4.797   1.859  19.789  0.00  0.00    +0.000 N 
ATOM     22  H   UNL     1       5.720   1.726  19.390  0.00  0.00    +0.000 HD
ATOM     23  H   UNL     1       4.694   1.404  20.692  0.00  0.00    +0.000 HD
ENDBRANCH  18  21
ENDBRANCH   5  15
TORSDOF 4
ENDMDL
MODEL 2
REMARK VINA RESULT:      -7.2      0.165      1.060
REMARK  Name = 
REMARK  5 active torsions:
REMARK  status: ('A' for Active; 'I' for Inactive)
REMARK    1  A    between atoms: C_1  and  O_2
REMARK    2  A    between atoms: O_2  and  C_3
REMARK    3  A    between atoms: C_6  and  C_7
REMARK    4  A    between atoms: C_11  and  C_12
REMARK    5  A    between atoms: C_15  and  N_16
REMARK                            x       y       z     vdW  Elec       q    Type
REMARK                         _______ _______ _______ _____ _____    ______ ____
ROOT
ATOM      1  C   UNL     1       1.386   8.888  19.549  0.00  0.00    +0.000 A 
ATOM      2  C   UNL     1       1.616   9.452  18.293  0.00  0.00    +0.000 A 
ATOM      3  N   UNL     1       2.404   8.888  17.351  0.00  0.00    +0.000 NA
ATOM      4  C   UNL     1       2.956   7.707  17.712  0.00  0.00    +0.000 A 
ATOM      5  C   UNL     1       2.750   7.101  18.952  0.00  0.00    +0.000 A 
ATOM      6  N   UNL     1       1.948   7.692  19.879  0.00  0.00    +0.000 NA
ENDROOT
BRANCH   1  10
ATOM      7  C   UNL     1      -1.046  10.795  22.557  0.00  0.00    +0.000 A 
ATOM      8  C   UNL     1      -0.365   9.613  22.842  0.00  0.00    +0.000 A 
ATOM      9  C   UNL     1       0.430   8.997  21.867  0.00  0.00    +0.000 A 
ATOM     10  C   UNL     1       0.546   9.535  20.574  0.00  0.00    +0.000 A 
ATOM     11  C   UNL     1      -0.168  10.717  20.304  0.00  0.00    +0.000 A 
ATOM     12  C   UNL     1      -0.958  11.338  21.280  0.00  0.00    +0.000 A 
BRANCH   7  14
ATOM     13  C   UNL     1      -2.791  12.248  23.193  0.00  0.00    +0.000 C 
ATOM     14  O   UNL     1      -1.788  11.314  23.581  0.00  0.00    +0.000 OA
ENDBRANCH   7  14
ENDBRANCH   1  10
BRANCH   5  15
ATOM     15  C   UNL     1       3.331   5.789  19.295  0.00  0.00    +0.000 A 
ATOM     16  C   UNL     1       4.639   5.440  18.912  0.00  0.00    +0.000 A 
ATOM     17  C   UNL     1       5.143   4.152  19.126  0.00  0.00    +0.000 A 
ATOM     18  C   UNL     1       4.379   3.188  19.783  0.00  0.00    +0.000 A 
ATOM     19  C   UNL     1       3.081   3.519  20.169  0.00  0.00    +0.000 A 
ATOM     20  C   UNL     1       2.574   4.808  19.954  0.00  0.00    +0.000 A 
BRANCH  18  21
ATOM     21  N   UNL     1       4.817   1.862  19.826  0.00  0.00    +0.000 N 
ATOM     22  H   UNL     1       4.134   1.212  20.199  0.00  0.00    +0.000 HD
ATOM     23  H   UNL     1       5.230   1.537  18.956  0.00  0.00    +0.000 HD
ENDBRANCH  18  21
ENDBRANCH   5  15
TORSDOF 4
ENDMDL
MODEL 3
REMARK VINA RESULT:      -7.2      0.251      1.056
REMARK  Name = 
REMARK  5 active torsions:
REMARK  status: ('A' for Active; 'I' for Inactive)
REMARK    1  A    between atoms: C_1  and  O_2
REMARK    2  A    between atoms: O_2  and  C_3
REMARK    3  A    between atoms: C_6  and  C_7
REMARK    4  A    between atoms: C_11  and  C_12
REMARK    5  A    between atoms: C_15  and  N_16
REMARK                            x       y       z     vdW  Elec       q    Type
REMARK                         _______ _______ _______ _____ _____    ______ ____
ROOT
ATOM      1  C   UNL     1       1.412   8.884  19.547  0.00  0.00    +0.000 A 
ATOM      2  C   UNL     1       1.677   9.519  18.334  0.00  0.00    +0.000 A 
ATOM      3  N   UNL     1       2.432   8.977  17.353  0.00  0.00    +0.000 NA
ATOM      4  C   UNL     1       2.914   7.743  17.630  0.00  0.00    +0.000 A 
ATOM      5  C   UNL     1       2.670   7.066  18.825  0.00  0.00    +0.000 A 
ATOM      6  N   UNL     1       1.903   7.637  19.793  0.00  0.00    +0.000 NA
ENDROOT
BRANCH   1  10
ATOM      7  C   UNL     1      -0.959  10.691  22.663  0.00  0.00    +0.000 A 
ATOM      8  C   UNL     1      -0.804  11.327  21.433  0.00  0.00    +0.000 A 
ATOM      9  C   UNL     1      -0.040  10.737  20.419  0.00  0.00    +0.000 A 
ATOM     10  C   UNL     1       0.610   9.506  20.617  0.00  0.00    +0.000 A 
ATOM     11  C   UNL     1       0.456   8.894  21.875  0.00  0.00    +0.000 A 
ATOM     12  C   UNL     1      -0.314   9.479  22.887  0.00  0.00    +0.000 A 
BRANCH   7  14
ATOM     13  C   UNL     1      -2.761  12.167  23.035  0.00  0.00    +0.000 C 
ATOM     14  O   UNL     1      -1.729  11.351  23.580  0.00  0.00    +0.000 OA
ENDBRANCH   7  14
ENDBRANCH   1  10
BRANCH   5  15
ATOM     15  C   UNL     1       3.174   5.702  19.074  0.00  0.00    +0.000 A 
ATOM     16  C   UNL     1       2.549   4.842  19.996  0.00  0.00    +0.000 A 
ATOM     17  C   UNL     1       3.100   3.599  20.324  0.00  0.00    +0.000 A 
ATOM     18  C   UNL     1       4.260   3.146  19.698  0.00  0.00    +0.000 A 
ATOM     19  C   UNL     1       4.891   3.986  18.781  0.00  0.00    +0.000 A 
ATOM     20  C   UNL     1       4.341   5.233  18.452  0.00  0.00    +0.000 A 
BRANCH  18  21
ATOM     21  N   UNL     1       4.899   1.994  20.163  0.00  0.00    +0.000 N 
ATOM     22  H   UNL     1       4.275   1.314  20.582  0.00  0.00    +0.000 HD
ATOM     23  H   UNL     1       5.535   1.576  19.489  0.00  0.00    +0.000 HD
ENDBRANCH  18  21
ENDBRANCH   5  15
TORSDOF 4
ENDMDL
MODEL 4
REMARK VINA RESULT:      -7.1      2.668      3.941
REMARK  Name = 
REMARK  5 active torsions:
REMARK  status: ('A' for Active; 'I' for Inactive)
REMARK    1  A    between atoms: C_1  and  O_2
REMARK    2  A    between atoms: O_2  and  C_3
REMARK    3  A    between atoms: C_6  and  C_7
REMARK    4  A    between atoms: C_11  and  C_12
REMARK    5  A    between atoms: C_15  and  N_16
REMARK                            x       y       z     vdW  Elec       q    Type
REMARK                         _______ _______ _______ _____ _____    ______ ____
ROOT
ATOM      1  C   UNL     1       2.439   6.396  19.752  0.00  0.00    +0.000 A 
ATOM      2  C   UNL     1       2.134   5.280  20.532  0.00  0.00    +0.000 A 
ATOM      3  N   UNL     1       2.696   4.064  20.352  0.00  0.00    +0.000 NA
ATOM      4  C   UNL     1       3.603   4.005  19.350  0.00  0.00    +0.000 A 
ATOM      5  C   UNL     1       3.946   5.095  18.549  0.00  0.00    +0.000 A 
ATOM      6  N   UNL     1       3.366   6.308  18.757  0.00  0.00    +0.000 NA
ENDROOT
BRANCH   1  10
ATOM      7  C   UNL     1       0.573  10.240  20.330  0.00  0.00    +0.000 A 
ATOM      8  C   UNL     1       0.581   9.296  21.355  0.00  0.00    +0.000 A 
ATOM      9  C   UNL     1       1.193   8.050  21.170  0.00  0.00    +0.000 A 
ATOM     10  C   UNL     1       1.793   7.707  19.946  0.00  0.00    +0.000 A 
ATOM     11  C   UNL     1       1.753   8.669  18.919  0.00  0.00    +0.000 A 
ATOM     12  C   UNL     1       1.148   9.918  19.106  0.00  0.00    +0.000 A 
BRANCH   7  14
ATOM     13  C   UNL     1      -1.208  11.709  19.847  0.00  0.00    +0.000 C 
ATOM     14  O   UNL     1      -0.046  11.425  20.619  0.00  0.00    +0.000 OA
ENDBRANCH   7  14
ENDBRANCH   1  10
BRANCH   5  15
ATOM     15  C   UNL     1       4.975   5.006  17.496  0.00  0.00    +0.000 A 
ATOM     16  C   UNL     1       6.153   5.775  17.549  0.00  0.00    +0.000 A 
ATOM     17  C   UNL     1       7.066   5.784  16.489  0.00  0.00    +0.000 A 
ATOM     18  C   UNL     1       6.865   4.981  15.368  0.00  0.00    +0.000 A 
ATOM     19  C   UNL     1       5.703   4.213  15.301  0.00  0.00    +0.000 A 
ATOM     20  C   UNL     1       4.786   4.203  16.361  0.00  0.00    +0.000 A 
BRANCH  18  21
ATOM     21  N   UNL     1       7.680   5.135  14.244  0.00  0.00    +0.000 N 
ATOM     22  H   UNL     1       8.406   4.433  14.158  0.00  0.00    +0.000 HD
ATOM     23  H   UNL     1       7.166   5.271  13.378  0.00  0.00    +0.000 HD
ENDBRANCH  18  21
ENDBRANCH   5  15
TORSDOF 4
ENDMDL
MODEL 5
REMARK VINA RESULT:      -7.1      2.672      3.838
REMARK  Name = 
REMARK  5 active torsions:
REMARK  status: ('A' for Active; 'I' for Inactive)
REMARK    1  A    between atoms: C_1  and  O_2
REMARK    2  A    between atoms: O_2  and  C_3
REMARK    3  A    between atoms: C_6  and  C_7
REMARK    4  A    between atoms: C_11  and  C_12
REMARK    5  A    between atoms: C_15  and  N_16
REMARK                            x       y       z     vdW  Elec       q    Type
REMARK                         _______ _______ _______ _____ _____    ______ ____
ROOT
ATOM      1  C   UNL     1       2.381   6.445  19.762  0.00  0.00    +0.000 A 
ATOM      2  C   UNL     1       2.065   5.321  20.527  0.00  0.00    +0.000 A 
ATOM      3  N   UNL     1       2.626   4.106  20.342  0.00  0.00    +0.000 NA
ATOM      4  C   UNL     1       3.546   4.056  19.352  0.00  0.00    +0.000 A 
ATOM      5  C   UNL     1       3.901   5.153  18.566  0.00  0.00    +0.000 A 
ATOM      6  N   UNL     1       3.320   6.365  18.778  0.00  0.00    +0.000 NA
ENDROOT
BRANCH   1  10
ATOM      7  C   UNL     1       0.464  10.265  20.331  0.00  0.00    +0.000 A 
ATOM      8  C   UNL     1       1.070   9.952  19.116  0.00  0.00    +0.000 A 
ATOM      9  C   UNL     1       1.687   8.708  18.929  0.00  0.00    +0.000 A 
ATOM     10  C   UNL     1       1.734   7.755  19.961  0.00  0.00    +0.000 A 
ATOM     11  C   UNL     1       1.135   8.104  21.185  0.00  0.00    +0.000 A 
ATOM     12  C   UNL     1       0.511   9.344  21.372  0.00  0.00    +0.000 A 
BRANCH   7  14
ATOM     13  C   UNL     1      -0.970  11.841  19.319  0.00  0.00    +0.000 C 
ATOM     14  O   UNL     1      -0.114  11.503  20.405  0.00  0.00    +0.000 OA
ENDBRANCH   7  14
ENDBRANCH   1  10
BRANCH   5  15
ATOM     15  C   UNL     1       4.943   5.073  17.524  0.00  0.00    +0.000 A 
ATOM     16  C   UNL     1       6.123   5.834  17.603  0.00  0.00    +0.000 A 
ATOM     17  C   UNL     1       7.050   5.853  16.555  0.00  0.00    +0.000 A 
ATOM     18  C   UNL     1       6.859   5.066  15.420  0.00  0.00    +0.000 A 
ATOM     19  C   UNL     1       5.694   4.305  15.328  0.00  0.00    +0.000 A 
ATOM     20  C   UNL     1       4.764   4.286  16.376  0.00  0.00    +0.000 A 
BRANCH  18  21
ATOM     21  N   UNL     1       7.690   5.231  14.309  0.00  0.00    +0.000 N 
ATOM     22  H   UNL     1       7.490   6.061  13.762  0.00  0.00    +0.000 HD
ATOM     23  H   UNL     1       8.680   5.131  14.516  0.00  0.00    +0.000 HD
ENDBRANCH  18  21
ENDBRANCH   5  15
TORSDOF 4
ENDMDL
MODEL 6
REMARK VINA RESULT:      -7.1      0.292      1.501
REMARK  Name = 
REMARK  5 active torsions:
REMARK  status: ('A' for Active; 'I' for Inactive)
REMARK    1  A    between atoms: C_1  and  O_2
REMARK    2  A    between atoms: O_2  and  C_3
REMARK    3  A    between atoms: C_6  and  C_7
REMARK    4  A    between atoms: C_11  and  C_12
REMARK    5  A    between atoms: C_15  and  N_16
REMARK                            x       y       z     vdW  Elec       q    Type
REMARK                         _______ _______ _______ _____ _____    ______ ____
ROOT
ATOM      1  C   UNL     1       1.454   8.853  19.456  0.00  0.00    +0.000 A 
ATOM      2  C   UNL     1       1.748   9.486  18.248  0.00  0.00    +0.000 A 
ATOM      3  N   UNL     1       2.530   8.943  17.289  0.00  0.00    +0.000 NA
ATOM      4  C   UNL     1       3.009   7.712  17.582  0.00  0.00    +0.000 A 
ATOM      5  C   UNL     1       2.736   7.037  18.772  0.00  0.00    +0.000 A 
ATOM      6  N   UNL     1       1.942   7.608  19.718  0.00  0.00    +0.000 NA
ENDROOT
BRANCH   1  10
ATOM      7  C   UNL     1      -0.955  10.684  22.528  0.00  0.00    +0.000 A 
ATOM      8  C   UNL     1      -0.387   9.428  22.730  0.00  0.00    +0.000 A 
ATOM      9  C   UNL     1       0.402   8.836  21.735  0.00  0.00    +0.000 A 
ATOM     10  C   UNL     1       0.621   9.475  20.502  0.00  0.00    +0.000 A 
ATOM     11  C   UNL     1       0.018  10.733  20.314  0.00  0.00    +0.000 A 
ATOM     12  C   UNL     1      -0.764  11.329  21.311  0.00  0.00    +0.000 A 
BRANCH   7  14
ATOM     13  C   UNL     1      -2.711  12.108  23.202  0.00  0.00    +0.000 C 
ATOM     14  O   UNL     1      -1.701  11.172  23.565  0.00  0.00    +0.000 OA
ENDBRANCH   7  14
ENDBRANCH   1  10
BRANCH   5  15
ATOM     15  C   UNL     1       3.237   5.675  19.038  0.00  0.00    +0.000 A 
ATOM     16  C   UNL     1       2.551   4.791  19.891  0.00  0.00    +0.000 A 
ATOM     17  C   UNL     1       3.091   3.549  20.242  0.00  0.00    +0.000 A 
ATOM     18  C   UNL     1       4.306   3.123  19.705  0.00  0.00    +0.000 A 
ATOM     19  C   UNL     1       4.997   3.988  18.858  0.00  0.00    +0.000 A 
ATOM     20  C   UNL     1       4.459   5.233  18.507  0.00  0.00    +0.000 A 
BRANCH  18  21
ATOM     21  N   UNL     1       4.922   1.971  20.201  0.00  0.00    +0.000 N 
ATOM     22  H   UNL     1       5.705   2.153  20.819  0.00  0.00    +0.000 HD
ATOM     23  H   UNL     1       4.272   1.290  20.586  0.00  0.00    +0.000 HD
ENDBRANCH  18  21
ENDBRANCH   5  15
TORSDOF 4
ENDMDL
MODEL 7
REMARK VINA RESULT:      -7.1      4.189      8.473
REMARK  Name = 
REMARK  5 active torsions:
REMARK  status: ('A' for Active; 'I' for Inactive)
REMARK    1  A    between atoms: C_1  and  O_2
REMARK    2  A    between atoms: O_2  and  C_3
REMARK    3  A    between atoms: C_6  and  C_7
REMARK    4  A    between atoms: C_11  and  C_12
REMARK    5  A    between atoms: C_15  and  N_16
REMARK                            x       y       z     vdW  Elec       q    Type
REMARK                         _______ _______ _______ _____ _____    ______ ____
ROOT
ATOM      1  C   UNL     1       3.622   5.190  18.412  0.00  0.00    +0.000 A 
ATOM      2  C   UNL     1       3.373   4.130  19.285  0.00  0.00    +0.000 A 
ATOM      3  N   UNL     1       2.624   4.242  20.404  0.00  0.00    +0.000 NA
ATOM      4  C   UNL     1       2.111   5.476  20.618  0.00  0.00    +0.000 A 
ATOM      5  C   UNL     1       2.327   6.563  19.770  0.00  0.00    +0.000 A 
ATOM      6  N   UNL     1       3.083   6.418  18.649  0.00  0.00    +0.000 NA
ENDROOT
BRANCH   1  10
ATOM      7  C   UNL     1       6.070   4.786  14.885  0.00  0.00    +0.000 A 
ATOM      8  C   UNL     1       5.712   3.664  15.630  0.00  0.00    +0.000 A 
ATOM      9  C   UNL     1       4.911   3.795  16.771  0.00  0.00    +0.000 A 
ATOM     10  C   UNL     1       4.468   5.054  17.212  0.00  0.00    +0.000 A 
ATOM     11  C   UNL     1       4.861   6.173  16.455  0.00  0.00    +0.000 A 
ATOM     12  C   UNL     1       5.656   6.044  15.310  0.00  0.00    +0.000 A 
BRANCH   7  14
ATOM     13  C   UNL     1       6.275   3.684  12.810  0.00  0.00    +0.000 C 
ATOM     14  O   UNL     1       6.849   4.547  13.787  0.00  0.00    +0.000 OA
ENDBRANCH   7  14
ENDBRANCH   1  10
BRANCH   5  15
ATOM     15  C   UNL     1       1.713   7.883  20.010  0.00  0.00    +0.000 A 
ATOM     16  C   UNL     1       1.154   8.220  21.256  0.00  0.00    +0.000 A 
ATOM     17  C   UNL     1       0.460   9.421  21.444  0.00  0.00    +0.000 A 
ATOM     18  C   UNL     1       0.355  10.352  20.411  0.00  0.00    +0.000 A 
ATOM     19  C   UNL     1       0.904  10.032  19.170  0.00  0.00    +0.000 A 
ATOM     20  C   UNL     1       1.598   8.829  18.980  0.00  0.00    +0.000 A 
BRANCH  18  21
ATOM     21  N   UNL     1      -0.491  11.455  20.550  0.00  0.00    +0.000 N 
ATOM     22  H   UNL     1      -0.427  12.125  19.792  0.00  0.00    +0.000 HD
ATOM     23  H   UNL     1      -1.452  11.212  20.775  0.00  0.00    +0.000 HD
ENDBRANCH  18  21
ENDBRANCH   5  15
TORSDOF 4
ENDMDL
MODEL 8
REMARK VINA RESULT:      -7.1      3.996      8.293
REMARK  Name = 
REMARK  5 active torsions:
REMARK  status: ('A' for Active; 'I' for Inactive)
REMARK    1  A    between atoms: C_1  and  O_2
REMARK    2  A    between atoms: O_2  and  C_3
REMARK    3  A    between atoms: C_6  and  C_7
REMARK    4  A    between atoms: C_11  and  C_12
REMARK    5  A    between atoms: C_15  and  N_16
REMARK                            x       y       z     vdW  Elec       q    Type
REMARK                         _______ _______ _______ _____ _____    ______ ____
ROOT
ATOM      1  C   UNL     1       3.808   5.389  18.883  0.00  0.00    +0.000 A 
ATOM      2  C   UNL     1       3.444   4.291  19.662  0.00  0.00    +0.000 A 
ATOM      3  N   UNL     1       2.509   4.340  20.636  0.00  0.00    +0.000 NA
ATOM      4  C   UNL     1       1.929   5.551  20.799  0.00  0.00    +0.000 A 
ATOM      5  C   UNL     1       2.255   6.676  20.040  0.00  0.00    +0.000 A 
ATOM      6  N   UNL     1       3.198   6.594  19.063  0.00  0.00    +0.000 NA
ENDROOT
BRANCH   1  10
ATOM      7  C   UNL     1       6.873   5.218  15.854  0.00  0.00    +0.000 A 
ATOM      8  C   UNL     1       5.642   5.811  15.582  0.00  0.00    +0.000 A 
ATOM      9  C   UNL     1       4.649   5.873  16.568  0.00  0.00    +0.000 A 
ATOM     10  C   UNL     1       4.853   5.321  17.844  0.00  0.00    +0.000 A 
ATOM     11  C   UNL     1       6.096   4.708  18.087  0.00  0.00    +0.000 A 
ATOM     12  C   UNL     1       7.093   4.652  17.105  0.00  0.00    +0.000 A 
BRANCH   7  14
ATOM     13  C   UNL     1       7.255   4.797  13.565  0.00  0.00    +0.000 C 
ATOM     14  O   UNL     1       7.772   5.216  14.824  0.00  0.00    +0.000 OA
ENDBRANCH   7  14
ENDBRANCH   1  10
BRANCH   5  15
ATOM     15  C   UNL     1       1.567   7.970  20.214  0.00  0.00    +0.000 A 
ATOM     16  C   UNL     1       0.918   8.304  21.416  0.00  0.00    +0.000 A 
ATOM     17  C   UNL     1       0.161   9.474  21.536  0.00  0.00    +0.000 A 
ATOM     18  C   UNL     1       0.077  10.380  20.479  0.00  0.00    +0.000 A 
ATOM     19  C   UNL     1       0.715  10.063  19.281  0.00  0.00    +0.000 A 
ATOM     20  C   UNL     1       1.473   8.890  19.159  0.00  0.00    +0.000 A 
BRANCH  18  21
ATOM     21  N   UNL     1      -0.825  11.445  20.544  0.00  0.00    +0.000 N 
ATOM     22  H   UNL     1      -1.207  11.720  19.646  0.00  0.00    +0.000 HD
ATOM     23  H   UNL     1      -1.543  11.334  21.255  0.00  0.00    +0.000 HD
ENDBRANCH  18  21
ENDBRANCH   5  15
TORSDOF 4
ENDMDL
MODEL 9
REMARK VINA RESULT:      -7.0      1.232      1.643
REMARK  Name = 
REMARK  5 active torsions:
REMARK  status: ('A' for Active; 'I' for Inactive)
REMARK    1  A    between atoms: C_1  and  O_2
REMARK    2  A    between atoms: O_2  and  C_3
REMARK    3  A    between atoms: C_6  and  C_7
REMARK    4  A    between atoms: C_11  and  C_12
REMARK    5  A    between atoms: C_15  and  N_16
REMARK                            x       y       z     vdW  Elec       q    Type
REMARK                         _______ _______ _______ _____ _____    ______ ____
ROOT
ATOM      1  C   UNL     1       1.864   8.342  19.245  0.00  0.00    +0.000 A 
ATOM      2  C   UNL     1       2.366   9.034  18.143  0.00  0.00    +0.000 A 
ATOM      3  N   UNL     1       3.104   8.458  17.168  0.00  0.00    +0.000 NA
ATOM      4  C   UNL     1       3.316   7.132  17.331  0.00  0.00    +0.000 A 
ATOM      5  C   UNL     1       2.829   6.396  18.412  0.00  0.00    +0.000 A 
ATOM      6  N   UNL     1       2.086   7.004  19.377  0.00  0.00    +0.000 NA
ENDROOT
BRANCH   1  10
ATOM      7  C   UNL     1      -0.387  10.273  22.375  0.00  0.00    +0.000 A 
ATOM      8  C   UNL     1       0.529   9.268  22.680  0.00  0.00    +0.000 A 
ATOM      9  C   UNL     1       1.265   8.646  21.664  0.00  0.00    +0.000 A 
ATOM     10  C   UNL     1       1.087   8.996  20.314  0.00  0.00    +0.000 A 
ATOM     11  C   UNL     1       0.140   9.997  20.030  0.00  0.00    +0.000 A 
ATOM     12  C   UNL     1      -0.592  10.626  21.045  0.00  0.00    +0.000 A 
BRANCH   7  14
ATOM     13  C   UNL     1      -1.910  11.908  23.131  0.00  0.00    +0.000 C 
ATOM     14  O   UNL     1      -1.048  10.818  23.441  0.00  0.00    +0.000 OA
ENDBRANCH   7  14
ENDBRANCH   1  10
BRANCH   5  15
ATOM     15  C   UNL     1       3.040   4.941  18.533  0.00  0.00    +0.000 A 
ATOM     16  C   UNL     1       4.053   4.409  19.352  0.00  0.00    +0.000 A 
ATOM     17  C   UNL     1       4.334   3.039  19.368  0.00  0.00    +0.000 A 
ATOM     18  C   UNL     1       3.573   2.147  18.613  0.00  0.00    +0.000 A 
ATOM     19  C   UNL     1       2.565   2.658  17.797  0.00  0.00    +0.000 A 
ATOM     20  C   UNL     1       2.283   4.031  17.779  0.00  0.00    +0.000 A 
BRANCH  18  21
ATOM     21  N   UNL     1       3.977   0.814  18.493  0.00  0.00    +0.000 N 
ATOM     22  H   UNL     1       4.513   0.617  17.656  0.00  0.00    +0.000 HD
ATOM     23  H   UNL     1       4.412   0.439  19.331  0.00  0.00    +0.000 HD
ENDBRANCH  18  21
ENDBRANCH   5  15
TORSDOF 4
ENDMDL
