MODEL 1
REMARK VINA RESULT:      -8.7      0.000      0.000
REMARK  Name = 
REMARK  8 active torsions:
REMARK  status: ('A' for Active; 'I' for Inactive)
REMARK    1  A    between atoms: C_2  and  O_16
REMARK    2  A    between atoms: N_3  and  CA_4
REMARK    3  A    between atoms: CA_4  and  C_5
REMARK    4  A    between atoms: CA_4  and  C_13
REMARK    5  A    between atoms: C_5  and  C_6
REMARK    6  A    between atoms: C_13  and  OXT_15
REMARK    7  A    between atoms: O_16  and  C_17
REMARK    8  A    between atoms: C_17  and  C_18
REMARK                            x       y       z     vdW  Elec       q    Type
REMARK                         _______ _______ _______ _____ _____    ______ ____
ROOT
ATOM      1  O   UNL     1       0.871   4.257  17.052  0.00  0.00    +0.000 OA
ATOM      2  C   UNL     1       1.587   3.947  17.998  0.00  0.00    +0.000 C 
ATOM      3  N   UNL     1       1.072   3.883  19.260  0.00  0.00    +0.000 N 
ATOM      4  H   UNL     1       0.059   3.898  19.287  0.00  0.00    +0.000 HD
ENDROOT
BRANCH   3   5
ATOM      5  CA  UNL     1       1.779   4.353  20.456  0.00  0.00    +0.000 C 
BRANCH   5   6
ATOM      6  C   UNL     1       2.353   3.169  21.254  0.00  0.00    +0.000 C 
ATOM      7  O   UNL     1       1.811   2.679  22.233  0.00  0.00    +0.000 OA
BRANCH   6   8
ATOM      8  OXT UNL     1       3.477   2.631  20.726  0.00  0.00    +0.000 OA
ATOM      9  HXT UNL     1       4.222   2.558  21.353  0.00  0.00    +0.000 HD
ENDBRANCH   6   8
ENDBRANCH   5   6
BRANCH   5  10
ATOM     10  C   UNL     1       2.825   5.443  20.179  0.00  0.00    +0.000 C 
BRANCH  10  11
ATOM     11  C   UNL     1       2.390   6.852  19.826  0.00  0.00    +0.000 A 
ATOM     12  C   UNL     1       2.570   7.348  18.528  0.00  0.00    +0.000 A 
ATOM     13  C   UNL     1       1.963   8.545  18.131  0.00  0.00    +0.000 A 
ATOM     14  C   UNL     1       1.204   9.276  19.042  0.00  0.00    +0.000 A 
ATOM     15 CL   UNL     1       0.391  10.704  18.530  0.00  0.00    +0.000 Cl
ATOM     16  C   UNL     1       1.078   8.839  20.356  0.00  0.00    +0.000 A 
ATOM     17  C   UNL     1       1.661   7.627  20.745  0.00  0.00    +0.000 A 
ENDBRANCH  10  11
ENDBRANCH   5  10
ENDBRANCH   3   5
BRANCH   2  18
ATOM     18  O   UNL     1       2.883   3.591  17.912  0.00  0.00    +0.000 OA
BRANCH  18  19
ATOM     19  C   UNL     1       3.567   4.104  16.745  0.00  0.00    +0.000 C 
BRANCH  19  20
ATOM     20  C   UNL     1       5.032   3.666  16.594  0.00  0.00    +0.000 C 
ATOM     21  C   UNL     1       5.635   3.948  15.221  0.00  0.00    +0.000 A 
ATOM     22  C   UNL     1       5.267   3.417  13.993  0.00  0.00    +0.000 A 
ATOM     23  C   UNL     1       5.999   3.795  12.865  0.00  0.00    +0.000 A 
ATOM     24  C   UNL     1       7.080   4.686  12.974  0.00  0.00    +0.000 A 
ATOM     25  C   UNL     1       7.451   5.211  14.214  0.00  0.00    +0.000 A 
ATOM     26  C   UNL     1       6.726   4.837  15.335  0.00  0.00    +0.000 A 
ATOM     27  C   UNL     1       6.888   5.208  16.725  0.00  0.00    +0.000 A 
ATOM     28  C   UNL     1       7.766   6.098  17.326  0.00  0.00    +0.000 A 
ATOM     29  C   UNL     1       7.664   6.308  18.705  0.00  0.00    +0.000 A 
ATOM     30  C   UNL     1       6.705   5.623  19.468  0.00  0.00    +0.000 A 
ATOM     31  C   UNL     1       5.832   4.714  18.868  0.00  0.00    +0.000 A 
ATOM     32  C   UNL     1       5.921   4.526  17.497  0.00  0.00    +0.000 A 
ENDBRANCH  19  20
ENDBRANCH  18  19
ENDBRANCH   2  18
TORSDOF 8
ENDMDL
MODEL 2
REMARK VINA RESULT:      -8.6      3.885      6.144
REMARK  Name = 
REMARK  8 active torsions:
REMARK  status: ('A' for Active; 'I' for Inactive)
REMARK    1  A    between atoms: C_2  and  O_16
REMARK    2  A    between atoms: N_3  and  CA_4
REMARK    3  A    between atoms: CA_4  and  C_5
REMARK    4  A    between atoms: CA_4  and  C_13
REMARK    5  A    between atoms: C_5  and  C_6
REMARK    6  A    between atoms: C_13  and  OXT_15
REMARK    7  A    between atoms: O_16  and  C_17
REMARK    8  A    between atoms: C_17  and  C_18
REMARK                            x       y       z     vdW  Elec       q    Type
REMARK                         _______ _______ _______ _____ _____    ______ ____
ROOT
ATOM      1  O   UNL     1       1.162   7.775  21.023  0.00  0.00    +0.000 OA
ATOM      2  C   UNL     1       1.436   8.657  20.215  0.00  0.00    +0.000 C 
ATOM      3  N   UNL     1       0.967   9.926  20.395  0.00  0.00    +0.000 N 
ATOM      4  H   UNL     1       0.588  10.092  21.320  0.00  0.00    +0.000 HD
ENDROOT
BRANCH   3   5
ATOM      5  CA  UNL     1       0.471  10.776  19.307  0.00  0.00    +0.000 C 
BRANCH   5   6
ATOM      6  C   UNL     1       1.638  11.456  18.569  0.00  0.00    +0.000 C 
ATOM      7  O   UNL     1       2.209  12.458  18.972  0.00  0.00    +0.000 OA
BRANCH   6   8
ATOM      8  OXT UNL     1       2.063  10.796  17.467  0.00  0.00    +0.000 OA
ATOM      9  HXT UNL     1       1.376  10.254  17.031  0.00  0.00    +0.000 HD
ENDBRANCH   6   8
ENDBRANCH   5   6
BRANCH   5  10
ATOM     10  C   UNL     1      -0.502  10.069  18.352  0.00  0.00    +0.000 C 
BRANCH  10  11
ATOM     11  C   UNL     1      -1.816  10.723  17.974  0.00  0.00    +0.000 A 
ATOM     12  C   UNL     1      -2.431  10.430  16.749  0.00  0.00    +0.000 A 
ATOM     13  C   UNL     1      -3.746  10.837  16.496  0.00  0.00    +0.000 A 
ATOM     14  C   UNL     1      -4.443  11.575  17.450  0.00  0.00    +0.000 A 
ATOM     15 CL   UNL     1      -6.086  12.004  17.170  0.00  0.00    +0.000 Cl
ATOM     16  C   UNL     1      -3.823  11.941  18.639  0.00  0.00    +0.000 A 
ATOM     17  C   UNL     1      -2.518  11.510  18.906  0.00  0.00    +0.000 A 
ENDBRANCH  10  11
ENDBRANCH   5  10
ENDBRANCH   3   5
BRANCH   2  18
ATOM     18  O   UNL     1       2.237   8.511  19.142  0.00  0.00    +0.000 OA
BRANCH  18  19
ATOM     19  C   UNL     1       2.058   7.266  18.429  0.00  0.00    +0.000 C 
BRANCH  19  20
ATOM     20  C   UNL     1       3.001   6.126  18.845  0.00  0.00    +0.000 C 
ATOM     21  C   UNL     1       2.319   4.771  19.007  0.00  0.00    +0.000 A 
ATOM     22  C   UNL     1       1.343   4.402  19.921  0.00  0.00    +0.000 A 
ATOM     23  C   UNL     1       0.893   3.079  19.908  0.00  0.00    +0.000 A 
ATOM     24  C   UNL     1       1.420   2.149  18.996  0.00  0.00    +0.000 A 
ATOM     25  C   UNL     1       2.409   2.525  18.083  0.00  0.00    +0.000 A 
ATOM     26  C   UNL     1       2.856   3.837  18.095  0.00  0.00    +0.000 A 
ATOM     27  C   UNL     1       3.862   4.493  17.285  0.00  0.00    +0.000 A 
ATOM     28  C   UNL     1       4.614   4.020  16.220  0.00  0.00    +0.000 A 
ATOM     29  C   UNL     1       5.487   4.903  15.575  0.00  0.00    +0.000 A 
ATOM     30  C   UNL     1       5.610   6.234  16.005  0.00  0.00    +0.000 A 
ATOM     31  C   UNL     1       4.867   6.706  17.088  0.00  0.00    +0.000 A 
ATOM     32  C   UNL     1       3.986   5.834  17.709  0.00  0.00    +0.000 A 
ENDBRANCH  19  20
ENDBRANCH  18  19
ENDBRANCH   2  18
TORSDOF 8
ENDMDL
MODEL 3
REMARK VINA RESULT:      -8.6      1.086      1.319
REMARK  Name = 
REMARK  8 active torsions:
REMARK  status: ('A' for Active; 'I' for Inactive)
REMARK    1  A    between atoms: C_2  and  O_16
REMARK    2  A    between atoms: N_3  and  CA_4
REMARK    3  A    between atoms: CA_4  and  C_5
REMARK    4  A    between atoms: CA_4  and  C_13
REMARK    5  A    between atoms: C_5  and  C_6
REMARK    6  A    between atoms: C_13  and  OXT_15
REMARK    7  A    between atoms: O_16  and  C_17
REMARK    8  A    between atoms: C_17  and  C_18
REMARK                            x       y       z     vdW  Elec       q    Type
REMARK                         _______ _______ _______ _____ _____    ______ ____
ROOT
ATOM      1  O   UNL     1       3.879   1.230  18.264  0.00  0.00    +0.000 OA
ATOM      2  C   UNL     1       3.351   2.338  18.278  0.00  0.00    +0.000 C 
ATOM      3  N   UNL     1       3.281   3.053  19.439  0.00  0.00    +0.000 N 
ATOM      4  H   UNL     1       3.871   2.688  20.177  0.00  0.00    +0.000 HD
ENDROOT
BRANCH   3   5
ATOM      5  CA  UNL     1       2.110   3.837  19.845  0.00  0.00    +0.000 C 
BRANCH   5   6
ATOM      6  C   UNL     1       1.054   2.938  20.513  0.00  0.00    +0.000 C 
ATOM      7  O   UNL     1       1.099   2.587  21.682  0.00  0.00    +0.000 OA
BRANCH   6   8
ATOM      8  OXT UNL     1      -0.003   2.636  19.724  0.00  0.00    +0.000 OA
ATOM      9  HXT UNL     1       0.210   2.568  18.772  0.00  0.00    +0.000 HD
ENDBRANCH   6   8
ENDBRANCH   5   6
BRANCH   5  10
ATOM     10  C   UNL     1       2.445   5.080  20.682  0.00  0.00    +0.000 C 
BRANCH  10  11
ATOM     11  C   UNL     1       2.277   6.468  20.096  0.00  0.00    +0.000 A 
ATOM     12  C   UNL     1       2.631   6.727  18.765  0.00  0.00    +0.000 A 
ATOM     13  C   UNL     1       2.260   7.928  18.150  0.00  0.00    +0.000 A 
ATOM     14  C   UNL     1       1.568   8.897  18.873  0.00  0.00    +0.000 A 
ATOM     15 CL   UNL     1       1.043  10.338  18.092  0.00  0.00    +0.000 Cl
ATOM     16  C   UNL     1       1.276   8.690  20.216  0.00  0.00    +0.000 A 
ATOM     17  C   UNL     1       1.620   7.477  20.825  0.00  0.00    +0.000 A 
ENDBRANCH  10  11
ENDBRANCH   5  10
ENDBRANCH   3   5
BRANCH   2  18
ATOM     18  O   UNL     1       2.856   2.980  17.203  0.00  0.00    +0.000 OA
BRANCH  18  19
ATOM     19  C   UNL     1       3.703   4.037  16.697  0.00  0.00    +0.000 C 
BRANCH  19  20
ATOM     20  C   UNL     1       5.188   3.674  16.540  0.00  0.00    +0.000 C 
ATOM     21  C   UNL     1       5.762   3.954  15.153  0.00  0.00    +0.000 A 
ATOM     22  C   UNL     1       5.411   3.373  13.943  0.00  0.00    +0.000 A 
ATOM     23  C   UNL     1       6.110   3.763  12.798  0.00  0.00    +0.000 A 
ATOM     24  C   UNL     1       7.143   4.712  12.873  0.00  0.00    +0.000 A 
ATOM     25  C   UNL     1       7.497   5.287  14.097  0.00  0.00    +0.000 A 
ATOM     26  C   UNL     1       6.805   4.902  15.234  0.00  0.00    +0.000 A 
ATOM     27  C   UNL     1       6.960   5.316  16.613  0.00  0.00    +0.000 A 
ATOM     28  C   UNL     1       7.795   6.266  17.183  0.00  0.00    +0.000 A 
ATOM     29  C   UNL     1       7.695   6.504  18.558  0.00  0.00    +0.000 A 
ATOM     30  C   UNL     1       6.781   5.787  19.347  0.00  0.00    +0.000 A 
ATOM     31  C   UNL     1       5.953   4.819  18.778  0.00  0.00    +0.000 A 
ATOM     32  C   UNL     1       6.039   4.602  17.411  0.00  0.00    +0.000 A 
ENDBRANCH  19  20
ENDBRANCH  18  19
ENDBRANCH   2  18
TORSDOF 8
ENDMDL
MODEL 4
REMARK VINA RESULT:      -8.4      3.746      5.752
REMARK  Name = 
REMARK  8 active torsions:
REMARK  status: ('A' for Active; 'I' for Inactive)
REMARK    1  A    between atoms: C_2  and  O_16
REMARK    2  A    between atoms: N_3  and  CA_4
REMARK    3  A    between atoms: CA_4  and  C_5
REMARK    4  A    between atoms: CA_4  and  C_13
REMARK    5  A    between atoms: C_5  and  C_6
REMARK    6  A    between atoms: C_13  and  OXT_15
REMARK    7  A    between atoms: O_16  and  C_17
REMARK    8  A    between atoms: C_17  and  C_18
REMARK                            x       y       z     vdW  Elec       q    Type
REMARK                         _______ _______ _______ _____ _____    ______ ____
ROOT
ATOM      1  O   UNL     1       1.160   7.668  20.990  0.00  0.00    +0.000 OA
ATOM      2  C   UNL     1       1.430   8.456  20.089  0.00  0.00    +0.000 C 
ATOM      3  N   UNL     1       1.142   9.783  20.225  0.00  0.00    +0.000 N 
ATOM      4  H   UNL     1       0.907  10.052  21.173  0.00  0.00    +0.000 HD
ENDROOT
BRANCH   3   5
ATOM      5  CA  UNL     1       0.615  10.619  19.142  0.00  0.00    +0.000 C 
BRANCH   5   6
ATOM      6  C   UNL     1       1.752  11.369  18.426  0.00  0.00    +0.000 C 
ATOM      7  O   UNL     1       2.213  12.434  18.807  0.00  0.00    +0.000 OA
BRANCH   6   8
ATOM      8  OXT UNL     1       2.286  10.703  17.376  0.00  0.00    +0.000 OA
ATOM      9  HXT UNL     1       3.262  10.649  17.386  0.00  0.00    +0.000 HD
ENDBRANCH   6   8
ENDBRANCH   5   6
BRANCH   5  10
ATOM     10  C   UNL     1      -0.310   9.876  18.167  0.00  0.00    +0.000 C 
BRANCH  10  11
ATOM     11  C   UNL     1      -1.746  10.324  17.978  0.00  0.00    +0.000 A 
ATOM     12  C   UNL     1      -2.328  11.241  18.864  0.00  0.00    +0.000 A 
ATOM     13  C   UNL     1      -3.557  11.839  18.565  0.00  0.00    +0.000 A 
ATOM     14  C   UNL     1      -4.235  11.492  17.399  0.00  0.00    +0.000 A 
ATOM     15 CL   UNL     1      -5.707  12.287  16.993  0.00  0.00    +0.000 Cl
ATOM     16  C   UNL     1      -3.711  10.527  16.547  0.00  0.00    +0.000 A 
ATOM     17  C   UNL     1      -2.467   9.951  16.830  0.00  0.00    +0.000 A 
ENDBRANCH  10  11
ENDBRANCH   5  10
ENDBRANCH   3   5
BRANCH   2  18
ATOM     18  O   UNL     1       2.063   8.142  18.942  0.00  0.00    +0.000 OA
BRANCH  18  19
ATOM     19  C   UNL     1       3.013   7.058  19.062  0.00  0.00    +0.000 C 
BRANCH  19  20
ATOM     20  C   UNL     1       3.313   6.298  17.760  0.00  0.00    +0.000 C 
ATOM     21  C   UNL     1       4.797   6.054  17.501  0.00  0.00    +0.000 A 
ATOM     22  C   UNL     1       5.797   6.989  17.278  0.00  0.00    +0.000 A 
ATOM     23  C   UNL     1       7.089   6.524  17.020  0.00  0.00    +0.000 A 
ATOM     24  C   UNL     1       7.364   5.146  16.982  0.00  0.00    +0.000 A 
ATOM     25  C   UNL     1       6.350   4.209  17.201  0.00  0.00    +0.000 A 
ATOM     26  C   UNL     1       5.068   4.669  17.456  0.00  0.00    +0.000 A 
ATOM     27  C   UNL     1       3.841   3.941  17.704  0.00  0.00    +0.000 A 
ATOM     28  C   UNL     1       3.608   2.578  17.827  0.00  0.00    +0.000 A 
ATOM     29  C   UNL     1       2.311   2.147  18.126  0.00  0.00    +0.000 A 
ATOM     30  C   UNL     1       1.265   3.071  18.284  0.00  0.00    +0.000 A 
ATOM     31  C   UNL     1       1.494   4.440  18.143  0.00  0.00    +0.000 A 
ATOM     32  C   UNL     1       2.786   4.864  17.870  0.00  0.00    +0.000 A 
ENDBRANCH  19  20
ENDBRANCH  18  19
ENDBRANCH   2  18
TORSDOF 8
ENDMDL
MODEL 5
REMARK VINA RESULT:      -8.3      0.604      3.098
REMARK  Name = 
REMARK  8 active torsions:
REMARK  status: ('A' for Active; 'I' for Inactive)
REMARK    1  A    between atoms: C_2  and  O_16
REMARK    2  A    between atoms: N_3  and  CA_4
REMARK    3  A    between atoms: CA_4  and  C_5
REMARK    4  A    between atoms: CA_4  and  C_13
REMARK    5  A    between atoms: C_5  and  C_6
REMARK    6  A    between atoms: C_13  and  OXT_15
REMARK    7  A    between atoms: O_16  and  C_17
REMARK    8  A    between atoms: C_17  and  C_18
REMARK                            x       y       z     vdW  Elec       q    Type
REMARK                         _______ _______ _______ _____ _____    ______ ____
ROOT
ATOM      1  O   UNL     1       1.253   3.888  17.139  0.00  0.00    +0.000 OA
ATOM      2  C   UNL     1       1.736   3.579  18.224  0.00  0.00    +0.000 C 
ATOM      3  N   UNL     1       0.984   3.657  19.360  0.00  0.00    +0.000 N 
ATOM      4  H   UNL     1      -0.008   3.774  19.184  0.00  0.00    +0.000 HD
ENDROOT
BRANCH   3   5
ATOM      5  CA  UNL     1       1.496   4.142  20.646  0.00  0.00    +0.000 C 
BRANCH   5   6
ATOM      6  C   UNL     1       2.052   2.979  21.486  0.00  0.00    +0.000 C 
ATOM      7  O   UNL     1       1.408   2.379  22.333  0.00  0.00    +0.000 OA
BRANCH   6   8
ATOM      8  OXT UNL     1       3.304   2.593  21.146  0.00  0.00    +0.000 OA
ATOM      9  HXT UNL     1       3.993   2.843  21.792  0.00  0.00    +0.000 HD
ENDBRANCH   6   8
ENDBRANCH   5   6
BRANCH   5  10
ATOM     10  C   UNL     1       2.482   5.313  20.529  0.00  0.00    +0.000 C 
BRANCH  10  11
ATOM     11  C   UNL     1       2.026   6.647  19.972  0.00  0.00    +0.000 A 
ATOM     12  C   UNL     1       1.333   7.557  20.781  0.00  0.00    +0.000 A 
ATOM     13  C   UNL     1       1.121   8.873  20.354  0.00  0.00    +0.000 A 
ATOM     14  C   UNL     1       1.564   9.278  19.097  0.00  0.00    +0.000 A 
ATOM     15 CL   UNL     1       1.375  10.917  18.607  0.00  0.00    +0.000 Cl
ATOM     16  C   UNL     1       2.185   8.368  18.249  0.00  0.00    +0.000 A 
ATOM     17  C   UNL     1       2.424   7.059  18.687  0.00  0.00    +0.000 A 
ENDBRANCH  10  11
ENDBRANCH   5  10
ENDBRANCH   3   5
BRANCH   2  18
ATOM     18  O   UNL     1       2.977   3.092  18.415  0.00  0.00    +0.000 OA
BRANCH  18  19
ATOM     19  C   UNL     1       3.815   3.113  17.237  0.00  0.00    +0.000 C 
BRANCH  19  20
ATOM     20  C   UNL     1       4.427   4.479  16.889  0.00  0.00    +0.000 C 
ATOM     21  C   UNL     1       5.579   4.903  17.796  0.00  0.00    +0.000 A 
ATOM     22  C   UNL     1       5.549   5.175  19.155  0.00  0.00    +0.000 A 
ATOM     23  C   UNL     1       6.732   5.590  19.771  0.00  0.00    +0.000 A 
ATOM     24  C   UNL     1       7.918   5.732  19.030  0.00  0.00    +0.000 A 
ATOM     25  C   UNL     1       7.940   5.463  17.659  0.00  0.00    +0.000 A 
ATOM     26  C   UNL     1       6.767   5.052  17.046  0.00  0.00    +0.000 A 
ATOM     27  C   UNL     1       6.496   4.720  15.663  0.00  0.00    +0.000 A 
ATOM     28  C   UNL     1       7.345   4.650  14.568  0.00  0.00    +0.000 A 
ATOM     29  C   UNL     1       6.817   4.244  13.338  0.00  0.00    +0.000 A 
ATOM     30  C   UNL     1       5.454   3.928  13.211  0.00  0.00    +0.000 A 
ATOM     31  C   UNL     1       4.595   4.015  14.307  0.00  0.00    +0.000 A 
ATOM     32  C   UNL     1       5.128   4.396  15.529  0.00  0.00    +0.000 A 
ENDBRANCH  19  20
ENDBRANCH  18  19
ENDBRANCH   2  18
TORSDOF 8
ENDMDL
MODEL 6
REMARK VINA RESULT:      -8.2      3.577      5.908
REMARK  Name = 
REMARK  8 active torsions:
REMARK  status: ('A' for Active; 'I' for Inactive)
REMARK    1  A    between atoms: C_2  and  O_16
REMARK    2  A    between atoms: N_3  and  CA_4
REMARK    3  A    between atoms: CA_4  and  C_5
REMARK    4  A    between atoms: CA_4  and  C_13
REMARK    5  A    between atoms: C_5  and  C_6
REMARK    6  A    between atoms: C_13  and  OXT_15
REMARK    7  A    between atoms: O_16  and  C_17
REMARK    8  A    between atoms: C_17  and  C_18
REMARK                            x       y       z     vdW  Elec       q    Type
REMARK                         _______ _______ _______ _____ _____    ______ ____
ROOT
ATOM      1  O   UNL     1       3.190   8.005  16.763  0.00  0.00    +0.000 OA
ATOM      2  C   UNL     1       2.358   8.202  17.643  0.00  0.00    +0.000 C 
ATOM      3  N   UNL     1       1.619   9.349  17.648  0.00  0.00    +0.000 N 
ATOM      4  H   UNL     1       1.674   9.872  16.781  0.00  0.00    +0.000 HD
ENDROOT
BRANCH   3   5
ATOM      5  CA  UNL     1       1.288  10.101  18.863  0.00  0.00    +0.000 C 
BRANCH   5   6
ATOM      6  C   UNL     1       1.639  11.590  18.697  0.00  0.00    +0.000 C 
ATOM      7  O   UNL     1       1.491  12.428  19.573  0.00  0.00    +0.000 OA
BRANCH   6   8
ATOM      8  OXT UNL     1       2.228  11.898  17.518  0.00  0.00    +0.000 OA
ATOM      9  HXT UNL     1       2.920  11.267  17.236  0.00  0.00    +0.000 HD
ENDBRANCH   6   8
ENDBRANCH   5   6
BRANCH   5  10
ATOM     10  C   UNL     1      -0.146   9.883  19.366  0.00  0.00    +0.000 C 
BRANCH  10  11
ATOM     11  C   UNL     1      -1.317  10.527  18.651  0.00  0.00    +0.000 A 
ATOM     12  C   UNL     1      -1.804   9.986  17.453  0.00  0.00    +0.000 A 
ATOM     13  C   UNL     1      -3.021  10.423  16.916  0.00  0.00    +0.000 A 
ATOM     14  C   UNL     1      -3.739  11.434  17.551  0.00  0.00    +0.000 A 
ATOM     15 CL   UNL     1      -5.273  11.913  16.934  0.00  0.00    +0.000 Cl
ATOM     16  C   UNL     1      -3.234  12.036  18.698  0.00  0.00    +0.000 A 
ATOM     17  C   UNL     1      -2.032  11.579  19.252  0.00  0.00    +0.000 A 
ENDBRANCH  10  11
ENDBRANCH   5  10
ENDBRANCH   3   5
BRANCH   2  18
ATOM     18  O   UNL     1       2.040   7.335  18.624  0.00  0.00    +0.000 OA
BRANCH  18  19
ATOM     19  C   UNL     1       3.109   7.080  19.564  0.00  0.00    +0.000 C 
BRANCH  19  20
ATOM     20  C   UNL     1       3.635   5.637  19.588  0.00  0.00    +0.000 C 
ATOM     21  C   UNL     1       2.554   4.570  19.437  0.00  0.00    +0.000 A 
ATOM     22  C   UNL     1       1.501   4.284  20.294  0.00  0.00    +0.000 A 
ATOM     23  C   UNL     1       0.653   3.224  19.965  0.00  0.00    +0.000 A 
ATOM     24  C   UNL     1       0.866   2.466  18.802  0.00  0.00    +0.000 A 
ATOM     25  C   UNL     1       1.933   2.754  17.946  0.00  0.00    +0.000 A 
ATOM     26  C   UNL     1       2.775   3.805  18.271  0.00  0.00    +0.000 A 
ATOM     27  C   UNL     1       3.947   4.315  17.589  0.00  0.00    +0.000 A 
ATOM     28  C   UNL     1       4.521   3.946  16.381  0.00  0.00    +0.000 A 
ATOM     29  C   UNL     1       5.637   4.657  15.927  0.00  0.00    +0.000 A 
ATOM     30  C   UNL     1       6.174   5.711  16.684  0.00  0.00    +0.000 A 
ATOM     31  C   UNL     1       5.609   6.072  17.908  0.00  0.00    +0.000 A 
ATOM     32  C   UNL     1       4.488   5.380  18.342  0.00  0.00    +0.000 A 
ENDBRANCH  19  20
ENDBRANCH  18  19
ENDBRANCH   2  18
TORSDOF 8
ENDMDL
MODEL 7
REMARK VINA RESULT:      -8.1      3.103      7.150
REMARK  Name = 
REMARK  8 active torsions:
REMARK  status: ('A' for Active; 'I' for Inactive)
REMARK    1  A    between atoms: C_2  and  O_16
REMARK    2  A    between atoms: N_3  and  CA_4
REMARK    3  A    between atoms: CA_4  and  C_5
REMARK    4  A    between atoms: CA_4  and  C_13
REMARK    5  A    between atoms: C_5  and  C_6
REMARK    6  A    between atoms: C_13  and  OXT_15
REMARK    7  A    between atoms: O_16  and  C_17
REMARK    8  A    between atoms: C_17  and  C_18
REMARK                            x       y       z     vdW  Elec       q    Type
REMARK                         _______ _______ _______ _____ _____    ______ ____
ROOT
ATOM      1  O   UNL     1       5.487   3.737  19.643  0.00  0.00    +0.000 OA
ATOM      2  C   UNL     1       5.579   4.052  18.460  0.00  0.00    +0.000 C 
ATOM      3  N   UNL     1       6.779   4.446  17.943  0.00  0.00    +0.000 N 
ATOM      4  H   UNL     1       7.567   4.245  18.548  0.00  0.00    +0.000 HD
ENDROOT
BRANCH   3   5
ATOM      5  CA  UNL     1       6.933   5.547  16.986  0.00  0.00    +0.000 C 
BRANCH   5   6
ATOM      6  C   UNL     1       7.540   6.785  17.669  0.00  0.00    +0.000 C 
ATOM      7  O   UNL     1       8.087   6.762  18.762  0.00  0.00    +0.000 OA
BRANCH   6   8
ATOM      8  OXT UNL     1       7.513   7.909  16.916  0.00  0.00    +0.000 OA
ATOM      9  HXT UNL     1       7.080   8.672  17.347  0.00  0.00    +0.000 HD
ENDBRANCH   6   8
ENDBRANCH   5   6
BRANCH   5  10
ATOM     10  C   UNL     1       7.672   5.160  15.697  0.00  0.00    +0.000 C 
BRANCH  10  11
ATOM     11  C   UNL     1       6.897   4.706  14.475  0.00  0.00    +0.000 A 
ATOM     12  C   UNL     1       7.532   4.593  13.231  0.00  0.00    +0.000 A 
ATOM     13  C   UNL     1       6.896   3.953  12.161  0.00  0.00    +0.000 A 
ATOM     14  C   UNL     1       5.602   3.458  12.315  0.00  0.00    +0.000 A 
ATOM     15 CL   UNL     1       4.853   2.601  11.025  0.00  0.00    +0.000 Cl
ATOM     16  C   UNL     1       4.927   3.630  13.518  0.00  0.00    +0.000 A 
ATOM     17  C   UNL     1       5.574   4.244  14.598  0.00  0.00    +0.000 A 
ENDBRANCH  10  11
ENDBRANCH   5  10
ENDBRANCH   3   5
BRANCH   2  18
ATOM     18  O   UNL     1       4.580   3.994  17.558  0.00  0.00    +0.000 OA
BRANCH  18  19
ATOM     19  C   UNL     1       3.835   5.225  17.412  0.00  0.00    +0.000 C 
BRANCH  19  20
ATOM     20  C   UNL     1       2.381   5.178  17.907  0.00  0.00    +0.000 C 
ATOM     21  C   UNL     1       2.110   4.111  18.964  0.00  0.00    +0.000 A 
ATOM     22  C   UNL     1       2.193   2.732  18.836  0.00  0.00    +0.000 A 
ATOM     23  C   UNL     1       1.854   1.946  19.939  0.00  0.00    +0.000 A 
ATOM     24  C   UNL     1       1.434   2.537  21.143  0.00  0.00    +0.000 A 
ATOM     25  C   UNL     1       1.345   3.927  21.263  0.00  0.00    +0.000 A 
ATOM     26  C   UNL     1       1.681   4.708  20.169  0.00  0.00    +0.000 A 
ATOM     27  C   UNL     1       1.672   6.147  20.005  0.00  0.00    +0.000 A 
ATOM     28  C   UNL     1       1.395   7.158  20.913  0.00  0.00    +0.000 A 
ATOM     29  C   UNL     1       1.518   8.487  20.492  0.00  0.00    +0.000 A 
ATOM     30  C   UNL     1       1.900   8.790  19.175  0.00  0.00    +0.000 A 
ATOM     31  C   UNL     1       2.162   7.774  18.255  0.00  0.00    +0.000 A 
ATOM     32  C   UNL     1       2.061   6.459  18.684  0.00  0.00    +0.000 A 
ENDBRANCH  19  20
ENDBRANCH  18  19
ENDBRANCH   2  18
TORSDOF 8
ENDMDL
MODEL 8
REMARK VINA RESULT:      -8.1      4.138      6.361
REMARK  Name = 
REMARK  8 active torsions:
REMARK  status: ('A' for Active; 'I' for Inactive)
REMARK    1  A    between atoms: C_2  and  O_16
REMARK    2  A    between atoms: N_3  and  CA_4
REMARK    3  A    between atoms: CA_4  and  C_5
REMARK    4  A    between atoms: CA_4  and  C_13
REMARK    5  A    between atoms: C_5  and  C_6
REMARK    6  A    between atoms: C_13  and  OXT_15
REMARK    7  A    between atoms: O_16  and  C_17
REMARK    8  A    between atoms: C_17  and  C_18
REMARK                            x       y       z     vdW  Elec       q    Type
REMARK                         _______ _______ _______ _____ _____    ______ ____
ROOT
ATOM      1  O   UNL     1       2.645  10.254  17.535  0.00  0.00    +0.000 OA
ATOM      2  C   UNL     1       1.763   9.767  18.235  0.00  0.00    +0.000 C 
ATOM      3  N   UNL     1       0.502  10.287  18.215  0.00  0.00    +0.000 N 
ATOM      4  H   UNL     1       0.338  10.927  17.446  0.00  0.00    +0.000 HD
ENDROOT
BRANCH   3   5
ATOM      5  CA  UNL     1      -0.332  10.450  19.411  0.00  0.00    +0.000 C 
BRANCH   5   6
ATOM      6  C   UNL     1       0.369  11.343  20.449  0.00  0.00    +0.000 C 
ATOM      7  O   UNL     1       0.833  10.930  21.502  0.00  0.00    +0.000 OA
BRANCH   6   8
ATOM      8  OXT UNL     1       0.527  12.630  20.064  0.00  0.00    +0.000 OA
ATOM      9  HXT UNL     1      -0.212  13.220  20.312  0.00  0.00    +0.000 HD
ENDBRANCH   6   8
ENDBRANCH   5   6
BRANCH   5  10
ATOM     10  C   UNL     1      -1.771  10.901  19.117  0.00  0.00    +0.000 C 
BRANCH  10  11
ATOM     11  C   UNL     1      -2.335  10.801  17.714  0.00  0.00    +0.000 A 
ATOM     12  C   UNL     1      -1.762   9.931  16.776  0.00  0.00    +0.000 A 
ATOM     13  C   UNL     1      -2.413   9.656  15.568  0.00  0.00    +0.000 A 
ATOM     14  C   UNL     1      -3.622  10.280  15.270  0.00  0.00    +0.000 A 
ATOM     15 CL   UNL     1      -4.460   9.878  13.822  0.00  0.00    +0.000 Cl
ATOM     16  C   UNL     1      -4.167  11.204  16.154  0.00  0.00    +0.000 A 
ATOM     17  C   UNL     1      -3.532  11.458  17.375  0.00  0.00    +0.000 A 
ENDBRANCH  10  11
ENDBRANCH   5  10
ENDBRANCH   3   5
BRANCH   2  18
ATOM     18  O   UNL     1       1.901   8.681  19.019  0.00  0.00    +0.000 OA
BRANCH  18  19
ATOM     19  C   UNL     1       2.000   7.431  18.298  0.00  0.00    +0.000 C 
BRANCH  19  20
ATOM     20  C   UNL     1       3.026   6.430  18.851  0.00  0.00    +0.000 C 
ATOM     21  C   UNL     1       2.423   5.119  19.346  0.00  0.00    +0.000 A 
ATOM     22  C   UNL     1       1.543   4.919  20.400  0.00  0.00    +0.000 A 
ATOM     23  C   UNL     1       1.156   3.610  20.696  0.00  0.00    +0.000 A 
ATOM     24  C   UNL     1       1.649   2.527  19.950  0.00  0.00    +0.000 A 
ATOM     25  C   UNL     1       2.541   2.734  18.894  0.00  0.00    +0.000 A 
ATOM     26  C   UNL     1       2.927   4.032  18.599  0.00  0.00    +0.000 A 
ATOM     27  C   UNL     1       3.831   4.535  17.586  0.00  0.00    +0.000 A 
ATOM     28  C   UNL     1       4.515   3.874  16.577  0.00  0.00    +0.000 A 
ATOM     29  C   UNL     1       5.291   4.629  15.690  0.00  0.00    +0.000 A 
ATOM     30  C   UNL     1       5.387   6.023  15.827  0.00  0.00    +0.000 A 
ATOM     31  C   UNL     1       4.714   6.688  16.853  0.00  0.00    +0.000 A 
ATOM     32  C   UNL     1       3.928   5.938  17.715  0.00  0.00    +0.000 A 
ENDBRANCH  19  20
ENDBRANCH  18  19
ENDBRANCH   2  18
TORSDOF 8
ENDMDL
MODEL 9
REMARK VINA RESULT:      -8.0      4.135      6.637
REMARK  Name = 
REMARK  8 active torsions:
REMARK  status: ('A' for Active; 'I' for Inactive)
REMARK    1  A    between atoms: C_2  and  O_16
REMARK    2  A    between atoms: N_3  and  CA_4
REMARK    3  A    between atoms: CA_4  and  C_5
REMARK    4  A    between atoms: CA_4  and  C_13
REMARK    5  A    between atoms: C_5  and  C_6
REMARK    6  A    between atoms: C_13  and  OXT_15
REMARK    7  A    between atoms: O_16  and  C_17
REMARK    8  A    between atoms: C_17  and  C_18
REMARK                            x       y       z     vdW  Elec       q    Type
REMARK                         _______ _______ _______ _____ _____    ______ ____
ROOT
ATOM      1  O   UNL     1      -0.065   9.288  17.431  0.00  0.00    +0.000 OA
ATOM      2  C   UNL     1       0.656   9.635  18.362  0.00  0.00    +0.000 C 
ATOM      3  N   UNL     1       0.422  10.810  19.014  0.00  0.00    +0.000 N 
ATOM      4  H   UNL     1      -0.483  11.218  18.804  0.00  0.00    +0.000 HD
ENDROOT
BRANCH   3   5
ATOM      5  CA  UNL     1       1.480  11.723  19.458  0.00  0.00    +0.000 C 
BRANCH   5   6
ATOM      6  C   UNL     1       1.769  12.788  18.385  0.00  0.00    +0.000 C 
ATOM      7  O   UNL     1       1.336  13.930  18.423  0.00  0.00    +0.000 OA
BRANCH   6   8
ATOM      8  OXT UNL     1       2.636  12.392  17.425  0.00  0.00    +0.000 OA
ATOM      9  HXT UNL     1       2.517  12.840  16.564  0.00  0.00    +0.000 HD
ENDBRANCH   6   8
ENDBRANCH   5   6
BRANCH   5  10
ATOM     10  C   UNL     1       1.244  12.331  20.848  0.00  0.00    +0.000 C 
BRANCH  10  11
ATOM     11  C   UNL     1      -0.111  12.216  21.516  0.00  0.00    +0.000 A 
ATOM     12  C   UNL     1      -0.389  11.152  22.386  0.00  0.00    +0.000 A 
ATOM     13  C   UNL     1      -1.538  11.166  23.185  0.00  0.00    +0.000 A 
ATOM     14  C   UNL     1      -2.440  12.224  23.091  0.00  0.00    +0.000 A 
ATOM     15 CL   UNL     1      -3.809  12.278  24.132  0.00  0.00    +0.000 Cl
ATOM     16  C   UNL     1      -2.221  13.249  22.178  0.00  0.00    +0.000 A 
ATOM     17  C   UNL     1      -1.057  13.251  21.399  0.00  0.00    +0.000 A 
ENDBRANCH  10  11
ENDBRANCH   5  10
ENDBRANCH   3   5
BRANCH   2  18
ATOM     18  O   UNL     1       1.675   8.914  18.869  0.00  0.00    +0.000 OA
BRANCH  18  19
ATOM     19  C   UNL     1       2.213   7.922  17.966  0.00  0.00    +0.000 C 
BRANCH  19  20
ATOM     20  C   UNL     1       3.155   6.890  18.605  0.00  0.00    +0.000 C 
ATOM     21  C   UNL     1       2.449   5.670  19.189  0.00  0.00    +0.000 A 
ATOM     22  C   UNL     1       1.549   5.618  20.243  0.00  0.00    +0.000 A 
ATOM     23  C   UNL     1       1.060   4.368  20.632  0.00  0.00    +0.000 A 
ATOM     24  C   UNL     1       1.473   3.197  19.975  0.00  0.00    +0.000 A 
ATOM     25  C   UNL     1       2.386   3.255  18.918  0.00  0.00    +0.000 A 
ATOM     26  C   UNL     1       2.873   4.494  18.532  0.00  0.00    +0.000 A 
ATOM     27  C   UNL     1       3.820   4.849  17.496  0.00  0.00    +0.000 A 
ATOM     28  C   UNL     1       4.458   4.063  16.547  0.00  0.00    +0.000 A 
ATOM     29  C   UNL     1       5.296   4.687  15.616  0.00  0.00    +0.000 A 
ATOM     30  C   UNL     1       5.498   6.076  15.650  0.00  0.00    +0.000 A 
ATOM     31  C   UNL     1       4.871   6.866  16.615  0.00  0.00    +0.000 A 
ATOM     32  C   UNL     1       4.024   6.246  17.521  0.00  0.00    +0.000 A 
ENDBRANCH  19  20
ENDBRANCH  18  19
ENDBRANCH   2  18
TORSDOF 8
ENDMDL
