MODEL 1
REMARK VINA RESULT:      -7.5      0.000      0.000
REMARK  Name = 
REMARK  6 active torsions:
REMARK  status: ('A' for Active; 'I' for Inactive)
REMARK    1  A    between atoms: C_3  and  O_4
REMARK    2  A    between atoms: O_4  and  C_5
REMARK    3  A    between atoms: C_5  and  C_6
REMARK    4  A    between atoms: C_6  and  N_7
REMARK    5  A    between atoms: C_15  and  C_16
REMARK    6  A    between atoms: C_16  and  N_17
REMARK                            x       y       z     vdW  Elec       q    Type
REMARK                         _______ _______ _______ _____ _____    ______ ____
ROOT
ATOM      1  C   UNL     1       5.037   5.313  16.771  0.00  0.00    +0.000 A 
ATOM      2  C   UNL     1       5.910   6.325  16.448  0.00  0.00    +0.000 A 
ATOM      3  C   UNL     1       6.923   6.741  17.317  0.00  0.00    +0.000 A 
ATOM      4  C   UNL     1       7.020   6.138  18.572  0.00  0.00    +0.000 A 
ATOM      5  C   UNL     1       6.128   5.121  18.915  0.00  0.00    +0.000 A 
ATOM      6  C   UNL     1       5.128   4.682  18.002  0.00  0.00    +0.000 A 
ENDROOT
BRANCH   3   7
ATOM      7  O   UNL     1       7.827   7.711  16.935  0.00  0.00    +0.000 OA
BRANCH   7   8
ATOM      8  C   UNL     1       8.313   8.420  18.090  0.00  0.00    +0.000 C 
BRANCH   8   9
ATOM      9  C   UNL     1       8.146   9.914  18.023  0.00  0.00    +0.000 C 
BRANCH   9  10
ATOM     10  N   UNL     1       9.339  10.639  18.510  0.00  0.00    +0.000 NA
ATOM     11  C   UNL     1       9.397  11.932  17.826  0.00  0.00    +0.000 C 
ATOM     12  C   UNL     1      10.632  12.731  18.227  0.00  0.00    +0.000 C 
ATOM     13  C   UNL     1      10.707  12.917  19.737  0.00  0.00    +0.000 C 
ATOM     14  C   UNL     1      10.622  11.567  20.434  0.00  0.00    +0.000 C 
ATOM     15  C   UNL     1       9.378  10.805  19.978  0.00  0.00    +0.000 C 
ENDBRANCH   9  10
ENDBRANCH   8   9
ENDBRANCH   7   8
ENDBRANCH   3   7
BRANCH   6  16
ATOM     16  C   UNL     1       4.204   3.544  18.314  0.00  0.00    +0.000 C 
BRANCH  16  17
ATOM     17  N   UNL     1       3.371   3.749  19.521  0.00  0.00    +0.000 NA
ATOM     18  C   UNL     1       1.987   4.076  19.149  0.00  0.00    +0.000 C 
ATOM     19  C   UNL     1       1.003   4.041  20.318  0.00  0.00    +0.000 C 
ATOM     20  C   UNL     1       1.119   2.746  21.104  0.00  0.00    +0.000 C 
ATOM     21  C   UNL     1       2.550   2.576  21.588  0.00  0.00    +0.000 C 
ATOM     22  C   UNL     1       3.535   2.600  20.421  0.00  0.00    +0.000 C 
ENDBRANCH  16  17
ENDBRANCH   6  16
TORSDOF 6
ENDMDL
MODEL 2
REMARK VINA RESULT:      -7.5      1.066      1.187
REMARK  Name = 
REMARK  6 active torsions:
REMARK  status: ('A' for Active; 'I' for Inactive)
REMARK    1  A    between atoms: C_3  and  O_4
REMARK    2  A    between atoms: O_4  and  C_5
REMARK    3  A    between atoms: C_5  and  C_6
REMARK    4  A    between atoms: C_6  and  N_7
REMARK    5  A    between atoms: C_15  and  C_16
REMARK    6  A    between atoms: C_16  and  N_17
REMARK                            x       y       z     vdW  Elec       q    Type
REMARK                         _______ _______ _______ _____ _____    ______ ____
ROOT
ATOM      1  C   UNL     1       5.171   5.982  17.722  0.00  0.00    +0.000 A 
ATOM      2  C   UNL     1       5.918   7.043  17.267  0.00  0.00    +0.000 A 
ATOM      3  C   UNL     1       7.225   7.276  17.709  0.00  0.00    +0.000 A 
ATOM      4  C   UNL     1       7.768   6.430  18.676  0.00  0.00    +0.000 A 
ATOM      5  C   UNL     1       7.011   5.360  19.155  0.00  0.00    +0.000 A 
ATOM      6  C   UNL     1       5.697   5.112  18.665  0.00  0.00    +0.000 A 
ENDROOT
BRANCH   3   7
ATOM      7  O   UNL     1       7.974   8.309  17.181  0.00  0.00    +0.000 OA
BRANCH   7   8
ATOM      8  C   UNL     1       8.448   9.167  18.234  0.00  0.00    +0.000 C 
BRANCH   8   9
ATOM      9  C   UNL     1       8.575  10.616  17.852  0.00  0.00    +0.000 C 
BRANCH   9  10
ATOM     10  N   UNL     1       9.813  11.234  18.374  0.00  0.00    +0.000 NA
ATOM     11  C   UNL     1       9.879  12.610  17.881  0.00  0.00    +0.000 C 
ATOM     12  C   UNL     1      11.156  13.313  18.326  0.00  0.00    +0.000 C 
ATOM     13  C   UNL     1      11.311  13.276  19.841  0.00  0.00    +0.000 C 
ATOM     14  C   UNL     1      11.216  11.842  20.341  0.00  0.00    +0.000 C 
ATOM     15  C   UNL     1       9.927  11.185  19.846  0.00  0.00    +0.000 C 
ENDBRANCH   9  10
ENDBRANCH   8   9
ENDBRANCH   7   8
ENDBRANCH   3   7
BRANCH   6  16
ATOM     16  C   UNL     1       4.888   3.931  19.106  0.00  0.00    +0.000 C 
BRANCH  16  17
ATOM     17  N   UNL     1       3.423   4.132  19.031  0.00  0.00    +0.000 NA
ATOM     18  C   UNL     1       2.775   2.985  18.379  0.00  0.00    +0.000 C 
ATOM     19  C   UNL     1       1.250   2.983  18.496  0.00  0.00    +0.000 C 
ATOM     20  C   UNL     1       0.803   3.184  19.933  0.00  0.00    +0.000 C 
ATOM     21  C   UNL     1       1.391   4.479  20.469  0.00  0.00    +0.000 C 
ATOM     22  C   UNL     1       2.914   4.480  20.363  0.00  0.00    +0.000 C 
ENDBRANCH  16  17
ENDBRANCH   6  16
TORSDOF 6
ENDMDL
MODEL 3
REMARK VINA RESULT:      -7.2      1.286      1.880
REMARK  Name = 
REMARK  6 active torsions:
REMARK  status: ('A' for Active; 'I' for Inactive)
REMARK    1  A    between atoms: C_3  and  O_4
REMARK    2  A    between atoms: O_4  and  C_5
REMARK    3  A    between atoms: C_5  and  C_6
REMARK    4  A    between atoms: C_6  and  N_7
REMARK    5  A    between atoms: C_15  and  C_16
REMARK    6  A    between atoms: C_16  and  N_17
REMARK                            x       y       z     vdW  Elec       q    Type
REMARK                         _______ _______ _______ _____ _____    ______ ____
ROOT
ATOM      1  C   UNL     1       6.229   5.035  18.571  0.00  0.00    +0.000 A 
ATOM      2  C   UNL     1       7.332   5.816  18.821  0.00  0.00    +0.000 A 
ATOM      3  C   UNL     1       7.544   7.035  18.168  0.00  0.00    +0.000 A 
ATOM      4  C   UNL     1       6.627   7.447  17.200  0.00  0.00    +0.000 A 
ATOM      5  C   UNL     1       5.512   6.651  16.929  0.00  0.00    +0.000 A 
ATOM      6  C   UNL     1       5.291   5.433  17.632  0.00  0.00    +0.000 A 
ENDROOT
BRANCH   3   7
ATOM      7  O   UNL     1       8.625   7.830  18.492  0.00  0.00    +0.000 OA
BRANCH   7   8
ATOM      8  C   UNL     1       8.334   9.208  18.194  0.00  0.00    +0.000 C 
BRANCH   8   9
ATOM      9  C   UNL     1       9.085  10.203  19.036  0.00  0.00    +0.000 C 
BRANCH   9  10
ATOM     10  N   UNL     1       9.435  11.429  18.287  0.00  0.00    +0.000 NA
ATOM     11  C   UNL     1       9.099  12.584  19.122  0.00  0.00    +0.000 C 
ATOM     12  C   UNL     1       9.377  13.901  18.407  0.00  0.00    +0.000 C 
ATOM     13  C   UNL     1      10.822  13.982  17.932  0.00  0.00    +0.000 C 
ATOM     14  C   UNL     1      11.162  12.764  17.086  0.00  0.00    +0.000 C 
ATOM     15  C   UNL     1      10.844  11.476  17.846  0.00  0.00    +0.000 C 
ENDBRANCH   9  10
ENDBRANCH   8   9
ENDBRANCH   7   8
ENDBRANCH   3   7
BRANCH   6  16
ATOM     16  C   UNL     1       4.068   4.595  17.415  0.00  0.00    +0.000 C 
BRANCH  16  17
ATOM     17  N   UNL     1       3.425   4.120  18.661  0.00  0.00    +0.000 NA
ATOM     18  C   UNL     1       2.596   5.178  19.254  0.00  0.00    +0.000 C 
ATOM     19  C   UNL     1       1.689   4.698  20.388  0.00  0.00    +0.000 C 
ATOM     20  C   UNL     1       0.891   3.472  19.979  0.00  0.00    +0.000 C 
ATOM     21  C   UNL     1       1.842   2.373  19.536  0.00  0.00    +0.000 C 
ATOM     22  C   UNL     1       2.742   2.847  18.397  0.00  0.00    +0.000 C 
ENDBRANCH  16  17
ENDBRANCH   6  16
TORSDOF 6
ENDMDL
MODEL 4
REMARK VINA RESULT:      -7.1      0.808      1.254
REMARK  Name = 
REMARK  6 active torsions:
REMARK  status: ('A' for Active; 'I' for Inactive)
REMARK    1  A    between atoms: C_3  and  O_4
REMARK    2  A    between atoms: O_4  and  C_5
REMARK    3  A    between atoms: C_5  and  C_6
REMARK    4  A    between atoms: C_6  and  N_7
REMARK    5  A    between atoms: C_15  and  C_16
REMARK    6  A    between atoms: C_16  and  N_17
REMARK                            x       y       z     vdW  Elec       q    Type
REMARK                         _______ _______ _______ _____ _____    ______ ____
ROOT
ATOM      1  C   UNL     1       6.859   4.627  18.453  0.00  0.00    +0.000 A 
ATOM      2  C   UNL     1       7.595   5.664  17.930  0.00  0.00    +0.000 A 
ATOM      3  C   UNL     1       6.994   6.783  17.344  0.00  0.00    +0.000 A 
ATOM      4  C   UNL     1       5.602   6.824  17.248  0.00  0.00    +0.000 A 
ATOM      5  C   UNL     1       4.848   5.768  17.762  0.00  0.00    +0.000 A 
ATOM      6  C   UNL     1       5.474   4.655  18.392  0.00  0.00    +0.000 A 
ENDROOT
BRANCH   3   7
ATOM      7  O   UNL     1       7.758   7.839  16.892  0.00  0.00    +0.000 OA
BRANCH   7   8
ATOM      8  C   UNL     1       8.240   8.615  18.004  0.00  0.00    +0.000 C 
BRANCH   8   9
ATOM      9  C   UNL     1       8.197  10.104  17.795  0.00  0.00    +0.000 C 
BRANCH   9  10
ATOM     10  N   UNL     1       9.364  10.793  18.386  0.00  0.00    +0.000 NA
ATOM     11  C   UNL     1       9.385  12.168  17.883  0.00  0.00    +0.000 C 
ATOM     12  C   UNL     1      10.591  12.943  18.399  0.00  0.00    +0.000 C 
ATOM     13  C   UNL     1      10.653  12.926  19.921  0.00  0.00    +0.000 C 
ATOM     14  C   UNL     1      10.606  11.493  20.430  0.00  0.00    +0.000 C 
ATOM     15  C   UNL     1       9.389  10.761  19.863  0.00  0.00    +0.000 C 
ENDBRANCH   9  10
ENDBRANCH   8   9
ENDBRANCH   7   8
ENDBRANCH   3   7
BRANCH   6  16
ATOM     16  C   UNL     1       4.689   3.543  19.017  0.00  0.00    +0.000 C 
BRANCH  16  17
ATOM     17  N   UNL     1       3.243   3.825  19.163  0.00  0.00    +0.000 NA
ATOM     18  C   UNL     1       2.464   3.073  18.169  0.00  0.00    +0.000 C 
ATOM     19  C   UNL     1       0.955   3.094  18.415  0.00  0.00    +0.000 C 
ATOM     20  C   UNL     1       0.620   2.715  19.847  0.00  0.00    +0.000 C 
ATOM     21  C   UNL     1       1.343   3.652  20.801  0.00  0.00    +0.000 C 
ATOM     22  C   UNL     1       2.851   3.626  20.564  0.00  0.00    +0.000 C 
ENDBRANCH  16  17
ENDBRANCH   6  16
TORSDOF 6
ENDMDL
MODEL 5
REMARK VINA RESULT:      -7.0      1.315      1.854
REMARK  Name = 
REMARK  6 active torsions:
REMARK  status: ('A' for Active; 'I' for Inactive)
REMARK    1  A    between atoms: C_3  and  O_4
REMARK    2  A    between atoms: O_4  and  C_5
REMARK    3  A    between atoms: C_5  and  C_6
REMARK    4  A    between atoms: C_6  and  N_7
REMARK    5  A    between atoms: C_15  and  C_16
REMARK    6  A    between atoms: C_16  and  N_17
REMARK                            x       y       z     vdW  Elec       q    Type
REMARK                         _______ _______ _______ _____ _____    ______ ____
ROOT
ATOM      1  C   UNL     1       7.167   5.520  19.199  0.00  0.00    +0.000 A 
ATOM      2  C   UNL     1       7.964   6.516  18.688  0.00  0.00    +0.000 A 
ATOM      3  C   UNL     1       7.514   7.396  17.698  0.00  0.00    +0.000 A 
ATOM      4  C   UNL     1       6.227   7.226  17.184  0.00  0.00    +0.000 A 
ATOM      5  C   UNL     1       5.417   6.207  17.686  0.00  0.00    +0.000 A 
ATOM      6  C   UNL     1       5.877   5.345  18.722  0.00  0.00    +0.000 A 
ENDROOT
BRANCH   3   7
ATOM      7  O   UNL     1       8.314   8.430  17.256  0.00  0.00    +0.000 OA
BRANCH   7   8
ATOM      8  C   UNL     1       8.116   9.596  18.076  0.00  0.00    +0.000 C 
BRANCH   8   9
ATOM      9  C   UNL     1       9.175   9.813  19.122  0.00  0.00    +0.000 C 
BRANCH   9  10
ATOM     10  N   UNL     1       9.830  11.134  19.000  0.00  0.00    +0.000 NA
ATOM     11  C   UNL     1      10.448  11.215  17.675  0.00  0.00    +0.000 C 
ATOM     12  C   UNL     1      11.197  12.527  17.478  0.00  0.00    +0.000 C 
ATOM     13  C   UNL     1      10.291  13.727  17.723  0.00  0.00    +0.000 C 
ATOM     14  C   UNL     1       9.637  13.616  19.093  0.00  0.00    +0.000 C 
ATOM     15  C   UNL     1       8.921  12.273  19.239  0.00  0.00    +0.000 C 
ENDBRANCH   9  10
ENDBRANCH   8   9
ENDBRANCH   7   8
ENDBRANCH   3   7
BRANCH   6  16
ATOM     16  C   UNL     1       5.005   4.290  19.331  0.00  0.00    +0.000 C 
BRANCH  16  17
ATOM     17  N   UNL     1       3.553   4.529  19.167  0.00  0.00    +0.000 NA
ATOM     18  C   UNL     1       2.957   3.521  18.280  0.00  0.00    +0.000 C 
ATOM     19  C   UNL     1       1.428   3.529  18.267  0.00  0.00    +0.000 C 
ATOM     20  C   UNL     1       0.859   3.497  19.675  0.00  0.00    +0.000 C 
ATOM     21  C   UNL     1       1.406   4.672  20.468  0.00  0.00    +0.000 C 
ATOM     22  C   UNL     1       2.933   4.661  20.491  0.00  0.00    +0.000 C 
ENDBRANCH  16  17
ENDBRANCH   6  16
TORSDOF 6
ENDMDL
MODEL 6
REMARK VINA RESULT:      -7.0      5.078      8.792
REMARK  Name = 
REMARK  6 active torsions:
REMARK  status: ('A' for Active; 'I' for Inactive)
REMARK    1  A    between atoms: C_3  and  O_4
REMARK    2  A    between atoms: O_4  and  C_5
REMARK    3  A    between atoms: C_5  and  C_6
REMARK    4  A    between atoms: C_6  and  N_7
REMARK    5  A    between atoms: C_15  and  C_16
REMARK    6  A    between atoms: C_16  and  N_17
REMARK                            x       y       z     vdW  Elec       q    Type
REMARK                         _______ _______ _______ _____ _____    ______ ____
ROOT
ATOM      1  C   UNL     1       2.014   7.410  20.025  0.00  0.00    +0.000 A 
ATOM      2  C   UNL     1       2.874   6.447  19.552  0.00  0.00    +0.000 A 
ATOM      3  C   UNL     1       3.488   6.549  18.300  0.00  0.00    +0.000 A 
ATOM      4  C   UNL     1       3.182   7.642  17.488  0.00  0.00    +0.000 A 
ATOM      5  C   UNL     1       2.298   8.616  17.954  0.00  0.00    +0.000 A 
ATOM      6  C   UNL     1       1.712   8.518  19.249  0.00  0.00    +0.000 A 
ENDROOT
BRANCH   3   7
ATOM      7  O   UNL     1       4.401   5.601  17.883  0.00  0.00    +0.000 OA
BRANCH   7   8
ATOM      8  C   UNL     1       3.725   4.526  17.203  0.00  0.00    +0.000 C 
BRANCH   8   9
ATOM      9  C   UNL     1       4.026   3.155  17.745  0.00  0.00    +0.000 C 
BRANCH   9  10
ATOM     10  N   UNL     1       3.042   2.718  18.758  0.00  0.00    +0.000 NA
ATOM     11  C   UNL     1       3.565   3.066  20.081  0.00  0.00    +0.000 C 
ATOM     12  C   UNL     1       2.638   2.602  21.198  0.00  0.00    +0.000 C 
ATOM     13  C   UNL     1       1.229   3.151  21.015  0.00  0.00    +0.000 C 
ATOM     14  C   UNL     1       0.709   2.802  19.628  0.00  0.00    +0.000 C 
ATOM     15  C   UNL     1       1.689   3.273  18.553  0.00  0.00    +0.000 C 
ENDBRANCH   9  10
ENDBRANCH   8   9
ENDBRANCH   7   8
ENDBRANCH   3   7
BRANCH   6  16
ATOM     16  C   UNL     1       0.817   9.583  19.804  0.00  0.00    +0.000 C 
BRANCH  16  17
ATOM     17  N   UNL     1       0.539  10.696  18.868  0.00  0.00    +0.000 NA
ATOM     18  C   UNL     1      -0.907  10.931  18.755  0.00  0.00    +0.000 C 
ATOM     19  C   UNL     1      -1.272  12.223  18.024  0.00  0.00    +0.000 C 
ATOM     20  C   UNL     1      -0.516  13.414  18.587  0.00  0.00    +0.000 C 
ATOM     21  C   UNL     1       0.978  13.145  18.510  0.00  0.00    +0.000 C 
ATOM     22  C   UNL     1       1.348  11.861  19.248  0.00  0.00    +0.000 C 
ENDBRANCH  16  17
ENDBRANCH   6  16
TORSDOF 6
ENDMDL
MODEL 7
REMARK VINA RESULT:      -7.0      1.413      2.172
REMARK  Name = 
REMARK  6 active torsions:
REMARK  status: ('A' for Active; 'I' for Inactive)
REMARK    1  A    between atoms: C_3  and  O_4
REMARK    2  A    between atoms: O_4  and  C_5
REMARK    3  A    between atoms: C_5  and  C_6
REMARK    4  A    between atoms: C_6  and  N_7
REMARK    5  A    between atoms: C_15  and  C_16
REMARK    6  A    between atoms: C_16  and  N_17
REMARK                            x       y       z     vdW  Elec       q    Type
REMARK                         _______ _______ _______ _____ _____    ______ ____
ROOT
ATOM      1  C   UNL     1       6.888   4.883  18.269  0.00  0.00    +0.000 A 
ATOM      2  C   UNL     1       7.793   5.833  18.680  0.00  0.00    +0.000 A 
ATOM      3  C   UNL     1       7.779   7.140  18.181  0.00  0.00    +0.000 A 
ATOM      4  C   UNL     1       6.843   7.474  17.202  0.00  0.00    +0.000 A 
ATOM      5  C   UNL     1       5.931   6.511  16.767  0.00  0.00    +0.000 A 
ATOM      6  C   UNL     1       5.933   5.197  17.315  0.00  0.00    +0.000 A 
ENDROOT
BRANCH   3   7
ATOM      7  O   UNL     1       8.655   8.090  18.665  0.00  0.00    +0.000 OA
BRANCH   7   8
ATOM      8  C   UNL     1       8.291   9.395  18.180  0.00  0.00    +0.000 C 
BRANCH   8   9
ATOM      9  C   UNL     1       9.412  10.398  18.178  0.00  0.00    +0.000 C 
BRANCH   9  10
ATOM     10  N   UNL     1       9.184  11.503  19.134  0.00  0.00    +0.000 NA
ATOM     11  C   UNL     1       9.438  10.997  20.484  0.00  0.00    +0.000 C 
ATOM     12  C   UNL     1       9.174  12.058  21.547  0.00  0.00    +0.000 C 
ATOM     13  C   UNL     1       9.985  13.321  21.284  0.00  0.00    +0.000 C 
ATOM     14  C   UNL     1       9.729  13.821  19.870  0.00  0.00    +0.000 C 
ATOM     15  C   UNL     1       9.989  12.710  18.853  0.00  0.00    +0.000 C 
ENDBRANCH   9  10
ENDBRANCH   8   9
ENDBRANCH   7   8
ENDBRANCH   3   7
BRANCH   6  16
ATOM     16  C   UNL     1       4.921   4.164  16.922  0.00  0.00    +0.000 C 
BRANCH  16  17
ATOM     17  N   UNL     1       3.941   3.836  17.982  0.00  0.00    +0.000 NA
ATOM     18  C   UNL     1       2.804   4.767  17.945  0.00  0.00    +0.000 C 
ATOM     19  C   UNL     1       1.625   4.344  18.822  0.00  0.00    +0.000 C 
ATOM     20  C   UNL     1       1.225   2.903  18.560  0.00  0.00    +0.000 C 
ATOM     21  C   UNL     1       2.425   1.997  18.782  0.00  0.00    +0.000 C 
ATOM     22  C   UNL     1       3.601   2.410  17.900  0.00  0.00    +0.000 C 
ENDBRANCH  16  17
ENDBRANCH   6  16
TORSDOF 6
ENDMDL
MODEL 8
REMARK VINA RESULT:      -6.9      5.363      7.839
REMARK  Name = 
REMARK  6 active torsions:
REMARK  status: ('A' for Active; 'I' for Inactive)
REMARK    1  A    between atoms: C_3  and  O_4
REMARK    2  A    between atoms: O_4  and  C_5
REMARK    3  A    between atoms: C_5  and  C_6
REMARK    4  A    between atoms: C_6  and  N_7
REMARK    5  A    between atoms: C_15  and  C_16
REMARK    6  A    between atoms: C_16  and  N_17
REMARK                            x       y       z     vdW  Elec       q    Type
REMARK                         _______ _______ _______ _____ _____    ______ ____
ROOT
ATOM      1  C   UNL     1       1.760   8.612  18.001  0.00  0.00    +0.000 A 
ATOM      2  C   UNL     1       2.377   7.439  18.367  0.00  0.00    +0.000 A 
ATOM      3  C   UNL     1       2.326   6.948  19.676  0.00  0.00    +0.000 A 
ATOM      4  C   UNL     1       1.664   7.698  20.649  0.00  0.00    +0.000 A 
ATOM      5  C   UNL     1       1.049   8.898  20.290  0.00  0.00    +0.000 A 
ATOM      6  C   UNL     1       1.077   9.364  18.944  0.00  0.00    +0.000 A 
ENDROOT
BRANCH   3   7
ATOM      7  O   UNL     1       2.895   5.732  19.995  0.00  0.00    +0.000 OA
BRANCH   7   8
ATOM      8  C   UNL     1       4.186   5.609  19.371  0.00  0.00    +0.000 C 
BRANCH   8   9
ATOM      9  C   UNL     1       4.636   4.192  19.137  0.00  0.00    +0.000 C 
BRANCH   9  10
ATOM     10  N   UNL     1       5.418   4.045  17.890  0.00  0.00    +0.000 NA
ATOM     11  C   UNL     1       4.588   4.507  16.775  0.00  0.00    +0.000 C 
ATOM     12  C   UNL     1       5.295   4.341  15.435  0.00  0.00    +0.000 C 
ATOM     13  C   UNL     1       6.646   5.045  15.429  0.00  0.00    +0.000 C 
ATOM     14  C   UNL     1       7.487   4.572  16.606  0.00  0.00    +0.000 C 
ATOM     15  C   UNL     1       6.719   4.744  17.917  0.00  0.00    +0.000 C 
ENDBRANCH   9  10
ENDBRANCH   8   9
ENDBRANCH   7   8
ENDBRANCH   3   7
BRANCH   6  16
ATOM     16  C   UNL     1       0.364  10.610  18.515  0.00  0.00    +0.000 C 
BRANCH  16  17
ATOM     17  N   UNL     1      -1.112  10.520  18.574  0.00  0.00    +0.000 NA
ATOM     18  C   UNL     1      -1.699  11.824  18.914  0.00  0.00    +0.000 C 
ATOM     19  C   UNL     1      -3.216  11.889  18.735  0.00  0.00    +0.000 C 
ATOM     20  C   UNL     1      -3.638  11.383  17.367  0.00  0.00    +0.000 C 
ATOM     21  C   UNL     1      -3.124   9.966  17.172  0.00  0.00    +0.000 C 
ATOM     22  C   UNL     1      -1.608   9.899  17.339  0.00  0.00    +0.000 C 
ENDBRANCH  16  17
ENDBRANCH   6  16
TORSDOF 6
ENDMDL
MODEL 9
REMARK VINA RESULT:      -6.9      6.268      8.701
REMARK  Name = 
REMARK  6 active torsions:
REMARK  status: ('A' for Active; 'I' for Inactive)
REMARK    1  A    between atoms: C_3  and  O_4
REMARK    2  A    between atoms: O_4  and  C_5
REMARK    3  A    between atoms: C_5  and  C_6
REMARK    4  A    between atoms: C_6  and  N_7
REMARK    5  A    between atoms: C_15  and  C_16
REMARK    6  A    between atoms: C_16  and  N_17
REMARK                            x       y       z     vdW  Elec       q    Type
REMARK                         _______ _______ _______ _____ _____    ______ ____
ROOT
ATOM      1  C   UNL     1       1.892   8.488  18.701  0.00  0.00    +0.000 A 
ATOM      2  C   UNL     1       1.311   9.724  18.862  0.00  0.00    +0.000 A 
ATOM      3  C   UNL     1       0.826  10.163  20.098  0.00  0.00    +0.000 A 
ATOM      4  C   UNL     1       0.896   9.299  21.192  0.00  0.00    +0.000 A 
ATOM      5  C   UNL     1       1.470   8.036  21.033  0.00  0.00    +0.000 A 
ATOM      6  C   UNL     1       1.995   7.621  19.777  0.00  0.00    +0.000 A 
ENDROOT
BRANCH   3   7
ATOM      7  O   UNL     1       0.312  11.436  20.243  0.00  0.00    +0.000 OA
BRANCH   7   8
ATOM      8  C   UNL     1      -0.569  11.743  19.147  0.00  0.00    +0.000 C 
BRANCH   8   9
ATOM      9  C   UNL     1      -2.030  11.542  19.443  0.00  0.00    +0.000 C 
BRANCH   9  10
ATOM     10  N   UNL     1      -2.749  10.887  18.328  0.00  0.00    +0.000 NA
ATOM     11  C   UNL     1      -3.823  11.781  17.892  0.00  0.00    +0.000 C 
ATOM     12  C   UNL     1      -4.657  11.163  16.776  0.00  0.00    +0.000 C 
ATOM     13  C   UNL     1      -3.788  10.751  15.595  0.00  0.00    +0.000 C 
ATOM     14  C   UNL     1      -2.662   9.842  16.068  0.00  0.00    +0.000 C 
ATOM     15  C   UNL     1      -1.876  10.506  17.199  0.00  0.00    +0.000 C 
ENDBRANCH   9  10
ENDBRANCH   8   9
ENDBRANCH   7   8
ENDBRANCH   3   7
BRANCH   6  16
ATOM     16  C   UNL     1       2.682   6.302  19.594  0.00  0.00    +0.000 C 
BRANCH  16  17
ATOM     17  N   UNL     1       1.777   5.131  19.649  0.00  0.00    +0.000 NA
ATOM     18  C   UNL     1       1.856   4.355  18.402  0.00  0.00    +0.000 C 
ATOM     19  C   UNL     1       1.164   2.994  18.472  0.00  0.00    +0.000 C 
ATOM     20  C   UNL     1       1.606   2.207  19.694  0.00  0.00    +0.000 C 
ATOM     21  C   UNL     1       1.334   3.024  20.946  0.00  0.00    +0.000 C 
ATOM     22  C   UNL     1       2.032   4.380  20.884  0.00  0.00    +0.000 C 
ENDBRANCH  16  17
ENDBRANCH   6  16
TORSDOF 6
ENDMDL
