MODEL 1
REMARK VINA RESULT:      -7.3      0.000      0.000
REMARK  Name = 
REMARK  10 active torsions:
REMARK  status: ('A' for Active; 'I' for Inactive)
REMARK    1  A    between atoms: C_1  and  C_2
REMARK    2  A    between atoms: C_5  and  C_6
REMARK    3  A    between atoms: C_7  and  C_8
REMARK    4  A    between atoms: C_8  and  N_9
REMARK    5  A    between atoms: C_14  and  C_15
REMARK    6  A    between atoms: C_15  and  O_16
REMARK    7  A    between atoms: O_16  and  C_17
REMARK    8  A    between atoms: C_17  and  C_18
REMARK    9  A    between atoms: C_18  and  C_19
REMARK   10  A    between atoms: C_18  and  C_20
REMARK                            x       y       z     vdW  Elec       q    Type
REMARK                         _______ _______ _______ _____ _____    ______ ____
ROOT
ATOM      1  N   UNL     1       4.039   3.408  18.494  0.00  0.00    +0.000 NA
ATOM      2  C   UNL     1       3.404   2.220  17.887  0.00  0.00    +0.000 C 
ATOM      3  C   UNL     1       1.973   2.719  17.568  0.00  0.00    +0.000 C 
ATOM      4  C   UNL     1       1.744   3.994  18.450  0.00  0.00    +0.000 C 
ATOM      5  O   UNL     1       1.905   5.283  17.779  0.00  0.00    +0.000 OA
ATOM      6  C   UNL     1       2.052   6.473  18.635  0.00  0.00    +0.000 C 
ATOM      7  C   UNL     1       2.950   6.254  19.857  0.00  0.00    +0.000 C 
ATOM      8  C   UNL     1       2.888   4.886  20.450  0.00  0.00    +0.000 C 
ATOM      9  C   UNL     1       2.896   3.792  19.410  0.00  0.00    +0.000 C 
ENDROOT
BRANCH   1  10
ATOM     10  C   UNL     1       4.320   4.318  17.326  0.00  0.00    +0.000 C 
BRANCH  10  17
ATOM     11  C   UNL     1       6.489   5.273  19.324  0.00  0.00    +0.000 C 
ATOM     12  C   UNL     1       6.751   4.859  17.932  0.00  0.00    +0.000 A 
ATOM     13  N   UNL     1       7.968   4.909  17.386  0.00  0.00    +0.000 NA
ATOM     14  O   UNL     1       7.801   4.509  16.073  0.00  0.00    +0.000 OA
ATOM     15  C   UNL     1       6.488   4.221  15.839  0.00  0.00    +0.000 A 
ATOM     16  C   UNL     1       6.181   3.856  14.438  0.00  0.00    +0.000 C 
ATOM     17  C   UNL     1       5.776   4.405  17.015  0.00  0.00    +0.000 A 
ENDBRANCH  10  17
ENDBRANCH   1  10
BRANCH   6  18
ATOM     18  C   UNL     1       2.684   7.670  17.827  0.00  0.00    +0.000 C 
BRANCH  18  19
ATOM     19  O   UNL     1       1.869   8.779  17.414  0.00  0.00    +0.000 OA
BRANCH  19  20
ATOM     20  C   UNL     1       1.794  10.021  18.121  0.00  0.00    +0.000 C 
BRANCH  20  21
ATOM     21  C   UNL     1       0.507  10.406  18.895  0.00  0.00    +0.000 C 
ATOM     22  C   UNL     1      -0.783  10.146  18.109  0.00  0.00    +0.000 C 
ATOM     23  C   UNL     1       0.435   9.606  20.210  0.00  0.00    +0.000 C 
ENDBRANCH  20  21
ENDBRANCH  19  20
ENDBRANCH  18  19
ENDBRANCH   6  18
TORSDOF 6
ENDMDL
MODEL 2
REMARK VINA RESULT:      -7.2      2.757      6.848
REMARK  Name = 
REMARK  10 active torsions:
REMARK  status: ('A' for Active; 'I' for Inactive)
REMARK    1  A    between atoms: C_1  and  C_2
REMARK    2  A    between atoms: C_5  and  C_6
REMARK    3  A    between atoms: C_7  and  C_8
REMARK    4  A    between atoms: C_8  and  N_9
REMARK    5  A    between atoms: C_14  and  C_15
REMARK    6  A    between atoms: C_15  and  O_16
REMARK    7  A    between atoms: O_16  and  C_17
REMARK    8  A    between atoms: C_17  and  C_18
REMARK    9  A    between atoms: C_18  and  C_19
REMARK   10  A    between atoms: C_18  and  C_20
REMARK                            x       y       z     vdW  Elec       q    Type
REMARK                         _______ _______ _______ _____ _____    ______ ____
ROOT
ATOM      1  N   UNL     1       4.854   5.149  18.934  0.00  0.00    +0.000 NA
ATOM      2  C   UNL     1       3.809   6.167  19.172  0.00  0.00    +0.000 C 
ATOM      3  C   UNL     1       3.832   6.998  17.865  0.00  0.00    +0.000 C 
ATOM      4  C   UNL     1       5.210   6.700  17.177  0.00  0.00    +0.000 C 
ATOM      5  O   UNL     1       5.190   5.732  16.082  0.00  0.00    +0.000 OA
ATOM      6  C   UNL     1       6.484   5.166  15.662  0.00  0.00    +0.000 C 
ATOM      7  C   UNL     1       7.421   4.821  16.825  0.00  0.00    +0.000 C 
ATOM      8  C   UNL     1       7.328   5.734  18.002  0.00  0.00    +0.000 C 
ATOM      9  C   UNL     1       5.907   6.081  18.370  0.00  0.00    +0.000 C 
ENDROOT
BRANCH   1  10
ATOM     10  C   UNL     1       4.214   4.175  17.978  0.00  0.00    +0.000 C 
BRANCH  10  17
ATOM     11  C   UNL     1       1.174   4.221  17.376  0.00  0.00    +0.000 C 
ATOM     12  C   UNL     1       1.821   3.348  18.375  0.00  0.00    +0.000 A 
ATOM     13  N   UNL     1       1.129   2.519  19.159  0.00  0.00    +0.000 NA
ATOM     14  O   UNL     1       2.062   1.930  19.991  0.00  0.00    +0.000 OA
ATOM     15  C   UNL     1       3.308   2.407  19.702  0.00  0.00    +0.000 A 
ATOM     16  C   UNL     1       4.379   1.899  20.589  0.00  0.00    +0.000 C 
ATOM     17  C   UNL     1       3.207   3.304  18.649  0.00  0.00    +0.000 A 
ENDBRANCH  10  17
ENDBRANCH   1  10
BRANCH   6  18
ATOM     18  C   UNL     1       6.275   3.832  14.848  0.00  0.00    +0.000 C 
BRANCH  18  19
ATOM     19  O   UNL     1       5.711   3.867  13.527  0.00  0.00    +0.000 OA
BRANCH  19  20
ATOM     20  C   UNL     1       6.421   3.484  12.346  0.00  0.00    +0.000 C 
BRANCH  20  21
ATOM     21  C   UNL     1       5.697   2.721  11.208  0.00  0.00    +0.000 C 
ATOM     22  C   UNL     1       5.939   1.208  11.233  0.00  0.00    +0.000 C 
ATOM     23  C   UNL     1       4.178   2.963  11.307  0.00  0.00    +0.000 C 
ENDBRANCH  20  21
ENDBRANCH  19  20
ENDBRANCH  18  19
ENDBRANCH   6  18
TORSDOF 6
ENDMDL
MODEL 3
REMARK VINA RESULT:      -7.2      0.640      1.757
REMARK  Name = 
REMARK  10 active torsions:
REMARK  status: ('A' for Active; 'I' for Inactive)
REMARK    1  A    between atoms: C_1  and  C_2
REMARK    2  A    between atoms: C_5  and  C_6
REMARK    3  A    between atoms: C_7  and  C_8
REMARK    4  A    between atoms: C_8  and  N_9
REMARK    5  A    between atoms: C_14  and  C_15
REMARK    6  A    between atoms: C_15  and  O_16
REMARK    7  A    between atoms: O_16  and  C_17
REMARK    8  A    between atoms: C_17  and  C_18
REMARK    9  A    between atoms: C_18  and  C_19
REMARK   10  A    between atoms: C_18  and  C_20
REMARK                            x       y       z     vdW  Elec       q    Type
REMARK                         _______ _______ _______ _____ _____    ______ ____
ROOT
ATOM      1  N   UNL     1       4.115   3.165  18.456  0.00  0.00    +0.000 NA
ATOM      2  C   UNL     1       3.456   1.953  17.928  0.00  0.00    +0.000 C 
ATOM      3  C   UNL     1       1.996   2.422  17.706  0.00  0.00    +0.000 C 
ATOM      4  C   UNL     1       1.813   3.716  18.572  0.00  0.00    +0.000 C 
ATOM      5  O   UNL     1       1.901   4.989  17.858  0.00  0.00    +0.000 OA
ATOM      6  C   UNL     1       2.093   6.204  18.671  0.00  0.00    +0.000 C 
ATOM      7  C   UNL     1       3.085   6.030  19.827  0.00  0.00    +0.000 C 
ATOM      8  C   UNL     1       3.091   4.676  20.456  0.00  0.00    +0.000 C 
ATOM      9  C   UNL     1       3.038   3.556  19.446  0.00  0.00    +0.000 C 
ENDROOT
BRANCH   1  10
ATOM     10  C   UNL     1       4.291   4.049  17.247  0.00  0.00    +0.000 C 
BRANCH  10  17
ATOM     11  C   UNL     1       5.905   3.718  14.622  0.00  0.00    +0.000 C 
ATOM     12  C   UNL     1       6.434   4.309  15.866  0.00  0.00    +0.000 A 
ATOM     13  N   UNL     1       7.700   4.715  15.985  0.00  0.00    +0.000 NA
ATOM     14  O   UNL     1       7.830   5.142  17.293  0.00  0.00    +0.000 OA
ATOM     15  C   UNL     1       6.645   4.990  17.951  0.00  0.00    +0.000 A 
ATOM     16  C   UNL     1       6.692   5.345  19.388  0.00  0.00    +0.000 C 
ATOM     17  C   UNL     1       5.706   4.482  17.065  0.00  0.00    +0.000 A 
ENDBRANCH  10  17
ENDBRANCH   1  10
BRANCH   6  18
ATOM     18  C   UNL     1       2.641   7.388  17.788  0.00  0.00    +0.000 C 
BRANCH  18  19
ATOM     19  O   UNL     1       1.921   8.629  17.707  0.00  0.00    +0.000 OA
BRANCH  19  20
ATOM     20  C   UNL     1       1.315   9.274  18.831  0.00  0.00    +0.000 C 
BRANCH  20  21
ATOM     21  C   UNL     1       0.451  10.545  18.635  0.00  0.00    +0.000 C 
ATOM     22  C   UNL     1      -0.965  10.253  18.128  0.00  0.00    +0.000 C 
ATOM     23  C   UNL     1       0.333  11.302  19.973  0.00  0.00    +0.000 C 
ENDBRANCH  20  21
ENDBRANCH  19  20
ENDBRANCH  18  19
ENDBRANCH   6  18
TORSDOF 6
ENDMDL
MODEL 4
REMARK VINA RESULT:      -7.1      2.354      5.836
REMARK  Name = 
REMARK  10 active torsions:
REMARK  status: ('A' for Active; 'I' for Inactive)
REMARK    1  A    between atoms: C_1  and  C_2
REMARK    2  A    between atoms: C_5  and  C_6
REMARK    3  A    between atoms: C_7  and  C_8
REMARK    4  A    between atoms: C_8  and  N_9
REMARK    5  A    between atoms: C_14  and  C_15
REMARK    6  A    between atoms: C_15  and  O_16
REMARK    7  A    between atoms: O_16  and  C_17
REMARK    8  A    between atoms: C_17  and  C_18
REMARK    9  A    between atoms: C_18  and  C_19
REMARK   10  A    between atoms: C_18  and  C_20
REMARK                            x       y       z     vdW  Elec       q    Type
REMARK                         _______ _______ _______ _____ _____    ______ ____
ROOT
ATOM      1  N   UNL     1       1.771   4.612  19.919  0.00  0.00    +0.000 NA
ATOM      2  C   UNL     1       1.949   4.238  21.337  0.00  0.00    +0.000 C 
ATOM      3  C   UNL     1       3.118   3.224  21.284  0.00  0.00    +0.000 C 
ATOM      4  C   UNL     1       3.203   2.727  19.799  0.00  0.00    +0.000 C 
ATOM      5  O   UNL     1       4.237   3.344  18.969  0.00  0.00    +0.000 OA
ATOM      6  C   UNL     1       4.116   3.175  17.510  0.00  0.00    +0.000 C 
ATOM      7  C   UNL     1       2.684   3.311  16.983  0.00  0.00    +0.000 C 
ATOM      8  C   UNL     1       1.621   2.809  17.903  0.00  0.00    +0.000 C 
ATOM      9  C   UNL     1       1.846   3.214  19.340  0.00  0.00    +0.000 C 
ENDROOT
BRANCH   1  10
ATOM     10  C   UNL     1       2.925   5.538  19.631  0.00  0.00    +0.000 C 
BRANCH  10  17
ATOM     11  C   UNL     1       3.785   7.093  17.091  0.00  0.00    +0.000 C 
ATOM     12  C   UNL     1       2.886   7.619  18.136  0.00  0.00    +0.000 A 
ATOM     13  N   UNL     1       2.393   8.859  18.100  0.00  0.00    +0.000 NA
ATOM     14  O   UNL     1       1.660   9.000  19.263  0.00  0.00    +0.000 OA
ATOM     15  C   UNL     1       1.715   7.846  19.989  0.00  0.00    +0.000 A 
ATOM     16  C   UNL     1       1.025   7.912  21.297  0.00  0.00    +0.000 C 
ATOM     17  C   UNL     1       2.471   6.917  19.290  0.00  0.00    +0.000 A 
ENDBRANCH  10  17
ENDBRANCH   1  10
BRANCH   6  18
ATOM     18  C   UNL     1       4.976   4.254  16.748  0.00  0.00    +0.000 C 
BRANCH  18  19
ATOM     19  O   UNL     1       6.369   4.022  16.486  0.00  0.00    +0.000 OA
BRANCH  19  20
ATOM     20  C   UNL     1       7.432   4.630  17.225  0.00  0.00    +0.000 C 
BRANCH  20  21
ATOM     21  C   UNL     1       7.146   5.819  18.176  0.00  0.00    +0.000 C 
ATOM     22  C   UNL     1       7.897   5.733  19.510  0.00  0.00    +0.000 C 
ATOM     23  C   UNL     1       7.546   7.139  17.488  0.00  0.00    +0.000 C 
ENDBRANCH  20  21
ENDBRANCH  19  20
ENDBRANCH  18  19
ENDBRANCH   6  18
TORSDOF 6
ENDMDL
MODEL 5
REMARK VINA RESULT:      -7.1      2.788      6.741
REMARK  Name = 
REMARK  10 active torsions:
REMARK  status: ('A' for Active; 'I' for Inactive)
REMARK    1  A    between atoms: C_1  and  C_2
REMARK    2  A    between atoms: C_5  and  C_6
REMARK    3  A    between atoms: C_7  and  C_8
REMARK    4  A    between atoms: C_8  and  N_9
REMARK    5  A    between atoms: C_14  and  C_15
REMARK    6  A    between atoms: C_15  and  O_16
REMARK    7  A    between atoms: O_16  and  C_17
REMARK    8  A    between atoms: C_17  and  C_18
REMARK    9  A    between atoms: C_18  and  C_19
REMARK   10  A    between atoms: C_18  and  C_20
REMARK                            x       y       z     vdW  Elec       q    Type
REMARK                         _______ _______ _______ _____ _____    ______ ____
ROOT
ATOM      1  N   UNL     1       5.025   4.511  18.921  0.00  0.00    +0.000 NA
ATOM      2  C   UNL     1       4.039   5.511  19.380  0.00  0.00    +0.000 C 
ATOM      3  C   UNL     1       4.157   6.628  18.314  0.00  0.00    +0.000 C 
ATOM      4  C   UNL     1       5.535   6.411  17.598  0.00  0.00    +0.000 C 
ATOM      5  O   UNL     1       5.491   5.738  16.301  0.00  0.00    +0.000 OA
ATOM      6  C   UNL     1       6.761   5.203  15.778  0.00  0.00    +0.000 C 
ATOM      7  C   UNL     1       7.635   4.525  16.838  0.00  0.00    +0.000 C 
ATOM      8  C   UNL     1       7.561   5.132  18.200  0.00  0.00    +0.000 C 
ATOM      9  C   UNL     1       6.152   5.477  18.617  0.00  0.00    +0.000 C 
ENDROOT
BRANCH   1  10
ATOM     10  C   UNL     1       4.358   3.842  17.747  0.00  0.00    +0.000 C 
BRANCH  10  17
ATOM     11  C   UNL     1       4.018   0.998  18.931  0.00  0.00    +0.000 C 
ATOM     12  C   UNL     1       2.908   1.926  18.638  0.00  0.00    +0.000 A 
ATOM     13  N   UNL     1       1.629   1.592  18.816  0.00  0.00    +0.000 NA
ATOM     14  O   UNL     1       0.898   2.680  18.378  0.00  0.00    +0.000 OA
ATOM     15  C   UNL     1       1.741   3.660  17.941  0.00  0.00    +0.000 A 
ATOM     16  C   UNL     1       1.061   4.847  17.374  0.00  0.00    +0.000 C 
ATOM     17  C   UNL     1       3.049   3.231  18.114  0.00  0.00    +0.000 A 
ENDBRANCH  10  17
ENDBRANCH   1  10
BRANCH   6  18
ATOM     18  C   UNL     1       6.496   4.122  14.662  0.00  0.00    +0.000 C 
BRANCH  18  19
ATOM     19  O   UNL     1       6.584   4.474  13.272  0.00  0.00    +0.000 OA
BRANCH  19  20
ATOM     20  C   UNL     1       6.654   3.519  12.209  0.00  0.00    +0.000 C 
BRANCH  20  21
ATOM     21  C   UNL     1       5.487   2.530  11.964  0.00  0.00    +0.000 C 
ATOM     22  C   UNL     1       4.283   3.163  11.259  0.00  0.00    +0.000 C 
ATOM     23  C   UNL     1       5.980   1.351  11.102  0.00  0.00    +0.000 C 
ENDBRANCH  20  21
ENDBRANCH  19  20
ENDBRANCH  18  19
ENDBRANCH   6  18
TORSDOF 6
ENDMDL
MODEL 6
REMARK VINA RESULT:      -7.0      2.238      6.147
REMARK  Name = 
REMARK  10 active torsions:
REMARK  status: ('A' for Active; 'I' for Inactive)
REMARK    1  A    between atoms: C_1  and  C_2
REMARK    2  A    between atoms: C_5  and  C_6
REMARK    3  A    between atoms: C_7  and  C_8
REMARK    4  A    between atoms: C_8  and  N_9
REMARK    5  A    between atoms: C_14  and  C_15
REMARK    6  A    between atoms: C_15  and  O_16
REMARK    7  A    between atoms: O_16  and  C_17
REMARK    8  A    between atoms: C_17  and  C_18
REMARK    9  A    between atoms: C_18  and  C_19
REMARK   10  A    between atoms: C_18  and  C_20
REMARK                            x       y       z     vdW  Elec       q    Type
REMARK                         _______ _______ _______ _____ _____    ______ ____
ROOT
ATOM      1  N   UNL     1       1.638   4.747  19.353  0.00  0.00    +0.000 NA
ATOM      2  C   UNL     1       1.149   4.342  20.686  0.00  0.00    +0.000 C 
ATOM      3  C   UNL     1       2.275   3.410  21.200  0.00  0.00    +0.000 C 
ATOM      4  C   UNL     1       3.090   2.967  19.936  0.00  0.00    +0.000 C 
ATOM      5  O   UNL     1       4.345   3.678  19.694  0.00  0.00    +0.000 OA
ATOM      6  C   UNL     1       4.944   3.547  18.354  0.00  0.00    +0.000 C 
ATOM      7  C   UNL     1       3.928   3.603  17.208  0.00  0.00    +0.000 C 
ATOM      8  C   UNL     1       2.596   3.003  17.516  0.00  0.00    +0.000 C 
ATOM      9  C   UNL     1       2.082   3.377  18.884  0.00  0.00    +0.000 C 
ENDROOT
BRANCH   1  10
ATOM     10  C   UNL     1       2.719   5.757  19.644  0.00  0.00    +0.000 C 
BRANCH  10  17
ATOM     11  C   UNL     1       3.526   7.269  17.061  0.00  0.00    +0.000 C 
ATOM     12  C   UNL     1       2.686   7.831  18.137  0.00  0.00    +0.000 A 
ATOM     13  N   UNL     1       2.233   9.085  18.112  0.00  0.00    +0.000 NA
ATOM     14  O   UNL     1       1.552   9.256  19.303  0.00  0.00    +0.000 OA
ATOM     15  C   UNL     1       1.599   8.105  20.034  0.00  0.00    +0.000 A 
ATOM     16  C   UNL     1       0.964   8.200  21.368  0.00  0.00    +0.000 C 
ATOM     17  C   UNL     1       2.296   7.148  19.312  0.00  0.00    +0.000 A 
ENDBRANCH  10  17
ENDBRANCH   1  10
BRANCH   6  18
ATOM     18  C   UNL     1       5.980   4.705  18.088  0.00  0.00    +0.000 C 
BRANCH  18  19
ATOM     19  O   UNL     1       6.159   5.230  16.762  0.00  0.00    +0.000 OA
BRANCH  19  20
ATOM     20  C   UNL     1       7.194   4.806  15.870  0.00  0.00    +0.000 C 
BRANCH  20  21
ATOM     21  C   UNL     1       6.844   4.285  14.453  0.00  0.00    +0.000 C 
ATOM     22  C   UNL     1       5.352   4.377  14.116  0.00  0.00    +0.000 C 
ATOM     23  C   UNL     1       7.622   5.095  13.397  0.00  0.00    +0.000 C 
ENDBRANCH  20  21
ENDBRANCH  19  20
ENDBRANCH  18  19
ENDBRANCH   6  18
TORSDOF 6
ENDMDL
MODEL 7
REMARK VINA RESULT:      -6.9      2.255      5.843
REMARK  Name = 
REMARK  10 active torsions:
REMARK  status: ('A' for Active; 'I' for Inactive)
REMARK    1  A    between atoms: C_1  and  C_2
REMARK    2  A    between atoms: C_5  and  C_6
REMARK    3  A    between atoms: C_7  and  C_8
REMARK    4  A    between atoms: C_8  and  N_9
REMARK    5  A    between atoms: C_14  and  C_15
REMARK    6  A    between atoms: C_15  and  O_16
REMARK    7  A    between atoms: O_16  and  C_17
REMARK    8  A    between atoms: C_17  and  C_18
REMARK    9  A    between atoms: C_18  and  C_19
REMARK   10  A    between atoms: C_18  and  C_20
REMARK                            x       y       z     vdW  Elec       q    Type
REMARK                         _______ _______ _______ _____ _____    ______ ____
ROOT
ATOM      1  N   UNL     1       1.648   4.624  19.507  0.00  0.00    +0.000 NA
ATOM      2  C   UNL     1       1.152   4.131  20.809  0.00  0.00    +0.000 C 
ATOM      3  C   UNL     1       2.233   3.102  21.223  0.00  0.00    +0.000 C 
ATOM      4  C   UNL     1       3.011   2.728  19.914  0.00  0.00    +0.000 C 
ATOM      5  O   UNL     1       4.299   3.392  19.715  0.00  0.00    +0.000 OA
ATOM      6  C   UNL     1       4.876   3.346  18.360  0.00  0.00    +0.000 C 
ATOM      7  C   UNL     1       3.851   3.553  17.239  0.00  0.00    +0.000 C 
ATOM      8  C   UNL     1       2.494   2.998  17.514  0.00  0.00    +0.000 C 
ATOM      9  C   UNL     1       2.014   3.278  18.917  0.00  0.00    +0.000 C 
ENDROOT
BRANCH   1  10
ATOM     10  C   UNL     1       2.783   5.549  19.867  0.00  0.00    +0.000 C 
BRANCH  10  17
ATOM     11  C   UNL     1       1.042   7.776  21.138  0.00  0.00    +0.000 C 
ATOM     12  C   UNL     1       1.794   7.913  19.875  0.00  0.00    +0.000 A 
ATOM     13  N   UNL     1       1.747   9.018  19.129  0.00  0.00    +0.000 NA
ATOM     14  O   UNL     1       2.516   8.744  18.014  0.00  0.00    +0.000 OA
ATOM     15  C   UNL     1       3.020   7.479  18.096  0.00  0.00    +0.000 A 
ATOM     16  C   UNL     1       3.800   7.051  16.912  0.00  0.00    +0.000 C 
ATOM     17  C   UNL     1       2.605   6.912  19.292  0.00  0.00    +0.000 A 
ENDBRANCH  10  17
ENDBRANCH   1  10
BRANCH   6  18
ATOM     18  C   UNL     1       5.968   4.468  18.177  0.00  0.00    +0.000 C 
BRANCH  18  19
ATOM     19  O   UNL     1       6.864   4.435  17.055  0.00  0.00    +0.000 OA
BRANCH  19  20
ATOM     20  C   UNL     1       6.901   5.437  16.034  0.00  0.00    +0.000 C 
BRANCH  20  21
ATOM     21  C   UNL     1       6.506   5.088  14.577  0.00  0.00    +0.000 C 
ATOM     22  C   UNL     1       7.658   5.233  13.577  0.00  0.00    +0.000 C 
ATOM     23  C   UNL     1       5.999   3.633  14.513  0.00  0.00    +0.000 C 
ENDBRANCH  20  21
ENDBRANCH  19  20
ENDBRANCH  18  19
ENDBRANCH   6  18
TORSDOF 6
ENDMDL
MODEL 8
REMARK VINA RESULT:      -6.9      1.459      1.848
REMARK  Name = 
REMARK  10 active torsions:
REMARK  status: ('A' for Active; 'I' for Inactive)
REMARK    1  A    between atoms: C_1  and  C_2
REMARK    2  A    between atoms: C_5  and  C_6
REMARK    3  A    between atoms: C_7  and  C_8
REMARK    4  A    between atoms: C_8  and  N_9
REMARK    5  A    between atoms: C_14  and  C_15
REMARK    6  A    between atoms: C_15  and  O_16
REMARK    7  A    between atoms: O_16  and  C_17
REMARK    8  A    between atoms: C_17  and  C_18
REMARK    9  A    between atoms: C_18  and  C_19
REMARK   10  A    between atoms: C_18  and  C_20
REMARK                            x       y       z     vdW  Elec       q    Type
REMARK                         _______ _______ _______ _____ _____    ______ ____
ROOT
ATOM      1  N   UNL     1       4.120   3.008  18.801  0.00  0.00    +0.000 NA
ATOM      2  C   UNL     1       3.694   2.073  17.740  0.00  0.00    +0.000 C 
ATOM      3  C   UNL     1       2.221   2.481  17.490  0.00  0.00    +0.000 C 
ATOM      4  C   UNL     1       1.767   3.290  18.754  0.00  0.00    +0.000 C 
ATOM      5  O   UNL     1       1.767   4.747  18.624  0.00  0.00    +0.000 OA
ATOM      6  C   UNL     1       1.700   5.532  19.870  0.00  0.00    +0.000 C 
ATOM      7  C   UNL     1       2.564   4.975  21.006  0.00  0.00    +0.000 C 
ATOM      8  C   UNL     1       2.677   3.487  21.042  0.00  0.00    +0.000 C 
ATOM      9  C   UNL     1       2.892   2.878  19.679  0.00  0.00    +0.000 C 
ENDROOT
BRANCH   1  10
ATOM     10  C   UNL     1       4.316   4.320  18.085  0.00  0.00    +0.000 C 
BRANCH  10  17
ATOM     11  C   UNL     1       6.829   5.384  19.555  0.00  0.00    +0.000 C 
ATOM     12  C   UNL     1       6.803   4.934  18.149  0.00  0.00    +0.000 A 
ATOM     13  N   UNL     1       7.875   4.995  17.357  0.00  0.00    +0.000 NA
ATOM     14  O   UNL     1       7.447   4.553  16.120  0.00  0.00    +0.000 OA
ATOM     15  C   UNL     1       6.123   4.228  16.176  0.00  0.00    +0.000 A 
ATOM     16  C   UNL     1       5.539   3.814  14.880  0.00  0.00    +0.000 C 
ATOM     17  C   UNL     1       5.670   4.431  17.471  0.00  0.00    +0.000 A 
ENDBRANCH  10  17
ENDBRANCH   1  10
BRANCH   6  18
ATOM     18  C   UNL     1       2.185   7.012  19.626  0.00  0.00    +0.000 C 
BRANCH  18  19
ATOM     19  O   UNL     1       1.892   8.040  20.585  0.00  0.00    +0.000 OA
BRANCH  19  20
ATOM     20  C   UNL     1       0.715   8.062  21.398  0.00  0.00    +0.000 C 
BRANCH  20  21
ATOM     21  C   UNL     1      -0.077   9.379  21.597  0.00  0.00    +0.000 C 
ATOM     22  C   UNL     1      -0.364   9.707  23.067  0.00  0.00    +0.000 C 
ATOM     23  C   UNL     1       0.714  10.555  20.991  0.00  0.00    +0.000 C 
ENDBRANCH  20  21
ENDBRANCH  19  20
ENDBRANCH  18  19
ENDBRANCH   6  18
TORSDOF 6
ENDMDL
MODEL 9
REMARK VINA RESULT:      -6.9      2.472      5.801
REMARK  Name = 
REMARK  10 active torsions:
REMARK  status: ('A' for Active; 'I' for Inactive)
REMARK    1  A    between atoms: C_1  and  C_2
REMARK    2  A    between atoms: C_5  and  C_6
REMARK    3  A    between atoms: C_7  and  C_8
REMARK    4  A    between atoms: C_8  and  N_9
REMARK    5  A    between atoms: C_14  and  C_15
REMARK    6  A    between atoms: C_15  and  O_16
REMARK    7  A    between atoms: O_16  and  C_17
REMARK    8  A    between atoms: C_17  and  C_18
REMARK    9  A    between atoms: C_18  and  C_19
REMARK   10  A    between atoms: C_18  and  C_20
REMARK                            x       y       z     vdW  Elec       q    Type
REMARK                         _______ _______ _______ _____ _____    ______ ____
ROOT
ATOM      1  N   UNL     1       1.618   4.656  19.464  0.00  0.00    +0.000 NA
ATOM      2  C   UNL     1       1.173   4.308  20.830  0.00  0.00    +0.000 C 
ATOM      3  C   UNL     1       2.290   3.356  21.325  0.00  0.00    +0.000 C 
ATOM      4  C   UNL     1       3.036   2.848  20.043  0.00  0.00    +0.000 C 
ATOM      5  O   UNL     1       4.301   3.509  19.727  0.00  0.00    +0.000 OA
ATOM      6  C   UNL     1       4.838   3.318  18.367  0.00  0.00    +0.000 C 
ATOM      7  C   UNL     1       3.776   3.372  17.264  0.00  0.00    +0.000 C 
ATOM      8  C   UNL     1       2.440   2.826  17.646  0.00  0.00    +0.000 C 
ATOM      9  C   UNL     1       1.997   3.258  19.022  0.00  0.00    +0.000 C 
ENDROOT
BRANCH   1  10
ATOM     10  C   UNL     1       2.741   5.639  19.678  0.00  0.00    +0.000 C 
BRANCH  10  17
ATOM     11  C   UNL     1       3.683   7.068  17.094  0.00  0.00    +0.000 C 
ATOM     12  C   UNL     1       2.810   7.671  18.119  0.00  0.00    +0.000 A 
ATOM     13  N   UNL     1       2.381   8.933  18.042  0.00  0.00    +0.000 NA
ATOM     14  O   UNL     1       1.653   9.146  19.198  0.00  0.00    +0.000 OA
ATOM     15  C   UNL     1       1.648   8.014  19.960  0.00  0.00    +0.000 A 
ATOM     16  C   UNL     1       0.960   8.156  21.263  0.00  0.00    +0.000 C 
ATOM     17  C   UNL     1       2.358   7.027  19.293  0.00  0.00    +0.000 A 
ENDBRANCH  10  17
ENDBRANCH   1  10
BRANCH   6  18
ATOM     18  C   UNL     1       5.898   4.432  18.021  0.00  0.00    +0.000 C 
BRANCH  18  19
ATOM     19  O   UNL     1       6.924   4.779  18.965  0.00  0.00    +0.000 OA
BRANCH  19  20
ATOM     20  C   UNL     1       7.752   5.939  18.853  0.00  0.00    +0.000 C 
BRANCH  20  21
ATOM     21  C   UNL     1       7.330   7.120  17.942  0.00  0.00    +0.000 C 
ATOM     22  C   UNL     1       8.219   8.359  18.092  0.00  0.00    +0.000 C 
ATOM     23  C   UNL     1       7.375   6.676  16.467  0.00  0.00    +0.000 C 
ENDBRANCH  20  21
ENDBRANCH  19  20
ENDBRANCH  18  19
ENDBRANCH   6  18
TORSDOF 6
ENDMDL
