MODEL 1
REMARK VINA RESULT:      -7.2      0.000      0.000
REMARK  Name = 
REMARK  10 active torsions:
REMARK  status: ('A' for Active; 'I' for Inactive)
REMARK    1  A    between atoms: C_1  and  O_2
REMARK    2  A    between atoms: O_2  and  C_3
REMARK    3  A    between atoms: C_3  and  C_5
REMARK    4  A    between atoms: C_7  and  N_8
REMARK    5  A    between atoms: N_8  and  C_9
REMARK    6  A    between atoms: C_9  and  C_10
REMARK    7  A    between atoms: C_9  and  C_11
REMARK    8  A    between atoms: C_15  and  C_16
REMARK    9  A    between atoms: C_23  and  C_24
REMARK   10  A    between atoms: C_30  and  C_31
REMARK                            x       y       z     vdW  Elec       q    Type
REMARK                         _______ _______ _______ _____ _____    ______ ____
ROOT
ATOM      1  C   UNL     1       2.229   4.884  20.194  0.00  0.00    +0.000 C 
ATOM      2  C   UNL     1       1.166   5.977  19.953  0.00  0.00    +0.000 C 
ATOM      3  C   UNL     1       1.742   7.357  19.614  0.00  0.00    +0.000 C 
ATOM      4  C   UNL     1       2.785   7.194  18.501  0.00  0.00    +0.000 C 
ATOM      5  O   UNL     1       2.759   7.914  17.502  0.00  0.00    +0.000 OA
ATOM      6  C   UNL     1       3.876   6.140  18.740  0.00  0.00    +0.000 C 
ATOM      7  C   UNL     1       3.231   4.730  18.986  0.00  0.00    +0.000 C 
ATOM      8  C   UNL     1       2.473   4.171  17.760  0.00  0.00    +0.000 C 
ATOM      9  C   UNL     1       4.362   3.735  19.372  0.00  0.00    +0.000 C 
ATOM     10  C   UNL     1       5.591   3.778  18.459  0.00  0.00    +0.000 C 
ATOM     11  C   UNL     1       6.165   5.197  18.354  0.00  0.00    +0.000 C 
ATOM     12  C   UNL     1       7.480   5.232  17.608  0.00  0.00    +0.000 C 
ATOM     13  O   UNL     1       8.113   4.222  17.319  0.00  0.00    +0.000 OA
ATOM     14  O   UNL     1       8.004   6.459  17.401  0.00  0.00    +0.000 OA
ATOM     15  C   UNL     1       7.211   7.660  17.295  0.00  0.00    +0.000 C 
ATOM     16  C   UNL     1       5.814   7.585  17.931  0.00  0.00    +0.000 C 
ATOM     17  C   UNL     1       5.137   6.202  17.794  0.00  0.00    +0.000 C 
ATOM     18  C   UNL     1       4.845   5.947  16.297  0.00  0.00    +0.000 C 
ENDROOT
BRANCH  15  19
ATOM     19  C   UNL     1       7.968   8.824  17.870  0.00  0.00    +0.000 A 
ATOM     20  C   UNL     1       8.831   8.829  19.002  0.00  0.00    +0.000 A 
ATOM     21  C   UNL     1       9.244  10.131  19.174  0.00  0.00    +0.000 A 
ATOM     22  O   UNL     1       8.704  10.927  18.218  0.00  0.00    +0.000 OA
ATOM     23  C   UNL     1       7.940  10.130  17.430  0.00  0.00    +0.000 A 
ENDBRANCH  15  19
BRANCH   1  24
ATOM     24  C   UNL     1       1.581   3.565  20.623  0.00  0.00    +0.000 C 
ATOM     25  O   UNL     1       2.014   2.868  21.532  0.00  0.00    +0.000 OA
BRANCH  24  27
ATOM     26  C   UNL     1       0.640   2.025  19.121  0.00  0.00    +0.000 C 
ATOM     27  O   UNL     1       0.507   3.246  19.855  0.00  0.00    +0.000 OA
ENDBRANCH  24  27
ENDBRANCH   1  24
BRANCH   3  28
ATOM     28  N   UNL     1       2.306   8.014  20.816  0.00  0.00    +0.000 NA
ATOM     29  H   UNL     1       2.291   7.346  21.590  0.00  0.00    +0.000 HD
BRANCH  28  30
ATOM     30  C   UNL     1       1.603   9.240  21.248  0.00  0.00    +0.000 C 
ATOM     31  C   UNL     1       0.840   9.970  20.137  0.00  0.00    +0.000 C 
ATOM     32  C   UNL     1       0.599   8.874  22.351  0.00  0.00    +0.000 C 
ENDBRANCH  28  30
ENDBRANCH   3  28
TORSDOF 5
ENDMDL
MODEL 2
REMARK VINA RESULT:      -7.1      0.567      1.066
REMARK  Name = 
REMARK  10 active torsions:
REMARK  status: ('A' for Active; 'I' for Inactive)
REMARK    1  A    between atoms: C_1  and  O_2
REMARK    2  A    between atoms: O_2  and  C_3
REMARK    3  A    between atoms: C_3  and  C_5
REMARK    4  A    between atoms: C_7  and  N_8
REMARK    5  A    between atoms: N_8  and  C_9
REMARK    6  A    between atoms: C_9  and  C_10
REMARK    7  A    between atoms: C_9  and  C_11
REMARK    8  A    between atoms: C_15  and  C_16
REMARK    9  A    between atoms: C_23  and  C_24
REMARK   10  A    between atoms: C_30  and  C_31
REMARK                            x       y       z     vdW  Elec       q    Type
REMARK                         _______ _______ _______ _____ _____    ______ ____
ROOT
ATOM      1  C   UNL     1       2.121   4.949  20.141  0.00  0.00    +0.000 C 
ATOM      2  C   UNL     1       1.083   6.060  19.870  0.00  0.00    +0.000 C 
ATOM      3  C   UNL     1       1.690   7.427  19.537  0.00  0.00    +0.000 C 
ATOM      4  C   UNL     1       2.755   7.240  18.448  0.00  0.00    +0.000 C 
ATOM      5  O   UNL     1       2.764   7.955  17.446  0.00  0.00    +0.000 OA
ATOM      6  C   UNL     1       3.821   6.168  18.716  0.00  0.00    +0.000 C 
ATOM      7  C   UNL     1       3.147   4.771  18.955  0.00  0.00    +0.000 C 
ATOM      8  C   UNL     1       2.406   4.219  17.715  0.00  0.00    +0.000 C 
ATOM      9  C   UNL     1       4.252   3.759  19.371  0.00  0.00    +0.000 C 
ATOM     10  C   UNL     1       5.501   3.776  18.485  0.00  0.00    +0.000 C 
ATOM     11  C   UNL     1       6.101   5.184  18.386  0.00  0.00    +0.000 C 
ATOM     12  C   UNL     1       7.433   5.192  17.669  0.00  0.00    +0.000 C 
ATOM     13  O   UNL     1       8.055   4.170  17.399  0.00  0.00    +0.000 OA
ATOM     14  O   UNL     1       7.983   6.409  17.467  0.00  0.00    +0.000 OA
ATOM     15  C   UNL     1       7.213   7.623  17.338  0.00  0.00    +0.000 C 
ATOM     16  C   UNL     1       5.802   7.575  17.944  0.00  0.00    +0.000 C 
ATOM     17  C   UNL     1       5.103   6.203  17.799  0.00  0.00    +0.000 C 
ATOM     18  C   UNL     1       4.840   5.946  16.297  0.00  0.00    +0.000 C 
ENDROOT
BRANCH  15  19
ATOM     19  C   UNL     1       7.978   8.776  17.924  0.00  0.00    +0.000 A 
ATOM     20  C   UNL     1       8.046  10.113  17.441  0.00  0.00    +0.000 A 
ATOM     21  C   UNL     1       8.912  10.787  18.273  0.00  0.00    +0.000 A 
ATOM     22  O   UNL     1       9.376   9.958  19.241  0.00  0.00    +0.000 OA
ATOM     23  C   UNL     1       8.804   8.748  19.029  0.00  0.00    +0.000 A 
ENDBRANCH  15  19
BRANCH   1  24
ATOM     24  C   UNL     1       1.440   3.644  20.561  0.00  0.00    +0.000 C 
ATOM     25  O   UNL     1       0.623   3.057  19.863  0.00  0.00    +0.000 OA
BRANCH  24  27
ATOM     26  C   UNL     1       2.449   1.961  21.850  0.00  0.00    +0.000 C 
ATOM     27  O   UNL     1       1.817   3.244  21.803  0.00  0.00    +0.000 OA
ENDBRANCH  24  27
ENDBRANCH   1  24
BRANCH   3  28
ATOM     28  N   UNL     1       2.239   8.080  20.749  0.00  0.00    +0.000 NA
ATOM     29  H   UNL     1       2.308   7.383  21.493  0.00  0.00    +0.000 HD
BRANCH  28  30
ATOM     30  C   UNL     1       1.451   9.224  21.255  0.00  0.00    +0.000 C 
ATOM     31  C   UNL     1       0.921  10.170  20.173  0.00  0.00    +0.000 C 
ATOM     32  C   UNL     1       0.248   8.685  22.046  0.00  0.00    +0.000 C 
ENDBRANCH  28  30
ENDBRANCH   3  28
TORSDOF 5
ENDMDL
MODEL 3
REMARK VINA RESULT:      -7.0      5.917     10.612
REMARK  Name = 
REMARK  10 active torsions:
REMARK  status: ('A' for Active; 'I' for Inactive)
REMARK    1  A    between atoms: C_1  and  O_2
REMARK    2  A    between atoms: O_2  and  C_3
REMARK    3  A    between atoms: C_3  and  C_5
REMARK    4  A    between atoms: C_7  and  N_8
REMARK    5  A    between atoms: N_8  and  C_9
REMARK    6  A    between atoms: C_9  and  C_10
REMARK    7  A    between atoms: C_9  and  C_11
REMARK    8  A    between atoms: C_15  and  C_16
REMARK    9  A    between atoms: C_23  and  C_24
REMARK   10  A    between atoms: C_30  and  C_31
REMARK                            x       y       z     vdW  Elec       q    Type
REMARK                         _______ _______ _______ _____ _____    ______ ____
ROOT
ATOM      1  C   UNL     1       0.108   9.587  20.060  0.00  0.00    +0.000 C 
ATOM      2  C   UNL     1       0.451   9.898  18.587  0.00  0.00    +0.000 C 
ATOM      3  C   UNL     1      -0.613  10.720  17.849  0.00  0.00    +0.000 C 
ATOM      4  C   UNL     1      -0.981  11.934  18.711  0.00  0.00    +0.000 C 
ATOM      5  O   UNL     1      -1.009  13.066  18.226  0.00  0.00    +0.000 OA
ATOM      6  C   UNL     1      -1.365  11.643  20.168  0.00  0.00    +0.000 C 
ATOM      7  C   UNL     1      -0.202  10.886  20.901  0.00  0.00    +0.000 C 
ATOM      8  C   UNL     1       1.090  11.723  21.045  0.00  0.00    +0.000 C 
ATOM      9  C   UNL     1      -0.697  10.481  22.319  0.00  0.00    +0.000 C 
ATOM     10  C   UNL     1      -1.385  11.603  23.101  0.00  0.00    +0.000 C 
ATOM     11  C   UNL     1      -2.544  12.216  22.304  0.00  0.00    +0.000 C 
ATOM     12  C   UNL     1      -3.351  13.198  23.124  0.00  0.00    +0.000 C 
ATOM     13  O   UNL     1      -3.224  13.319  24.338  0.00  0.00    +0.000 OA
ATOM     14  O   UNL     1      -4.336  13.842  22.464  0.00  0.00    +0.000 OA
ATOM     15  C   UNL     1      -4.307  14.112  21.046  0.00  0.00    +0.000 C 
ATOM     16  C   UNL     1      -3.379  13.205  20.224  0.00  0.00    +0.000 C 
ATOM     17  C   UNL     1      -2.077  12.808  20.957  0.00  0.00    +0.000 C 
ATOM     18  C   UNL     1      -1.222  14.080  21.157  0.00  0.00    +0.000 C 
ENDROOT
BRANCH  15  19
ATOM     19  C   UNL     1      -5.700  14.054  20.488  0.00  0.00    +0.000 A 
ATOM     20  C   UNL     1      -6.392  12.915  19.987  0.00  0.00    +0.000 A 
ATOM     21  C   UNL     1      -7.613  13.366  19.535  0.00  0.00    +0.000 A 
ATOM     22  O   UNL     1      -7.723  14.703  19.731  0.00  0.00    +0.000 OA
ATOM     23  C   UNL     1      -6.569  15.111  20.313  0.00  0.00    +0.000 A 
ENDBRANCH  15  19
BRANCH   1  24
ATOM     24  C   UNL     1       1.167   8.684  20.697  0.00  0.00    +0.000 C 
ATOM     25  O   UNL     1       1.233   8.474  21.901  0.00  0.00    +0.000 OA
BRANCH  24  27
ATOM     26  C   UNL     1       2.262   6.775  19.880  0.00  0.00    +0.000 C 
ATOM     27  O   UNL     1       2.036   8.185  19.781  0.00  0.00    +0.000 OA
ENDBRANCH  24  27
ENDBRANCH   1  24
BRANCH   3  28
ATOM     28  N   UNL     1      -1.796   9.892  17.515  0.00  0.00    +0.000 NA
ATOM     29  H   UNL     1      -1.477   9.041  17.046  0.00  0.00    +0.000 HD
BRANCH  28  30
ATOM     30  C   UNL     1      -2.798  10.551  16.653  0.00  0.00    +0.000 C 
ATOM     31  C   UNL     1      -3.057   9.849  15.315  0.00  0.00    +0.000 C 
ATOM     32  C   UNL     1      -4.131  10.630  17.413  0.00  0.00    +0.000 C 
ENDBRANCH  28  30
ENDBRANCH   3  28
TORSDOF 5
ENDMDL
MODEL 4
REMARK VINA RESULT:      -6.4      6.319     10.528
REMARK  Name = 
REMARK  10 active torsions:
REMARK  status: ('A' for Active; 'I' for Inactive)
REMARK    1  A    between atoms: C_1  and  O_2
REMARK    2  A    between atoms: O_2  and  C_3
REMARK    3  A    between atoms: C_3  and  C_5
REMARK    4  A    between atoms: C_7  and  N_8
REMARK    5  A    between atoms: N_8  and  C_9
REMARK    6  A    between atoms: C_9  and  C_10
REMARK    7  A    between atoms: C_9  and  C_11
REMARK    8  A    between atoms: C_15  and  C_16
REMARK    9  A    between atoms: C_23  and  C_24
REMARK   10  A    between atoms: C_30  and  C_31
REMARK                            x       y       z     vdW  Elec       q    Type
REMARK                         _______ _______ _______ _____ _____    ______ ____
ROOT
ATOM      1  C   UNL     1       2.147  15.798  19.124  0.00  0.00    +0.000 C 
ATOM      2  C   UNL     1       1.150  16.689  19.896  0.00  0.00    +0.000 C 
ATOM      3  C   UNL     1      -0.319  16.284  19.733  0.00  0.00    +0.000 C 
ATOM      4  C   UNL     1      -0.445  14.776  19.991  0.00  0.00    +0.000 C 
ATOM      5  O   UNL     1      -1.305  14.337  20.756  0.00  0.00    +0.000 OA
ATOM      6  C   UNL     1       0.510  13.869  19.202  0.00  0.00    +0.000 C 
ATOM      7  C   UNL     1       2.002  14.268  19.482  0.00  0.00    +0.000 C 
ATOM      8  C   UNL     1       2.441  14.041  20.948  0.00  0.00    +0.000 C 
ATOM      9  C   UNL     1       2.917  13.426  18.549  0.00  0.00    +0.000 C 
ATOM     10  C   UNL     1       2.601  11.928  18.524  0.00  0.00    +0.000 C 
ATOM     11  C   UNL     1       1.130  11.670  18.174  0.00  0.00    +0.000 C 
ATOM     12  C   UNL     1       0.837  10.200  17.965  0.00  0.00    +0.000 C 
ATOM     13  O   UNL     1       1.716   9.350  17.870  0.00  0.00    +0.000 OA
ATOM     14  O   UNL     1      -0.456   9.887  17.739  0.00  0.00    +0.000 OA
ATOM     15  C   UNL     1      -1.567  10.665  18.232  0.00  0.00    +0.000 C 
ATOM     16  C   UNL     1      -1.243  12.125  18.581  0.00  0.00    +0.000 C 
ATOM     17  C   UNL     1       0.166  12.330  19.183  0.00  0.00    +0.000 C 
ATOM     18  C   UNL     1       0.213  11.631  20.562  0.00  0.00    +0.000 C 
ENDROOT
BRANCH  15  19
ATOM     19  C   UNL     1      -2.701  10.616  17.248  0.00  0.00    +0.000 A 
ATOM     20  C   UNL     1      -2.690  10.074  15.932  0.00  0.00    +0.000 A 
ATOM     21  C   UNL     1      -3.938  10.313  15.400  0.00  0.00    +0.000 A 
ATOM     22  O   UNL     1      -4.720  10.956  16.302  0.00  0.00    +0.000 OA
ATOM     23  C   UNL     1      -3.969  11.130  17.417  0.00  0.00    +0.000 A 
ENDBRANCH  15  19
BRANCH   1  24
ATOM     24  C   UNL     1       3.579  16.323  19.256  0.00  0.00    +0.000 C 
ATOM     25  O   UNL     1       4.273  16.139  20.248  0.00  0.00    +0.000 OA
BRANCH  24  27
ATOM     26  C   UNL     1       3.204  16.791  16.986  0.00  0.00    +0.000 C 
ATOM     27  O   UNL     1       3.964  17.045  18.173  0.00  0.00    +0.000 OA
ENDBRANCH  24  27
ENDBRANCH   1  24
BRANCH   3  28
ATOM     28  N   UNL     1      -0.838  16.667  18.398  0.00  0.00    +0.000 NA
ATOM     29  H   UNL     1      -0.273  16.203  17.684  0.00  0.00    +0.000 HD
BRANCH  28  30
ATOM     30  C   UNL     1      -0.839  18.118  18.120  0.00  0.00    +0.000 C 
ATOM     31  C   UNL     1      -0.233  18.515  16.769  0.00  0.00    +0.000 C 
ATOM     32  C   UNL     1      -2.288  18.629  18.158  0.00  0.00    +0.000 C 
ENDBRANCH  28  30
ENDBRANCH   3  28
TORSDOF 5
ENDMDL
MODEL 5
REMARK VINA RESULT:      -6.4      9.480     11.430
REMARK  Name = 
REMARK  10 active torsions:
REMARK  status: ('A' for Active; 'I' for Inactive)
REMARK    1  A    between atoms: C_1  and  O_2
REMARK    2  A    between atoms: O_2  and  C_3
REMARK    3  A    between atoms: C_3  and  C_5
REMARK    4  A    between atoms: C_7  and  N_8
REMARK    5  A    between atoms: N_8  and  C_9
REMARK    6  A    between atoms: C_9  and  C_10
REMARK    7  A    between atoms: C_9  and  C_11
REMARK    8  A    between atoms: C_15  and  C_16
REMARK    9  A    between atoms: C_23  and  C_24
REMARK   10  A    between atoms: C_30  and  C_31
REMARK                            x       y       z     vdW  Elec       q    Type
REMARK                         _______ _______ _______ _____ _____    ______ ____
ROOT
ATOM      1  C   UNL     1      -4.869  13.308  22.616  0.00  0.00    +0.000 C 
ATOM      2  C   UNL     1      -5.350  12.394  21.468  0.00  0.00    +0.000 C 
ATOM      3  C   UNL     1      -4.757  12.733  20.097  0.00  0.00    +0.000 C 
ATOM      4  C   UNL     1      -3.234  12.867  20.239  0.00  0.00    +0.000 C 
ATOM      5  O   UNL     1      -2.475  12.284  19.464  0.00  0.00    +0.000 OA
ATOM      6  C   UNL     1      -2.735  13.803  21.349  0.00  0.00    +0.000 C 
ATOM      7  C   UNL     1      -3.297  13.351  22.743  0.00  0.00    +0.000 C 
ATOM      8  C   UNL     1      -2.782  11.967  23.201  0.00  0.00    +0.000 C 
ATOM      9  C   UNL     1      -2.890  14.413  23.803  0.00  0.00    +0.000 C 
ATOM     10  C   UNL     1      -1.417  14.829  23.759  0.00  0.00    +0.000 C 
ATOM     11  C   UNL     1      -1.010  15.312  22.362  0.00  0.00    +0.000 C 
ATOM     12  C   UNL     1       0.385  15.897  22.338  0.00  0.00    +0.000 C 
ATOM     13  O   UNL     1       1.020  16.153  23.355  0.00  0.00    +0.000 OA
ATOM     14  O   UNL     1       0.846  16.265  21.124  0.00  0.00    +0.000 OA
ATOM     15  C   UNL     1       0.421  15.655  19.887  0.00  0.00    +0.000 C 
ATOM     16  C   UNL     1      -0.936  14.936  19.941  0.00  0.00    +0.000 C 
ATOM     17  C   UNL     1      -1.217  14.225  21.286  0.00  0.00    +0.000 C 
ATOM     18  C   UNL     1      -0.208  13.064  21.444  0.00  0.00    +0.000 C 
ENDROOT
BRANCH  15  19
ATOM     19  C   UNL     1       0.408  16.681  18.790  0.00  0.00    +0.000 A 
ATOM     20  C   UNL     1      -0.723  17.234  18.126  0.00  0.00    +0.000 A 
ATOM     21  C   UNL     1      -0.233  18.086  17.161  0.00  0.00    +0.000 A 
ATOM     22  O   UNL     1       1.123  18.103  17.192  0.00  0.00    +0.000 OA
ATOM     23  C   UNL     1       1.503  17.258  18.181  0.00  0.00    +0.000 A 
ENDBRANCH  15  19
BRANCH   1  24
ATOM     24  C   UNL     1      -5.580  12.970  23.929  0.00  0.00    +0.000 C 
ATOM     25  O   UNL     1      -5.212  12.076  24.681  0.00  0.00    +0.000 OA
BRANCH  24  27
ATOM     26  C   UNL     1      -6.507  15.122  23.784  0.00  0.00    +0.000 C 
ATOM     27  O   UNL     1      -6.675  13.745  24.135  0.00  0.00    +0.000 OA
ENDBRANCH  24  27
ENDBRANCH   1  24
BRANCH   3  28
ATOM     28  N   UNL     1      -5.374  13.956  19.531  0.00  0.00    +0.000 NA
ATOM     29  H   UNL     1      -5.882  14.439  20.275  0.00  0.00    +0.000 HD
BRANCH  28  30
ATOM     30  C   UNL     1      -6.303  13.726  18.406  0.00  0.00    +0.000 C 
ATOM     31  C   UNL     1      -5.977  12.504  17.541  0.00  0.00    +0.000 C 
ATOM     32  C   UNL     1      -7.723  13.546  18.965  0.00  0.00    +0.000 C 
ENDBRANCH  28  30
ENDBRANCH   3  28
TORSDOF 5
ENDMDL
MODEL 6
REMARK VINA RESULT:      -6.2      6.657     11.193
REMARK  Name = 
REMARK  10 active torsions:
REMARK  status: ('A' for Active; 'I' for Inactive)
REMARK    1  A    between atoms: C_1  and  O_2
REMARK    2  A    between atoms: O_2  and  C_3
REMARK    3  A    between atoms: C_3  and  C_5
REMARK    4  A    between atoms: C_7  and  N_8
REMARK    5  A    between atoms: N_8  and  C_9
REMARK    6  A    between atoms: C_9  and  C_10
REMARK    7  A    between atoms: C_9  and  C_11
REMARK    8  A    between atoms: C_15  and  C_16
REMARK    9  A    between atoms: C_23  and  C_24
REMARK   10  A    between atoms: C_30  and  C_31
REMARK                            x       y       z     vdW  Elec       q    Type
REMARK                         _______ _______ _______ _____ _____    ______ ____
ROOT
ATOM      1  C   UNL     1      -0.665  10.679  20.039  0.00  0.00    +0.000 C 
ATOM      2  C   UNL     1      -0.177  11.050  18.622  0.00  0.00    +0.000 C 
ATOM      3  C   UNL     1      -0.869  12.274  18.014  0.00  0.00    +0.000 C 
ATOM      4  C   UNL     1      -0.842  13.415  19.040  0.00  0.00    +0.000 C 
ATOM      5  O   UNL     1      -0.466  14.543  18.719  0.00  0.00    +0.000 OA
ATOM      6  C   UNL     1      -1.362  13.078  20.445  0.00  0.00    +0.000 C 
ATOM      7  C   UNL     1      -0.553  11.880  21.057  0.00  0.00    +0.000 C 
ATOM      8  C   UNL     1       0.938  12.201  21.308  0.00  0.00    +0.000 C 
ATOM      9  C   UNL     1      -1.214  11.481  22.407  0.00  0.00    +0.000 C 
ATOM     10  C   UNL     1      -1.515  12.655  23.343  0.00  0.00    +0.000 C 
ATOM     11  C   UNL     1      -2.365  13.726  22.648  0.00  0.00    +0.000 C 
ATOM     12  C   UNL     1      -2.827  14.804  23.603  0.00  0.00    +0.000 C 
ATOM     13  O   UNL     1      -2.718  14.711  24.821  0.00  0.00    +0.000 OA
ATOM     14  O   UNL     1      -3.509  15.828  23.046  0.00  0.00    +0.000 OA
ATOM     15  C   UNL     1      -3.332  16.259  21.680  0.00  0.00    +0.000 C 
ATOM     16  C   UNL     1      -2.731  15.210  20.732  0.00  0.00    +0.000 C 
ATOM     17  C   UNL     1      -1.671  14.299  21.394  0.00  0.00    +0.000 C 
ATOM     18  C   UNL     1      -0.446  15.167  21.765  0.00  0.00    +0.000 C 
ENDROOT
BRANCH  15  19
ATOM     19  C   UNL     1      -4.639  16.753  21.128  0.00  0.00    +0.000 A 
ATOM     20  C   UNL     1      -5.471  16.123  20.160  0.00  0.00    +0.000 A 
ATOM     21  C   UNL     1      -6.526  16.979  19.933  0.00  0.00    +0.000 A 
ATOM     22  O   UNL     1      -6.406  18.089  20.703  0.00  0.00    +0.000 OA
ATOM     23  C   UNL     1      -5.269  17.943  21.426  0.00  0.00    +0.000 A 
ENDBRANCH  15  19
BRANCH   1  24
ATOM     24  C   UNL     1       0.000   9.393  20.537  0.00  0.00    +0.000 C 
ATOM     25  O   UNL     1      -0.449   8.716  21.453  0.00  0.00    +0.000 OA
BRANCH  24  27
ATOM     26  C   UNL     1       1.784   7.893  20.253  0.00  0.00    +0.000 C 
ATOM     27  O   UNL     1       1.154   9.122  19.875  0.00  0.00    +0.000 OA
ENDBRANCH  24  27
ENDBRANCH   1  24
BRANCH   3  28
ATOM     28  N   UNL     1      -2.248  11.950  17.576  0.00  0.00    +0.000 NA
ATOM     29  H   UNL     1      -2.863  11.976  18.391  0.00  0.00    +0.000 HD
BRANCH  28  30
ATOM     30  C   UNL     1      -2.403  10.636  16.918  0.00  0.00    +0.000 C 
ATOM     31  C   UNL     1      -3.396   9.688  17.598  0.00  0.00    +0.000 C 
ATOM     32  C   UNL     1      -2.873  10.859  15.472  0.00  0.00    +0.000 C 
ENDBRANCH  28  30
ENDBRANCH   3  28
TORSDOF 5
ENDMDL
MODEL 7
REMARK VINA RESULT:      -6.0      7.920     10.606
REMARK  Name = 
REMARK  10 active torsions:
REMARK  status: ('A' for Active; 'I' for Inactive)
REMARK    1  A    between atoms: C_1  and  O_2
REMARK    2  A    between atoms: O_2  and  C_3
REMARK    3  A    between atoms: C_3  and  C_5
REMARK    4  A    between atoms: C_7  and  N_8
REMARK    5  A    between atoms: N_8  and  C_9
REMARK    6  A    between atoms: C_9  and  C_10
REMARK    7  A    between atoms: C_9  and  C_11
REMARK    8  A    between atoms: C_15  and  C_16
REMARK    9  A    between atoms: C_23  and  C_24
REMARK   10  A    between atoms: C_30  and  C_31
REMARK                            x       y       z     vdW  Elec       q    Type
REMARK                         _______ _______ _______ _____ _____    ______ ____
ROOT
ATOM      1  C   UNL     1      -4.421  12.981  20.077  0.00  0.00    +0.000 C 
ATOM      2  C   UNL     1      -4.060  11.569  19.567  0.00  0.00    +0.000 C 
ATOM      3  C   UNL     1      -2.695  11.474  18.877  0.00  0.00    +0.000 C 
ATOM      4  C   UNL     1      -1.643  12.138  19.775  0.00  0.00    +0.000 C 
ATOM      5  O   UNL     1      -0.586  11.565  20.039  0.00  0.00    +0.000 OA
ATOM      6  C   UNL     1      -1.963  13.560  20.260  0.00  0.00    +0.000 C 
ATOM      7  C   UNL     1      -3.324  13.579  21.041  0.00  0.00    +0.000 C 
ATOM      8  C   UNL     1      -3.298  12.763  22.355  0.00  0.00    +0.000 C 
ATOM      9  C   UNL     1      -3.676  15.056  21.376  0.00  0.00    +0.000 C 
ATOM     10  C   UNL     1      -2.526  15.866  21.981  0.00  0.00    +0.000 C 
ATOM     11  C   UNL     1      -1.277  15.822  21.091  0.00  0.00    +0.000 C 
ATOM     12  C   UNL     1      -0.193  16.759  21.574  0.00  0.00    +0.000 C 
ATOM     13  O   UNL     1      -0.378  17.608  22.439  0.00  0.00    +0.000 OA
ATOM     14  O   UNL     1       0.970  16.711  20.890  0.00  0.00    +0.000 OA
ATOM     15  C   UNL     1       1.444  15.537  20.197  0.00  0.00    +0.000 C 
ATOM     16  C   UNL     1       0.362  14.511  19.826  0.00  0.00    +0.000 C 
ATOM     17  C   UNL     1      -0.766  14.382  20.875  0.00  0.00    +0.000 C 
ATOM     18  C   UNL     1      -0.163  13.789  22.170  0.00  0.00    +0.000 C 
ENDROOT
BRANCH  15  19
ATOM     19  C   UNL     1       2.202  15.943  18.965  0.00  0.00    +0.000 A 
ATOM     20  C   UNL     1       3.183  15.193  18.258  0.00  0.00    +0.000 A 
ATOM     21  C   UNL     1       3.633  16.000  17.236  0.00  0.00    +0.000 A 
ATOM     22  O   UNL     1       2.989  17.193  17.260  0.00  0.00    +0.000 OA
ATOM     23  C   UNL     1       2.122  17.150  18.302  0.00  0.00    +0.000 A 
ENDBRANCH  15  19
BRANCH   1  24
ATOM     24  C   UNL     1      -5.835  13.016  20.662  0.00  0.00    +0.000 C 
ATOM     25  O   UNL     1      -6.537  14.019  20.661  0.00  0.00    +0.000 OA
BRANCH  24  27
ATOM     26  C   UNL     1      -7.593  11.539  21.148  0.00  0.00    +0.000 C 
ATOM     27  O   UNL     1      -6.193  11.827  21.212  0.00  0.00    +0.000 OA
ENDBRANCH  24  27
ENDBRANCH   1  24
BRANCH   3  28
ATOM     28  N   UNL     1      -2.733  12.075  17.523  0.00  0.00    +0.000 NA
ATOM     29  H   UNL     1      -3.618  12.574  17.413  0.00  0.00    +0.000 HD
BRANCH  28  30
ATOM     30  C   UNL     1      -2.599  11.114  16.407  0.00  0.00    +0.000 C 
ATOM     31  C   UNL     1      -1.934   9.785  16.779  0.00  0.00    +0.000 C 
ATOM     32  C   UNL     1      -3.996  10.807  15.847  0.00  0.00    +0.000 C 
ENDBRANCH  28  30
ENDBRANCH   3  28
TORSDOF 5
ENDMDL
MODEL 8
REMARK VINA RESULT:      -6.0      4.930      8.494
REMARK  Name = 
REMARK  10 active torsions:
REMARK  status: ('A' for Active; 'I' for Inactive)
REMARK    1  A    between atoms: C_1  and  O_2
REMARK    2  A    between atoms: O_2  and  C_3
REMARK    3  A    between atoms: C_3  and  C_5
REMARK    4  A    between atoms: C_7  and  N_8
REMARK    5  A    between atoms: N_8  and  C_9
REMARK    6  A    between atoms: C_9  and  C_10
REMARK    7  A    between atoms: C_9  and  C_11
REMARK    8  A    between atoms: C_15  and  C_16
REMARK    9  A    between atoms: C_23  and  C_24
REMARK   10  A    between atoms: C_30  and  C_31
REMARK                            x       y       z     vdW  Elec       q    Type
REMARK                         _______ _______ _______ _____ _____    ______ ____
ROOT
ATOM      1  C   UNL     1      -1.037  11.384  18.376  0.00  0.00    +0.000 C 
ATOM      2  C   UNL     1      -0.803  10.062  19.140  0.00  0.00    +0.000 C 
ATOM      3  C   UNL     1       0.575   9.947  19.800  0.00  0.00    +0.000 C 
ATOM      4  C   UNL     1       0.845  11.227  20.601  0.00  0.00    +0.000 C 
ATOM      5  O   UNL     1       1.237  11.171  21.767  0.00  0.00    +0.000 OA
ATOM      6  C   UNL     1       0.659  12.553  19.848  0.00  0.00    +0.000 C 
ATOM      7  C   UNL     1      -0.799  12.658  19.276  0.00  0.00    +0.000 C 
ATOM      8  C   UNL     1      -1.892  12.725  20.368  0.00  0.00    +0.000 C 
ATOM      9  C   UNL     1      -0.889  13.939  18.399  0.00  0.00    +0.000 C 
ATOM     10  C   UNL     1      -0.314  15.201  19.048  0.00  0.00    +0.000 C 
ATOM     11  C   UNL     1       1.136  14.988  19.503  0.00  0.00    +0.000 C 
ATOM     12  C   UNL     1       1.783  16.270  19.979  0.00  0.00    +0.000 C 
ATOM     13  O   UNL     1       1.281  17.376  19.812  0.00  0.00    +0.000 OA
ATOM     14  O   UNL     1       3.032  16.145  20.478  0.00  0.00    +0.000 OA
ATOM     15  C   UNL     1       3.529  14.943  21.102  0.00  0.00    +0.000 C 
ATOM     16  C   UNL     1       2.783  13.652  20.730  0.00  0.00    +0.000 C 
ATOM     17  C   UNL     1       1.262  13.841  20.528  0.00  0.00    +0.000 C 
ATOM     18  C   UNL     1       0.633  14.218  21.889  0.00  0.00    +0.000 C 
ENDROOT
BRANCH  15  19
ATOM     19  C   UNL     1       4.994  14.786  20.811  0.00  0.00    +0.000 A 
ATOM     20  C   UNL     1       6.034  14.455  21.725  0.00  0.00    +0.000 A 
ATOM     21  C   UNL     1       7.210  14.484  21.008  0.00  0.00    +0.000 A 
ATOM     22  O   UNL     1       6.964  14.800  19.712  0.00  0.00    +0.000 OA
ATOM     23  C   UNL     1       5.624  14.974  19.599  0.00  0.00    +0.000 A 
ENDBRANCH  15  19
BRANCH   1  24
ATOM     24  C   UNL     1      -2.392  11.382  17.665  0.00  0.00    +0.000 C 
ATOM     25  O   UNL     1      -3.461  11.315  18.257  0.00  0.00    +0.000 OA
BRANCH  24  27
ATOM     26  C   UNL     1      -2.716  10.244  15.637  0.00  0.00    +0.000 C 
ATOM     27  O   UNL     1      -2.263  11.421  16.314  0.00  0.00    +0.000 OA
ENDBRANCH  24  27
ENDBRANCH   1  24
BRANCH   3  28
ATOM     28  N   UNL     1       1.632   9.683  18.795  0.00  0.00    +0.000 NA
ATOM     29  H   UNL     1       1.362  10.124  17.914  0.00  0.00    +0.000 HD
BRANCH  28  30
ATOM     30  C   UNL     1       1.906   8.254  18.535  0.00  0.00    +0.000 C 
ATOM     31  C   UNL     1       3.164   7.981  17.702  0.00  0.00    +0.000 C 
ATOM     32  C   UNL     1       2.060   7.526  19.880  0.00  0.00    +0.000 C 
ENDBRANCH  28  30
ENDBRANCH   3  28
TORSDOF 5
ENDMDL
MODEL 9
REMARK VINA RESULT:      -6.0      8.468     12.235
REMARK  Name = 
REMARK  10 active torsions:
REMARK  status: ('A' for Active; 'I' for Inactive)
REMARK    1  A    between atoms: C_1  and  O_2
REMARK    2  A    between atoms: O_2  and  C_3
REMARK    3  A    between atoms: C_3  and  C_5
REMARK    4  A    between atoms: C_7  and  N_8
REMARK    5  A    between atoms: N_8  and  C_9
REMARK    6  A    between atoms: C_9  and  C_10
REMARK    7  A    between atoms: C_9  and  C_11
REMARK    8  A    between atoms: C_15  and  C_16
REMARK    9  A    between atoms: C_23  and  C_24
REMARK   10  A    between atoms: C_30  and  C_31
REMARK                            x       y       z     vdW  Elec       q    Type
REMARK                         _______ _______ _______ _____ _____    ______ ____
ROOT
ATOM      1  C   UNL     1      -4.619  15.962  23.258  0.00  0.00    +0.000 C 
ATOM      2  C   UNL     1      -5.419  14.926  24.075  0.00  0.00    +0.000 C 
ATOM      3  C   UNL     1      -5.545  13.552  23.407  0.00  0.00    +0.000 C 
ATOM      4  C   UNL     1      -4.152  13.098  22.950  0.00  0.00    +0.000 C 
ATOM      5  O   UNL     1      -3.737  11.971  23.220  0.00  0.00    +0.000 OA
ATOM      6  C   UNL     1      -3.356  14.099  22.101  0.00  0.00    +0.000 C 
ATOM      7  C   UNL     1      -3.176  15.453  22.873  0.00  0.00    +0.000 C 
ATOM      8  C   UNL     1      -2.319  15.328  24.154  0.00  0.00    +0.000 C 
ATOM      9  C   UNL     1      -2.500  16.477  21.917  0.00  0.00    +0.000 C 
ATOM     10  C   UNL     1      -1.273  15.943  21.172  0.00  0.00    +0.000 C 
ATOM     11  C   UNL     1      -1.597  14.655  20.405  0.00  0.00    +0.000 C 
ATOM     12  C   UNL     1      -0.455  14.210  19.518  0.00  0.00    +0.000 C 
ATOM     13  O   UNL     1       0.519  14.915  19.278  0.00  0.00    +0.000 OA
ATOM     14  O   UNL     1      -0.634  13.036  18.876  0.00  0.00    +0.000 OA
ATOM     15  C   UNL     1      -1.468  11.969  19.376  0.00  0.00    +0.000 C 
ATOM     16  C   UNL     1      -2.543  12.394  20.388  0.00  0.00    +0.000 C 
ATOM     17  C   UNL     1      -2.098  13.531  21.337  0.00  0.00    +0.000 C 
ATOM     18  C   UNL     1      -0.968  12.994  22.245  0.00  0.00    +0.000 C 
ENDROOT
BRANCH  15  19
ATOM     19  C   UNL     1      -2.109  11.243  18.228  0.00  0.00    +0.000 A 
ATOM     20  C   UNL     1      -1.575  10.159  17.475  0.00  0.00    +0.000 A 
ATOM     21  C   UNL     1      -2.499   9.870  16.496  0.00  0.00    +0.000 A 
ATOM     22  O   UNL     1      -3.571  10.695  16.600  0.00  0.00    +0.000 OA
ATOM     23  C   UNL     1      -3.331  11.517  17.652  0.00  0.00    +0.000 A 
ENDBRANCH  15  19
BRANCH   1  24
ATOM     24  C   UNL     1      -4.622  17.332  23.942  0.00  0.00    +0.000 C 
ATOM     25  O   UNL     1      -4.491  17.478  25.151  0.00  0.00    +0.000 OA
BRANCH  24  27
ATOM     26  C   UNL     1      -6.171  18.460  22.586  0.00  0.00    +0.000 C 
ATOM     27  O   UNL     1      -4.826  18.345  23.063  0.00  0.00    +0.000 OA
ENDBRANCH  24  27
ENDBRANCH   1  24
BRANCH   3  28
ATOM     28  N   UNL     1      -6.517  13.586  22.288  0.00  0.00    +0.000 NA
ATOM     29  H   UNL     1      -7.458  13.674  22.676  0.00  0.00    +0.000 HD
BRANCH  28  30
ATOM     30  C   UNL     1      -6.489  12.405  21.400  0.00  0.00    +0.000 C 
ATOM     31  C   UNL     1      -7.752  11.538  21.442  0.00  0.00    +0.000 C 
ATOM     32  C   UNL     1      -6.287  12.879  19.952  0.00  0.00    +0.000 C 
ENDBRANCH  28  30
ENDBRANCH   3  28
TORSDOF 5
ENDMDL
