MODEL 1
REMARK VINA RESULT:      -7.9      0.000      0.000
REMARK  Name = 
REMARK  8 active torsions:
REMARK  status: ('A' for Active; 'I' for Inactive)
REMARK    1  A    between atoms: C_1  and  C_2
REMARK    2  A    between atoms: C_5  and  S_6
REMARK    3  A    between atoms: S_6  and  N_9
REMARK    4  A    between atoms: N_9  and  C_10
REMARK    5  A    between atoms: C_17  and  C_18
REMARK    6  A    between atoms: C_18  and  C_19
REMARK    7  A    between atoms: C_19  and  N_20
REMARK    8  A    between atoms: N_26  and  C_27
REMARK                            x       y       z     vdW  Elec       q    Type
REMARK                         _______ _______ _______ _____ _____    ______ ____
ROOT
ATOM      1  C   UNL     1       2.623   5.710  19.238  0.00  0.00    +0.000 A 
ATOM      2  C   UNL     1       2.029   5.479  20.481  0.00  0.00    +0.000 A 
ATOM      3  C   UNL     1       1.387   6.508  21.176  0.00  0.00    +0.000 A 
ATOM      4  C   UNL     1       1.358   7.764  20.560  0.00  0.00    +0.000 A 
ATOM      5  C   UNL     1       1.927   8.006  19.318  0.00  0.00    +0.000 A 
ATOM      6  C   UNL     1       2.572   6.967  18.632  0.00  0.00    +0.000 A 
ATOM      7  N   UNL     1       1.750   9.311  18.950  0.00  0.00    +0.000 NA
ATOM      8  C   UNL     1       1.087   9.890  19.936  0.00  0.00    +0.000 A 
ATOM      9  N   UNL     1       0.829   8.981  20.938  0.00  0.00    +0.000 N 
ATOM     10  C   UNL     1       0.150   9.181  22.195  0.00  0.00    +0.000 C 
ENDROOT
BRANCH   1  11
ATOM     11  N   UNL     1       3.250   4.622  18.566  0.00  0.00    +0.000 N 
ATOM     12  H   UNL     1       2.718   3.754  18.514  0.00  0.00    +0.000 HD
BRANCH  11  13
ATOM     13  S   UNL     1       4.885   4.327  18.867  0.00  0.00    +0.000 S 
ATOM     14  O   UNL     1       5.057   2.962  19.338  0.00  0.00    +0.000 OA
ATOM     15  O   UNL     1       5.362   5.450  19.644  0.00  0.00    +0.000 OA
BRANCH  13  20
ATOM     16  C   UNL     1       7.358   4.790  13.334  0.00  0.00    +0.000 C 
ATOM     17  C   UNL     1       6.743   4.673  14.699  0.00  0.00    +0.000 A 
ATOM     18  C   UNL     1       5.385   4.370  14.849  0.00  0.00    +0.000 A 
ATOM     19  C   UNL     1       4.821   4.261  16.121  0.00  0.00    +0.000 A 
ATOM     20  C   UNL     1       5.621   4.453  17.250  0.00  0.00    +0.000 A 
ATOM     21  C   UNL     1       6.974   4.779  17.116  0.00  0.00    +0.000 A 
ATOM     22  C   UNL     1       7.533   4.878  15.840  0.00  0.00    +0.000 A 
ENDBRANCH  13  20
ENDBRANCH  11  13
ENDBRANCH   1  11
BRANCH   8  23
ATOM     23  C   UNL     1       0.638  11.322  19.888  0.00  0.00    +0.000 C 
BRANCH  23  24
ATOM     24  C   UNL     1      -0.189  11.683  18.643  0.00  0.00    +0.000 C 
BRANCH  24  25
ATOM     25  N   UNL     1      -1.553  11.100  18.626  0.00  0.00    +0.000 NA
ATOM     26  C   UNL     1      -2.556  12.183  18.661  0.00  0.00    +0.000 C 
ATOM     27  C   UNL     1      -3.986  11.638  18.690  0.00  0.00    +0.000 C 
ATOM     28  C   UNL     1      -4.248  10.717  17.505  0.00  0.00    +0.000 C 
ATOM     29  C   UNL     1      -3.182   9.634  17.445  0.00  0.00    +0.000 C 
ATOM     30  C   UNL     1      -1.774  10.234  17.454  0.00  0.00    +0.000 C 
ENDBRANCH  24  25
ENDBRANCH  23  24
ENDBRANCH   8  23
TORSDOF 6
ENDMDL
MODEL 2
REMARK VINA RESULT:      -7.8      3.552      9.565
REMARK  Name = 
REMARK  8 active torsions:
REMARK  status: ('A' for Active; 'I' for Inactive)
REMARK    1  A    between atoms: C_1  and  C_2
REMARK    2  A    between atoms: C_5  and  S_6
REMARK    3  A    between atoms: S_6  and  N_9
REMARK    4  A    between atoms: N_9  and  C_10
REMARK    5  A    between atoms: C_17  and  C_18
REMARK    6  A    between atoms: C_18  and  C_19
REMARK    7  A    between atoms: C_19  and  N_20
REMARK    8  A    between atoms: N_26  and  C_27
REMARK                            x       y       z     vdW  Elec       q    Type
REMARK                         _______ _______ _______ _____ _____    ______ ____
ROOT
ATOM      1  C   UNL     1       1.203   9.467  19.839  0.00  0.00    +0.000 A 
ATOM      2  C   UNL     1       0.880   8.822  21.035  0.00  0.00    +0.000 A 
ATOM      3  C   UNL     1       1.168   7.468  21.226  0.00  0.00    +0.000 A 
ATOM      4  C   UNL     1       1.805   6.804  20.171  0.00  0.00    +0.000 A 
ATOM      5  C   UNL     1       2.150   7.434  18.984  0.00  0.00    +0.000 A 
ATOM      6  C   UNL     1       1.851   8.792  18.803  0.00  0.00    +0.000 A 
ATOM      7  N   UNL     1       2.764   6.559  18.132  0.00  0.00    +0.000 NA
ATOM      8  C   UNL     1       2.806   5.395  18.758  0.00  0.00    +0.000 A 
ATOM      9  N   UNL     1       2.231   5.502  20.006  0.00  0.00    +0.000 N 
ATOM     10  C   UNL     1       2.051   4.486  21.013  0.00  0.00    +0.000 C 
ENDROOT
BRANCH   1  11
ATOM     11  N   UNL     1       0.901  10.853  19.705  0.00  0.00    +0.000 N 
ATOM     12  H   UNL     1       1.183  11.455  20.477  0.00  0.00    +0.000 HD
BRANCH  11  13
ATOM     13  S   UNL     1      -0.615  11.289  19.102  0.00  0.00    +0.000 S 
ATOM     14  O   UNL     1      -1.292  10.111  18.586  0.00  0.00    +0.000 OA
ATOM     15  O   UNL     1      -0.400  12.452  18.269  0.00  0.00    +0.000 OA
BRANCH  13  20
ATOM     16  C   UNL     1      -3.540  13.183  24.082  0.00  0.00    +0.000 C 
ATOM     17  C   UNL     1      -2.815  12.712  22.855  0.00  0.00    +0.000 A 
ATOM     18  C   UNL     1      -1.516  12.198  22.944  0.00  0.00    +0.000 A 
ATOM     19  C   UNL     1      -0.848  11.761  21.799  0.00  0.00    +0.000 A 
ATOM     20  C   UNL     1      -1.485  11.836  20.558  0.00  0.00    +0.000 A 
ATOM     21  C   UNL     1      -2.773  12.369  20.449  0.00  0.00    +0.000 A 
ATOM     22  C   UNL     1      -3.437  12.796  21.601  0.00  0.00    +0.000 A 
ENDBRANCH  13  20
ENDBRANCH  11  13
ENDBRANCH   1  11
BRANCH   8  23
ATOM     23  C   UNL     1       3.466   4.179  18.177  0.00  0.00    +0.000 C 
BRANCH  23  24
ATOM     24  C   UNL     1       4.739   3.736  18.917  0.00  0.00    +0.000 C 
BRANCH  24  25
ATOM     25  N   UNL     1       5.983   4.382  18.433  0.00  0.00    +0.000 NA
ATOM     26  C   UNL     1       5.785   4.870  17.054  0.00  0.00    +0.000 C 
ATOM     27  C   UNL     1       7.053   5.510  16.485  0.00  0.00    +0.000 C 
ATOM     28  C   UNL     1       7.546   6.642  17.376  0.00  0.00    +0.000 C 
ATOM     29  C   UNL     1       7.700   6.147  18.806  0.00  0.00    +0.000 C 
ATOM     30  C   UNL     1       6.415   5.486  19.310  0.00  0.00    +0.000 C 
ENDBRANCH  24  25
ENDBRANCH  23  24
ENDBRANCH   8  23
TORSDOF 6
ENDMDL
MODEL 3
REMARK VINA RESULT:      -7.7      0.606      1.099
REMARK  Name = 
REMARK  8 active torsions:
REMARK  status: ('A' for Active; 'I' for Inactive)
REMARK    1  A    between atoms: C_1  and  C_2
REMARK    2  A    between atoms: C_5  and  S_6
REMARK    3  A    between atoms: S_6  and  N_9
REMARK    4  A    between atoms: N_9  and  C_10
REMARK    5  A    between atoms: C_17  and  C_18
REMARK    6  A    between atoms: C_18  and  C_19
REMARK    7  A    between atoms: C_19  and  N_20
REMARK    8  A    between atoms: N_26  and  C_27
REMARK                            x       y       z     vdW  Elec       q    Type
REMARK                         _______ _______ _______ _____ _____    ______ ____
ROOT
ATOM      1  C   UNL     1       2.626   5.890  19.104  0.00  0.00    +0.000 A 
ATOM      2  C   UNL     1       2.196   5.920  20.433  0.00  0.00    +0.000 A 
ATOM      3  C   UNL     1       1.614   7.069  20.977  0.00  0.00    +0.000 A 
ATOM      4  C   UNL     1       1.473   8.169  20.125  0.00  0.00    +0.000 A 
ATOM      5  C   UNL     1       1.878   8.150  18.798  0.00  0.00    +0.000 A 
ATOM      6  C   UNL     1       2.464   6.995  18.264  0.00  0.00    +0.000 A 
ATOM      7  N   UNL     1       1.619   9.350  18.195  0.00  0.00    +0.000 NA
ATOM      8  C   UNL     1       1.065  10.119  19.117  0.00  0.00    +0.000 A 
ATOM      9  N   UNL     1       0.959   9.436  20.309  0.00  0.00    +0.000 N 
ATOM     10  C   UNL     1       0.433   9.891  21.573  0.00  0.00    +0.000 C 
ENDROOT
BRANCH   1  11
ATOM     11  N   UNL     1       3.198   4.688  18.596  0.00  0.00    +0.000 N 
ATOM     12  H   UNL     1       2.640   3.842  18.701  0.00  0.00    +0.000 HD
BRANCH  11  13
ATOM     13  S   UNL     1       4.834   4.392  18.889  0.00  0.00    +0.000 S 
ATOM     14  O   UNL     1       5.006   3.028  19.363  0.00  0.00    +0.000 OA
ATOM     15  O   UNL     1       5.318   5.517  19.659  0.00  0.00    +0.000 OA
BRANCH  13  20
ATOM     16  C   UNL     1       7.354   4.772  13.371  0.00  0.00    +0.000 C 
ATOM     17  C   UNL     1       6.735   4.682  14.735  0.00  0.00    +0.000 A 
ATOM     18  C   UNL     1       7.473   5.006  15.879  0.00  0.00    +0.000 A 
ATOM     19  C   UNL     1       6.891   4.920  17.145  0.00  0.00    +0.000 A 
ATOM     20  C   UNL     1       5.561   4.511  17.267  0.00  0.00    +0.000 A 
ATOM     21  C   UNL     1       4.817   4.162  16.135  0.00  0.00    +0.000 A 
ATOM     22  C   UNL     1       5.404   4.259  14.872  0.00  0.00    +0.000 A 
ENDBRANCH  13  20
ENDBRANCH  11  13
ENDBRANCH   1  11
BRANCH   8  23
ATOM     23  C   UNL     1       0.572  11.508  18.833  0.00  0.00    +0.000 C 
BRANCH  23  24
ATOM     24  C   UNL     1      -0.856  11.787  19.333  0.00  0.00    +0.000 C 
BRANCH  24  25
ATOM     25  N   UNL     1      -1.916  11.080  18.575  0.00  0.00    +0.000 NA
ATOM     26  C   UNL     1      -3.205  11.778  18.756  0.00  0.00    +0.000 C 
ATOM     27  C   UNL     1      -4.348  11.067  18.029  0.00  0.00    +0.000 C 
ATOM     28  C   UNL     1      -4.042  10.906  16.546  0.00  0.00    +0.000 C 
ATOM     29  C   UNL     1      -2.691  10.233  16.365  0.00  0.00    +0.000 C 
ATOM     30  C   UNL     1      -1.594  10.965  17.141  0.00  0.00    +0.000 C 
ENDBRANCH  24  25
ENDBRANCH  23  24
ENDBRANCH   8  23
TORSDOF 6
ENDMDL
MODEL 4
REMARK VINA RESULT:      -7.7      2.123      3.296
REMARK  Name = 
REMARK  8 active torsions:
REMARK  status: ('A' for Active; 'I' for Inactive)
REMARK    1  A    between atoms: C_1  and  C_2
REMARK    2  A    between atoms: C_5  and  S_6
REMARK    3  A    between atoms: S_6  and  N_9
REMARK    4  A    between atoms: N_9  and  C_10
REMARK    5  A    between atoms: C_17  and  C_18
REMARK    6  A    between atoms: C_18  and  C_19
REMARK    7  A    between atoms: C_19  and  N_20
REMARK    8  A    between atoms: N_26  and  C_27
REMARK                            x       y       z     vdW  Elec       q    Type
REMARK                         _______ _______ _______ _____ _____    ______ ____
ROOT
ATOM      1  C   UNL     1       2.860   5.970  18.954  0.00  0.00    +0.000 A 
ATOM      2  C   UNL     1       3.211   6.743  17.846  0.00  0.00    +0.000 A 
ATOM      3  C   UNL     1       2.803   8.076  17.737  0.00  0.00    +0.000 A 
ATOM      4  C   UNL     1       2.046   8.592  18.795  0.00  0.00    +0.000 A 
ATOM      5  C   UNL     1       1.704   7.843  19.911  0.00  0.00    +0.000 A 
ATOM      6  C   UNL     1       2.114   6.506  20.007  0.00  0.00    +0.000 A 
ATOM      7  N   UNL     1       0.970   8.591  20.790  0.00  0.00    +0.000 NA
ATOM      8  C   UNL     1       0.842   9.789  20.245  0.00  0.00    +0.000 A 
ATOM      9  N   UNL     1       1.484   9.831  19.026  0.00  0.00    +0.000 N 
ATOM     10  C   UNL     1       1.587  10.924  18.091  0.00  0.00    +0.000 C 
ENDROOT
BRANCH   1  11
ATOM     11  N   UNL     1       3.315   4.622  19.021  0.00  0.00    +0.000 N 
ATOM     12  H   UNL     1       2.782   3.992  19.618  0.00  0.00    +0.000 HD
BRANCH  11  13
ATOM     13  S   UNL     1       4.976   4.341  19.152  0.00  0.00    +0.000 S 
ATOM     14  O   UNL     1       5.204   3.007  19.683  0.00  0.00    +0.000 OA
ATOM     15  O   UNL     1       5.533   5.507  19.800  0.00  0.00    +0.000 OA
BRANCH  13  20
ATOM     16  C   UNL     1       6.888   4.403  13.383  0.00  0.00    +0.000 C 
ATOM     17  C   UNL     1       6.419   4.391  14.809  0.00  0.00    +0.000 A 
ATOM     18  C   UNL     1       7.252   4.838  15.841  0.00  0.00    +0.000 A 
ATOM     19  C   UNL     1       6.809   4.825  17.165  0.00  0.00    +0.000 A 
ATOM     20  C   UNL     1       5.523   4.366  17.457  0.00  0.00    +0.000 A 
ATOM     21  C   UNL     1       4.687   3.895  16.441  0.00  0.00    +0.000 A 
ATOM     22  C   UNL     1       5.135   3.918  15.118  0.00  0.00    +0.000 A 
ENDBRANCH  13  20
ENDBRANCH  11  13
ENDBRANCH   1  11
BRANCH   8  23
ATOM     23  C   UNL     1       0.149  10.929  20.932  0.00  0.00    +0.000 C 
BRANCH  23  24
ATOM     24  C   UNL     1      -0.198  10.661  22.406  0.00  0.00    +0.000 C 
BRANCH  24  25
ATOM     25  N   UNL     1      -0.851  11.800  23.096  0.00  0.00    +0.000 NA
ATOM     26  C   UNL     1      -0.464  13.065  22.440  0.00  0.00    +0.000 C 
ATOM     27  C   UNL     1      -1.075  14.282  23.139  0.00  0.00    +0.000 C 
ATOM     28  C   UNL     1      -2.592  14.171  23.211  0.00  0.00    +0.000 C 
ATOM     29  C   UNL     1      -2.985  12.844  23.840  0.00  0.00    +0.000 C 
ATOM     30  C   UNL     1      -2.319  11.667  23.125  0.00  0.00    +0.000 C 
ENDBRANCH  24  25
ENDBRANCH  23  24
ENDBRANCH   8  23
TORSDOF 6
ENDMDL
MODEL 5
REMARK VINA RESULT:      -7.6      2.146      3.230
REMARK  Name = 
REMARK  8 active torsions:
REMARK  status: ('A' for Active; 'I' for Inactive)
REMARK    1  A    between atoms: C_1  and  C_2
REMARK    2  A    between atoms: C_5  and  S_6
REMARK    3  A    between atoms: S_6  and  N_9
REMARK    4  A    between atoms: N_9  and  C_10
REMARK    5  A    between atoms: C_17  and  C_18
REMARK    6  A    between atoms: C_18  and  C_19
REMARK    7  A    between atoms: C_19  and  N_20
REMARK    8  A    between atoms: N_26  and  C_27
REMARK                            x       y       z     vdW  Elec       q    Type
REMARK                         _______ _______ _______ _____ _____    ______ ____
ROOT
ATOM      1  C   UNL     1       2.813   5.966  18.998  0.00  0.00    +0.000 A 
ATOM      2  C   UNL     1       3.057   6.845  17.940  0.00  0.00    +0.000 A 
ATOM      3  C   UNL     1       2.609   8.168  17.983  0.00  0.00    +0.000 A 
ATOM      4  C   UNL     1       1.925   8.565  19.137  0.00  0.00    +0.000 A 
ATOM      5  C   UNL     1       1.690   7.711  20.205  0.00  0.00    +0.000 A 
ATOM      6  C   UNL     1       2.139   6.384  20.148  0.00  0.00    +0.000 A 
ATOM      7  N   UNL     1       1.009   8.355  21.200  0.00  0.00    +0.000 NA
ATOM      8  C   UNL     1       0.809   9.591  20.776  0.00  0.00    +0.000 A 
ATOM      9  N   UNL     1       1.352   9.761  19.521  0.00  0.00    +0.000 N 
ATOM     10  C   UNL     1       1.354  10.934  18.683  0.00  0.00    +0.000 C 
ENDROOT
BRANCH   1  11
ATOM     11  N   UNL     1       3.306   4.633  18.908  0.00  0.00    +0.000 N 
ATOM     12  H   UNL     1       2.764   3.916  19.389  0.00  0.00    +0.000 HD
BRANCH  11  13
ATOM     13  S   UNL     1       4.965   4.376  19.085  0.00  0.00    +0.000 S 
ATOM     14  O   UNL     1       5.200   3.040  19.609  0.00  0.00    +0.000 OA
ATOM     15  O   UNL     1       5.486   5.544  19.761  0.00  0.00    +0.000 OA
BRANCH  13  20
ATOM     16  C   UNL     1       7.042   4.522  13.375  0.00  0.00    +0.000 C 
ATOM     17  C   UNL     1       6.533   4.489  14.787  0.00  0.00    +0.000 A 
ATOM     18  C   UNL     1       7.360   4.853  15.855  0.00  0.00    +0.000 A 
ATOM     19  C   UNL     1       6.880   4.821  17.165  0.00  0.00    +0.000 A 
ATOM     20  C   UNL     1       5.562   4.427  17.408  0.00  0.00    +0.000 A 
ATOM     21  C   UNL     1       4.729   4.038  16.353  0.00  0.00    +0.000 A 
ATOM     22  C   UNL     1       5.216   4.081  15.045  0.00  0.00    +0.000 A 
ENDBRANCH  13  20
ENDBRANCH  11  13
ENDBRANCH   1  11
BRANCH   8  23
ATOM     23  C   UNL     1       0.144  10.644  21.614  0.00  0.00    +0.000 C 
BRANCH  23  24
ATOM     24  C   UNL     1      -1.030  11.356  20.920  0.00  0.00    +0.000 C 
BRANCH  24  25
ATOM     25  N   UNL     1      -1.601  12.486  21.693  0.00  0.00    +0.000 NA
ATOM     26  C   UNL     1      -2.201  11.979  22.943  0.00  0.00    +0.000 C 
ATOM     27  C   UNL     1      -2.846  13.099  23.763  0.00  0.00    +0.000 C 
ATOM     28  C   UNL     1      -1.844  14.204  24.071  0.00  0.00    +0.000 C 
ATOM     29  C   UNL     1      -1.193  14.686  22.784  0.00  0.00    +0.000 C 
ATOM     30  C   UNL     1      -0.596  13.522  21.989  0.00  0.00    +0.000 C 
ENDBRANCH  24  25
ENDBRANCH  23  24
ENDBRANCH   8  23
TORSDOF 6
ENDMDL
MODEL 6
REMARK VINA RESULT:      -7.6      2.089      3.171
REMARK  Name = 
REMARK  8 active torsions:
REMARK  status: ('A' for Active; 'I' for Inactive)
REMARK    1  A    between atoms: C_1  and  C_2
REMARK    2  A    between atoms: C_5  and  S_6
REMARK    3  A    between atoms: S_6  and  N_9
REMARK    4  A    between atoms: N_9  and  C_10
REMARK    5  A    between atoms: C_17  and  C_18
REMARK    6  A    between atoms: C_18  and  C_19
REMARK    7  A    between atoms: C_19  and  N_20
REMARK    8  A    between atoms: N_26  and  C_27
REMARK                            x       y       z     vdW  Elec       q    Type
REMARK                         _______ _______ _______ _____ _____    ______ ____
ROOT
ATOM      1  C   UNL     1       2.646   5.862  19.145  0.00  0.00    +0.000 A 
ATOM      2  C   UNL     1       2.043   5.971  20.400  0.00  0.00    +0.000 A 
ATOM      3  C   UNL     1       1.481   7.178  20.828  0.00  0.00    +0.000 A 
ATOM      4  C   UNL     1       1.542   8.253  19.936  0.00  0.00    +0.000 A 
ATOM      5  C   UNL     1       2.121   8.157  18.678  0.00  0.00    +0.000 A 
ATOM      6  C   UNL     1       2.685   6.944  18.262  0.00  0.00    +0.000 A 
ATOM      7  N   UNL     1       2.037   9.350  18.014  0.00  0.00    +0.000 NA
ATOM      8  C   UNL     1       1.424  10.190  18.830  0.00  0.00    +0.000 A 
ATOM      9  N   UNL     1       1.105   9.560  20.014  0.00  0.00    +0.000 N 
ATOM     10  C   UNL     1       0.448  10.097  21.180  0.00  0.00    +0.000 C 
ENDROOT
BRANCH   1  11
ATOM     11  N   UNL     1       3.189   4.605  18.753  0.00  0.00    +0.000 N 
ATOM     12  H   UNL     1       2.631   3.781  18.976  0.00  0.00    +0.000 HD
BRANCH  11  13
ATOM     13  S   UNL     1       4.835   4.326  19.010  0.00  0.00    +0.000 S 
ATOM     14  O   UNL     1       5.031   2.965  19.483  0.00  0.00    +0.000 OA
ATOM     15  O   UNL     1       5.324   5.457  19.767  0.00  0.00    +0.000 OA
BRANCH  13  20
ATOM     16  C   UNL     1       7.224   4.714  13.435  0.00  0.00    +0.000 C 
ATOM     17  C   UNL     1       6.638   4.621  14.814  0.00  0.00    +0.000 A 
ATOM     18  C   UNL     1       7.440   4.801  15.947  0.00  0.00    +0.000 A 
ATOM     19  C   UNL     1       6.888   4.714  17.226  0.00  0.00    +0.000 A 
ATOM     20  C   UNL     1       5.524   4.449  17.372  0.00  0.00    +0.000 A 
ATOM     21  C   UNL     1       4.714   4.244  16.251  0.00  0.00    +0.000 A 
ATOM     22  C   UNL     1       5.273   4.341  14.975  0.00  0.00    +0.000 A 
ENDBRANCH  13  20
ENDBRANCH  11  13
ENDBRANCH   1  11
BRANCH   8  23
ATOM     23  C   UNL     1       1.080  11.599  18.444  0.00  0.00    +0.000 C 
BRANCH  23  24
ATOM     24  C   UNL     1       2.292  12.543  18.355  0.00  0.00    +0.000 C 
BRANCH  24  25
ATOM     25  N   UNL     1       2.189  13.750  19.210  0.00  0.00    +0.000 NA
ATOM     26  C   UNL     1       0.888  14.411  18.981  0.00  0.00    +0.000 C 
ATOM     27  C   UNL     1       0.743  15.691  19.807  0.00  0.00    +0.000 C 
ATOM     28  C   UNL     1       0.937  15.413  21.292  0.00  0.00    +0.000 C 
ATOM     29  C   UNL     1       2.255  14.688  21.515  0.00  0.00    +0.000 C 
ATOM     30  C   UNL     1       2.360  13.437  20.640  0.00  0.00    +0.000 C 
ENDBRANCH  24  25
ENDBRANCH  23  24
ENDBRANCH   8  23
TORSDOF 6
ENDMDL
MODEL 7
REMARK VINA RESULT:      -7.6      3.633      9.353
REMARK  Name = 
REMARK  8 active torsions:
REMARK  status: ('A' for Active; 'I' for Inactive)
REMARK    1  A    between atoms: C_1  and  C_2
REMARK    2  A    between atoms: C_5  and  S_6
REMARK    3  A    between atoms: S_6  and  N_9
REMARK    4  A    between atoms: N_9  and  C_10
REMARK    5  A    between atoms: C_17  and  C_18
REMARK    6  A    between atoms: C_18  and  C_19
REMARK    7  A    between atoms: C_19  and  N_20
REMARK    8  A    between atoms: N_26  and  C_27
REMARK                            x       y       z     vdW  Elec       q    Type
REMARK                         _______ _______ _______ _____ _____    ______ ____
ROOT
ATOM      1  C   UNL     1       1.058   9.095  19.461  0.00  0.00    +0.000 A 
ATOM      2  C   UNL     1       1.494   9.488  18.194  0.00  0.00    +0.000 A 
ATOM      3  C   UNL     1       2.486   8.772  17.517  0.00  0.00    +0.000 A 
ATOM      4  C   UNL     1       3.001   7.644  18.165  0.00  0.00    +0.000 A 
ATOM      5  C   UNL     1       2.567   7.230  19.416  0.00  0.00    +0.000 A 
ATOM      6  C   UNL     1       1.575   7.958  20.086  0.00  0.00    +0.000 A 
ATOM      7  N   UNL     1       3.231   6.101  19.810  0.00  0.00    +0.000 NA
ATOM      8  C   UNL     1       4.073   5.803  18.835  0.00  0.00    +0.000 A 
ATOM      9  N   UNL     1       3.965   6.721  17.813  0.00  0.00    +0.000 N 
ATOM     10  C   UNL     1       4.697   6.789  16.572  0.00  0.00    +0.000 C 
ENDROOT
BRANCH   1  11
ATOM     11  N   UNL     1       0.033   9.853  20.098  0.00  0.00    +0.000 N 
ATOM     12  H   UNL     1      -0.632  10.322  19.484  0.00  0.00    +0.000 HD
BRANCH  11  13
ATOM     13  S   UNL     1       0.453  10.825  21.413  0.00  0.00    +0.000 S 
ATOM     14  O   UNL     1       1.385  11.854  20.983  0.00  0.00    +0.000 OA
ATOM     15  O   UNL     1       0.785   9.922  22.494  0.00  0.00    +0.000 OA
BRANCH  13  20
ATOM     16  C   UNL     1      -4.822  13.495  22.821  0.00  0.00    +0.000 C 
ATOM     17  C   UNL     1      -3.519  12.839  22.470  0.00  0.00    +0.000 A 
ATOM     18  C   UNL     1      -2.976  12.966  21.186  0.00  0.00    +0.000 A 
ATOM     19  C   UNL     1      -1.763  12.354  20.866  0.00  0.00    +0.000 A 
ATOM     20  C   UNL     1      -1.087  11.613  21.839  0.00  0.00    +0.000 A 
ATOM     21  C   UNL     1      -1.627  11.457  23.119  0.00  0.00    +0.000 A 
ATOM     22  C   UNL     1      -2.837  12.080  23.433  0.00  0.00    +0.000 A 
ENDBRANCH  13  20
ENDBRANCH  11  13
ENDBRANCH   1  11
BRANCH   8  23
ATOM     23  C   UNL     1       4.949   4.585  18.856  0.00  0.00    +0.000 C 
BRANCH  23  24
ATOM     24  C   UNL     1       4.301   3.330  18.245  0.00  0.00    +0.000 C 
BRANCH  24  25
ATOM     25  N   UNL     1       3.220   2.739  19.070  0.00  0.00    +0.000 NA
ATOM     26  C   UNL     1       3.490   2.992  20.499  0.00  0.00    +0.000 C 
ATOM     27  C   UNL     1       2.426   2.365  21.403  0.00  0.00    +0.000 C 
ATOM     28  C   UNL     1       1.032   2.857  21.036  0.00  0.00    +0.000 C 
ATOM     29  C   UNL     1       0.779   2.640  19.553  0.00  0.00    +0.000 C 
ATOM     30  C   UNL     1       1.890   3.257  18.700  0.00  0.00    +0.000 C 
ENDBRANCH  24  25
ENDBRANCH  23  24
ENDBRANCH   8  23
TORSDOF 6
ENDMDL
MODEL 8
REMARK VINA RESULT:      -7.6      1.110      1.630
REMARK  Name = 
REMARK  8 active torsions:
REMARK  status: ('A' for Active; 'I' for Inactive)
REMARK    1  A    between atoms: C_1  and  C_2
REMARK    2  A    between atoms: C_5  and  S_6
REMARK    3  A    between atoms: S_6  and  N_9
REMARK    4  A    between atoms: N_9  and  C_10
REMARK    5  A    between atoms: C_17  and  C_18
REMARK    6  A    between atoms: C_18  and  C_19
REMARK    7  A    between atoms: C_19  and  N_20
REMARK    8  A    between atoms: N_26  and  C_27
REMARK                            x       y       z     vdW  Elec       q    Type
REMARK                         _______ _______ _______ _____ _____    ______ ____
ROOT
ATOM      1  C   UNL     1       2.658   5.817  19.154  0.00  0.00    +0.000 A 
ATOM      2  C   UNL     1       2.139   5.833  20.451  0.00  0.00    +0.000 A 
ATOM      3  C   UNL     1       1.535   6.981  20.972  0.00  0.00    +0.000 A 
ATOM      4  C   UNL     1       1.466   8.096  20.129  0.00  0.00    +0.000 A 
ATOM      5  C   UNL     1       1.960   8.091  18.833  0.00  0.00    +0.000 A 
ATOM      6  C   UNL     1       2.568   6.936  18.322  0.00  0.00    +0.000 A 
ATOM      7  N   UNL     1       1.757   9.303  18.233  0.00  0.00    +0.000 NA
ATOM      8  C   UNL     1       1.151  10.066  19.127  0.00  0.00    +0.000 A 
ATOM      9  N   UNL     1       0.955   9.367  20.298  0.00  0.00    +0.000 N 
ATOM     10  C   UNL     1       0.350   9.809  21.530  0.00  0.00    +0.000 C 
ENDROOT
BRANCH   1  11
ATOM     11  N   UNL     1       3.249   4.616  18.668  0.00  0.00    +0.000 N 
ATOM     12  H   UNL     1       2.710   3.761  18.798  0.00  0.00    +0.000 HD
BRANCH  11  13
ATOM     13  S   UNL     1       4.894   4.359  18.950  0.00  0.00    +0.000 S 
ATOM     14  O   UNL     1       5.097   3.012  19.459  0.00  0.00    +0.000 OA
ATOM     15  O   UNL     1       5.364   5.513  19.684  0.00  0.00    +0.000 OA
BRANCH  13  20
ATOM     16  C   UNL     1       7.270   4.697  13.366  0.00  0.00    +0.000 C 
ATOM     17  C   UNL     1       6.679   4.611  14.743  0.00  0.00    +0.000 A 
ATOM     18  C   UNL     1       5.304   4.418  14.922  0.00  0.00    +0.000 A 
ATOM     19  C   UNL     1       4.762   4.338  16.206  0.00  0.00    +0.000 A 
ATOM     20  C   UNL     1       5.601   4.448  17.317  0.00  0.00    +0.000 A 
ATOM     21  C   UNL     1       6.973   4.664  17.156  0.00  0.00    +0.000 A 
ATOM     22  C   UNL     1       7.509   4.734  15.868  0.00  0.00    +0.000 A 
ENDBRANCH  13  20
ENDBRANCH  11  13
ENDBRANCH   1  11
BRANCH   8  23
ATOM     23  C   UNL     1       0.695  11.465  18.832  0.00  0.00    +0.000 C 
BRANCH  23  24
ATOM     24  C   UNL     1      -0.793  11.580  18.463  0.00  0.00    +0.000 C 
BRANCH  24  25
ATOM     25  N   UNL     1      -1.674  11.966  19.592  0.00  0.00    +0.000 NA
ATOM     26  C   UNL     1      -1.138  13.174  20.249  0.00  0.00    +0.000 C 
ATOM     27  C   UNL     1      -1.985  13.594  21.453  0.00  0.00    +0.000 C 
ATOM     28  C   UNL     1      -3.438  13.814  21.053  0.00  0.00    +0.000 C 
ATOM     29  C   UNL     1      -3.969  12.586  20.331  0.00  0.00    +0.000 C 
ATOM     30  C   UNL     1      -3.066  12.191  19.161  0.00  0.00    +0.000 C 
ENDBRANCH  24  25
ENDBRANCH  23  24
ENDBRANCH   8  23
TORSDOF 6
ENDMDL
MODEL 9
REMARK VINA RESULT:      -7.6      2.985      3.874
REMARK  Name = 
REMARK  8 active torsions:
REMARK  status: ('A' for Active; 'I' for Inactive)
REMARK    1  A    between atoms: C_1  and  C_2
REMARK    2  A    between atoms: C_5  and  S_6
REMARK    3  A    between atoms: S_6  and  N_9
REMARK    4  A    between atoms: N_9  and  C_10
REMARK    5  A    between atoms: C_17  and  C_18
REMARK    6  A    between atoms: C_18  and  C_19
REMARK    7  A    between atoms: C_19  and  N_20
REMARK    8  A    between atoms: N_26  and  C_27
REMARK                            x       y       z     vdW  Elec       q    Type
REMARK                         _______ _______ _______ _____ _____    ______ ____
ROOT
ATOM      1  C   UNL     1       2.212   7.632  19.534  0.00  0.00    +0.000 A 
ATOM      2  C   UNL     1       2.105   8.267  18.294  0.00  0.00    +0.000 A 
ATOM      3  C   UNL     1       1.298   9.397  18.129  0.00  0.00    +0.000 A 
ATOM      4  C   UNL     1       0.624   9.861  19.264  0.00  0.00    +0.000 A 
ATOM      5  C   UNL     1       0.734   9.254  20.506  0.00  0.00    +0.000 A 
ATOM      6  C   UNL     1       1.542   8.119  20.659  0.00  0.00    +0.000 A 
ATOM      7  N   UNL     1      -0.021   9.914  21.436  0.00  0.00    +0.000 NA
ATOM      8  C   UNL     1      -0.604  10.916  20.801  0.00  0.00    +0.000 A 
ATOM      9  N   UNL     1      -0.237  10.920  19.473  0.00  0.00    +0.000 N 
ATOM     10  C   UNL     1      -0.642  11.818  18.421  0.00  0.00    +0.000 C 
ENDROOT
BRANCH   1  11
ATOM     11  N   UNL     1       3.061   6.494  19.649  0.00  0.00    +0.000 N 
ATOM     12  H   UNL     1       4.064   6.672  19.625  0.00  0.00    +0.000 HD
BRANCH  11  13
ATOM     13  S   UNL     1       2.659   5.102  18.782  0.00  0.00    +0.000 S 
ATOM     14  O   UNL     1       1.376   5.290  18.123  0.00  0.00    +0.000 OA
ATOM     15  O   UNL     1       2.881   3.989  19.678  0.00  0.00    +0.000 OA
BRANCH  13  20
ATOM     16  C   UNL     1       6.937   4.828  14.474  0.00  0.00    +0.000 C 
ATOM     17  C   UNL     1       5.882   4.891  15.539  0.00  0.00    +0.000 A 
ATOM     18  C   UNL     1       5.266   3.724  16.006  0.00  0.00    +0.000 A 
ATOM     19  C   UNL     1       4.285   3.790  16.998  0.00  0.00    +0.000 A 
ATOM     20  C   UNL     1       3.922   5.030  17.528  0.00  0.00    +0.000 A 
ATOM     21  C   UNL     1       4.511   6.207  17.055  0.00  0.00    +0.000 A 
ATOM     22  C   UNL     1       5.497   6.132  16.069  0.00  0.00    +0.000 A 
ENDBRANCH  13  20
ENDBRANCH  11  13
ENDBRANCH   1  11
BRANCH   8  23
ATOM     23  C   UNL     1      -1.475  11.924  21.492  0.00  0.00    +0.000 C 
BRANCH  23  24
ATOM     24  C   UNL     1      -1.812  11.574  22.952  0.00  0.00    +0.000 C 
BRANCH  24  25
ATOM     25  N   UNL     1      -2.857  12.433  23.560  0.00  0.00    +0.000 NA
ATOM     26  C   UNL     1      -2.271  13.734  23.940  0.00  0.00    +0.000 C 
ATOM     27  C   UNL     1      -3.297  14.648  24.615  0.00  0.00    +0.000 C 
ATOM     28  C   UNL     1      -4.515  14.860  23.725  0.00  0.00    +0.000 C 
ATOM     29  C   UNL     1      -5.083  13.516  23.295  0.00  0.00    +0.000 C 
ATOM     30  C   UNL     1      -4.007  12.632  22.660  0.00  0.00    +0.000 C 
ENDBRANCH  24  25
ENDBRANCH  23  24
ENDBRANCH   8  23
TORSDOF 6
ENDMDL
