MODEL 1
REMARK VINA RESULT:      -7.1      0.000      0.000
REMARK  Name = 
REMARK  9 active torsions:
REMARK  status: ('A' for Active; 'I' for Inactive)
REMARK    1  A    between atoms: C_1  and  N_2
REMARK    2  A    between atoms: C_6  and  C_7
REMARK    3  A    between atoms: C_7  and  N_8
REMARK    4  A    between atoms: C_9  and  C_11
REMARK    5  A    between atoms: C_14  and  C_15
REMARK    6  A    between atoms: C_15  and  C_16
REMARK    7  A    between atoms: C_16  and  N_17
REMARK    8  A    between atoms: N_17  and  C_18
REMARK    9  A    between atoms: C_18  and  C_19
REMARK                            x       y       z     vdW  Elec       q    Type
REMARK                         _______ _______ _______ _____ _____    ______ ____
ROOT
ATOM      1  C   UNL     1       2.346   6.195  19.088  0.00  0.00    +0.000 A 
ATOM      2  C   UNL     1       2.675   6.056  20.423  0.00  0.00    +0.000 A 
ATOM      3  S   UNL     1       2.175   4.536  21.013  0.00  0.00    +0.000 S 
ATOM      4  C   UNL     1       1.554   4.147  19.458  0.00  0.00    +0.000 A 
ATOM      5  N   UNL     1       1.685   5.088  18.541  0.00  0.00    +0.000 NA
ENDROOT
BRANCH   1   7
ATOM      6  N   UNL     1       1.792   8.454  18.526  0.00  0.00    +0.000 N 
ATOM      7  C   UNL     1       2.653   7.408  18.316  0.00  0.00    +0.000 C 
ATOM      8  O   UNL     1       3.617   7.468  17.558  0.00  0.00    +0.000 OA
ATOM      9  H   UNL     1       1.035   8.311  19.187  0.00  0.00    +0.000 HD
BRANCH   6  10
ATOM     10  C   UNL     1       1.989   9.751  17.933  0.00  0.00    +0.000 C 
BRANCH  10  16
ATOM     11  C   UNL     1       2.535  12.830  18.195  0.00  0.00    +0.000 C 
ATOM     12  N   UNL     1       1.415  12.101  18.735  0.00  0.00    +0.000 N 
ATOM     13  C   UNL     1       0.428  12.663  19.499  0.00  0.00    +0.000 A 
ATOM     14  N   UNL     1      -0.464  11.774  19.868  0.00  0.00    +0.000 NA
ATOM     15  C   UNL     1      -0.035  10.591  19.327  0.00  0.00    +0.000 A 
ATOM     16  C   UNL     1       1.139  10.756  18.617  0.00  0.00    +0.000 A 
ENDBRANCH  10  16
ENDBRANCH   6  10
ENDBRANCH   1   7
BRANCH   4  17
ATOM     17  C   UNL     1       0.911   2.810  19.228  0.00  0.00    +0.000 C 
BRANCH  17  18
ATOM     18  C   UNL     1       1.848   1.815  18.522  0.00  0.00    +0.000 C 
BRANCH  18  19
ATOM     19  N   UNL     1       3.293   2.091  18.633  0.00  0.00    +0.000 NA
ATOM     20  H   UNL     1       3.762   1.216  18.889  0.00  0.00    +0.000 HD
BRANCH  19  21
ATOM     21  C   UNL     1       3.849   2.509  17.337  0.00  0.00    +0.000 C 
BRANCH  21  22
ATOM     22  C   UNL     1       4.857   3.591  17.487  0.00  0.00    +0.000 A 
ATOM     23  N   UNL     1       5.185   4.481  16.570  0.00  0.00    +0.000 NA
ATOM     24  C   UNL     1       6.107   5.298  17.167  0.00  0.00    +0.000 A 
ATOM     25  C   UNL     1       6.767   6.420  16.650  0.00  0.00    +0.000 A 
ATOM     26  C   UNL     1       7.672   7.100  17.473  0.00  0.00    +0.000 A 
ATOM     27  C   UNL     1       7.918   6.667  18.778  0.00  0.00    +0.000 A 
ATOM     28  C   UNL     1       7.270   5.544  19.310  0.00  0.00    +0.000 A 
ATOM     29  C   UNL     1       6.367   4.890  18.471  0.00  0.00    +0.000 A 
ATOM     30  N   UNL     1       5.563   3.799  18.650  0.00  0.00    +0.000 N 
ATOM     31  H   UNL     1       5.482   3.222  19.474  0.00  0.00    +0.000 HD
ENDBRANCH  21  22
ENDBRANCH  19  21
ENDBRANCH  18  19
ENDBRANCH  17  18
ENDBRANCH   4  17
TORSDOF 8
ENDMDL
MODEL 2
REMARK VINA RESULT:      -7.0      2.058      2.743
REMARK  Name = 
REMARK  9 active torsions:
REMARK  status: ('A' for Active; 'I' for Inactive)
REMARK    1  A    between atoms: C_1  and  N_2
REMARK    2  A    between atoms: C_6  and  C_7
REMARK    3  A    between atoms: C_7  and  N_8
REMARK    4  A    between atoms: C_9  and  C_11
REMARK    5  A    between atoms: C_14  and  C_15
REMARK    6  A    between atoms: C_15  and  C_16
REMARK    7  A    between atoms: C_16  and  N_17
REMARK    8  A    between atoms: N_17  and  C_18
REMARK    9  A    between atoms: C_18  and  C_19
REMARK                            x       y       z     vdW  Elec       q    Type
REMARK                         _______ _______ _______ _____ _____    ______ ____
ROOT
ATOM      1  C   UNL     1       1.393   8.337  20.172  0.00  0.00    +0.000 A 
ATOM      2  C   UNL     1       2.047   8.282  18.955  0.00  0.00    +0.000 A 
ATOM      3  S   UNL     1       2.683   6.723  18.681  0.00  0.00    +0.000 S 
ATOM      4  C   UNL     1       2.048   6.209  20.194  0.00  0.00    +0.000 A 
ATOM      5  N   UNL     1       1.410   7.133  20.887  0.00  0.00    +0.000 NA
ENDROOT
BRANCH   1   7
ATOM      6  N   UNL     1       0.878  10.652  19.852  0.00  0.00    +0.000 N 
ATOM      7  C   UNL     1       0.748   9.559  20.672  0.00  0.00    +0.000 C 
ATOM      8  O   UNL     1       0.133   9.581  21.734  0.00  0.00    +0.000 OA
ATOM      9  H   UNL     1       1.391  10.527  18.985  0.00  0.00    +0.000 HD
BRANCH   6  10
ATOM     10  C   UNL     1       0.233  11.908  20.129  0.00  0.00    +0.000 C 
BRANCH  10  16
ATOM     11  C   UNL     1      -2.491  12.578  21.534  0.00  0.00    +0.000 C 
ATOM     12  N   UNL     1      -2.297  12.212  20.154  0.00  0.00    +0.000 N 
ATOM     13  C   UNL     1      -3.312  12.059  19.249  0.00  0.00    +0.000 A 
ATOM     14  N   UNL     1      -2.859  11.713  18.066  0.00  0.00    +0.000 NA
ATOM     15  C   UNL     1      -1.500  11.636  18.213  0.00  0.00    +0.000 A 
ATOM     16  C   UNL     1      -1.113  11.935  19.506  0.00  0.00    +0.000 A 
ENDBRANCH  10  16
ENDBRANCH   6  10
ENDBRANCH   1   7
BRANCH   4  17
ATOM     17  C   UNL     1       2.248   4.789  20.639  0.00  0.00    +0.000 C 
BRANCH  17  18
ATOM     18  C   UNL     1       2.012   3.774  19.508  0.00  0.00    +0.000 C 
BRANCH  18  19
ATOM     19  N   UNL     1       2.909   2.603  19.485  0.00  0.00    +0.000 NA
ATOM     20  H   UNL     1       2.330   1.760  19.550  0.00  0.00    +0.000 HD
BRANCH  19  21
ATOM     21  C   UNL     1       3.637   2.523  18.210  0.00  0.00    +0.000 C 
BRANCH  21  22
ATOM     22  C   UNL     1       4.668   3.587  18.090  0.00  0.00    +0.000 A 
ATOM     23  N   UNL     1       4.836   4.396  17.061  0.00  0.00    +0.000 NA
ATOM     24  C   UNL     1       5.860   5.231  17.416  0.00  0.00    +0.000 A 
ATOM     25  C   UNL     1       6.429   6.293  16.702  0.00  0.00    +0.000 A 
ATOM     26  C   UNL     1       7.476   7.010  17.292  0.00  0.00    +0.000 A 
ATOM     27  C   UNL     1       7.949   6.672  18.562  0.00  0.00    +0.000 A 
ATOM     28  C   UNL     1       7.394   5.610  19.289  0.00  0.00    +0.000 A 
ATOM     29  C   UNL     1       6.346   4.918  18.681  0.00  0.00    +0.000 A 
ATOM     30  N   UNL     1       5.574   3.865  19.087  0.00  0.00    +0.000 N 
ATOM     31  H   UNL     1       5.637   3.354  19.956  0.00  0.00    +0.000 HD
ENDBRANCH  21  22
ENDBRANCH  19  21
ENDBRANCH  18  19
ENDBRANCH  17  18
ENDBRANCH   4  17
TORSDOF 8
ENDMDL
MODEL 3
REMARK VINA RESULT:      -6.9      2.256      3.128
REMARK  Name = 
REMARK  9 active torsions:
REMARK  status: ('A' for Active; 'I' for Inactive)
REMARK    1  A    between atoms: C_1  and  N_2
REMARK    2  A    between atoms: C_6  and  C_7
REMARK    3  A    between atoms: C_7  and  N_8
REMARK    4  A    between atoms: C_9  and  C_11
REMARK    5  A    between atoms: C_14  and  C_15
REMARK    6  A    between atoms: C_15  and  C_16
REMARK    7  A    between atoms: C_16  and  N_17
REMARK    8  A    between atoms: N_17  and  C_18
REMARK    9  A    between atoms: C_18  and  C_19
REMARK                            x       y       z     vdW  Elec       q    Type
REMARK                         _______ _______ _______ _____ _____    ______ ____
ROOT
ATOM      1  C   UNL     1       1.501   8.657  19.702  0.00  0.00    +0.000 A 
ATOM      2  C   UNL     1       2.135   8.327  18.519  0.00  0.00    +0.000 A 
ATOM      3  S   UNL     1       2.663   6.705  18.550  0.00  0.00    +0.000 S 
ATOM      4  C   UNL     1       2.015   6.534  20.133  0.00  0.00    +0.000 A 
ATOM      5  N   UNL     1       1.448   7.615  20.635  0.00  0.00    +0.000 NA
ENDROOT
BRANCH   1   7
ATOM      6  N   UNL     1       0.611  10.700  18.830  0.00  0.00    +0.000 N 
ATOM      7  C   UNL     1       0.944   9.993  19.957  0.00  0.00    +0.000 C 
ATOM      8  O   UNL     1       0.783  10.423  21.096  0.00  0.00    +0.000 OA
ATOM      9  H   UNL     1       0.767  10.250  17.933  0.00  0.00    +0.000 HD
BRANCH   6  10
ATOM     10  C   UNL     1      -0.035  11.985  18.885  0.00  0.00    +0.000 C 
BRANCH  10  16
ATOM     11  C   UNL     1      -2.503  12.469  20.760  0.00  0.00    +0.000 C 
ATOM     12  N   UNL     1      -2.534  12.046  19.383  0.00  0.00    +0.000 N 
ATOM     13  C   UNL     1      -3.678  11.744  18.696  0.00  0.00    +0.000 A 
ATOM     14  N   UNL     1      -3.420  11.377  17.463  0.00  0.00    +0.000 NA
ATOM     15  C   UNL     1      -2.057  11.438  17.349  0.00  0.00    +0.000 A 
ATOM     16  C   UNL     1      -1.469  11.847  18.531  0.00  0.00    +0.000 A 
ENDBRANCH  10  16
ENDBRANCH   6  10
ENDBRANCH   1   7
BRANCH   4  17
ATOM     17  C   UNL     1       2.126   5.216  20.843  0.00  0.00    +0.000 C 
BRANCH  17  18
ATOM     18  C   UNL     1       1.100   4.184  20.342  0.00  0.00    +0.000 C 
BRANCH  18  19
ATOM     19  N   UNL     1       1.454   3.460  19.106  0.00  0.00    +0.000 NA
ATOM     20  H   UNL     1       1.601   4.153  18.366  0.00  0.00    +0.000 HD
BRANCH  19  21
ATOM     21  C   UNL     1       2.722   2.733  19.269  0.00  0.00    +0.000 C 
BRANCH  21  22
ATOM     22  C   UNL     1       3.779   3.249  18.360  0.00  0.00    +0.000 A 
ATOM     23  N   UNL     1       3.684   3.376  17.049  0.00  0.00    +0.000 NA
ATOM     24  C   UNL     1       4.870   3.931  16.649  0.00  0.00    +0.000 A 
ATOM     25  C   UNL     1       5.290   4.299  15.365  0.00  0.00    +0.000 A 
ATOM     26  C   UNL     1       6.563   4.861  15.215  0.00  0.00    +0.000 A 
ATOM     27  C   UNL     1       7.399   5.046  16.318  0.00  0.00    +0.000 A 
ATOM     28  C   UNL     1       6.996   4.681  17.610  0.00  0.00    +0.000 A 
ATOM     29  C   UNL     1       5.720   4.130  17.732  0.00  0.00    +0.000 A 
ATOM     30  N   UNL     1       5.004   3.684  18.809  0.00  0.00    +0.000 N 
ATOM     31  H   UNL     1       5.297   3.657  19.774  0.00  0.00    +0.000 HD
ENDBRANCH  21  22
ENDBRANCH  19  21
ENDBRANCH  18  19
ENDBRANCH  17  18
ENDBRANCH   4  17
TORSDOF 8
ENDMDL
MODEL 4
REMARK VINA RESULT:      -6.8      3.244      4.582
REMARK  Name = 
REMARK  9 active torsions:
REMARK  status: ('A' for Active; 'I' for Inactive)
REMARK    1  A    between atoms: C_1  and  N_2
REMARK    2  A    between atoms: C_6  and  C_7
REMARK    3  A    between atoms: C_7  and  N_8
REMARK    4  A    between atoms: C_9  and  C_11
REMARK    5  A    between atoms: C_14  and  C_15
REMARK    6  A    between atoms: C_15  and  C_16
REMARK    7  A    between atoms: C_16  and  N_17
REMARK    8  A    between atoms: N_17  and  C_18
REMARK    9  A    between atoms: C_18  and  C_19
REMARK                            x       y       z     vdW  Elec       q    Type
REMARK                         _______ _______ _______ _____ _____    ______ ____
ROOT
ATOM      1  C   UNL     1       1.389   9.115  19.163  0.00  0.00    +0.000 A 
ATOM      2  C   UNL     1       1.429   8.296  20.276  0.00  0.00    +0.000 A 
ATOM      3  S   UNL     1       2.318   6.877  19.949  0.00  0.00    +0.000 S 
ATOM      4  C   UNL     1       2.603   7.436  18.348  0.00  0.00    +0.000 A 
ATOM      5  N   UNL     1       2.062   8.602  18.048  0.00  0.00    +0.000 NA
ENDROOT
BRANCH   1   7
ATOM      6  N   UNL     1      -0.615  10.350  18.728  0.00  0.00    +0.000 N 
ATOM      7  C   UNL     1       0.688  10.407  19.154  0.00  0.00    +0.000 C 
ATOM      8  O   UNL     1       1.235  11.446  19.515  0.00  0.00    +0.000 OA
ATOM      9  H   UNL     1      -0.981   9.439  18.467  0.00  0.00    +0.000 HD
BRANCH   6  10
ATOM     10  C   UNL     1      -1.485  11.496  18.743  0.00  0.00    +0.000 C 
BRANCH  10  16
ATOM     11  C   UNL     1      -4.566  12.026  19.014  0.00  0.00    +0.000 C 
ATOM     12  N   UNL     1      -3.865  11.584  17.835  0.00  0.00    +0.000 N 
ATOM     13  C   UNL     1      -4.474  11.282  16.647  0.00  0.00    +0.000 A 
ATOM     14  N   UNL     1      -3.605  10.896  15.742  0.00  0.00    +0.000 NA
ATOM     15  C   UNL     1      -2.389  10.944  16.370  0.00  0.00    +0.000 A 
ATOM     16  C   UNL     1      -2.514  11.365  17.681  0.00  0.00    +0.000 A 
ENDBRANCH  10  16
ENDBRANCH   6  10
ENDBRANCH   1   7
BRANCH   4  17
ATOM     17  C   UNL     1       3.416   6.600  17.403  0.00  0.00    +0.000 C 
BRANCH  17  18
ATOM     18  C   UNL     1       4.916   6.608  17.746  0.00  0.00    +0.000 C 
BRANCH  18  19
ATOM     19  N   UNL     1       5.463   5.356  18.304  0.00  0.00    +0.000 NA
ATOM     20  H   UNL     1       4.864   4.584  17.995  0.00  0.00    +0.000 HD
BRANCH  19  21
ATOM     21  C   UNL     1       6.810   5.090  17.775  0.00  0.00    +0.000 C 
BRANCH  21  22
ATOM     22  C   UNL     1       6.784   4.774  16.323  0.00  0.00    +0.000 A 
ATOM     23  N   UNL     1       6.000   3.892  15.732  0.00  0.00    +0.000 NA
ATOM     24  C   UNL     1       6.292   3.979  14.398  0.00  0.00    +0.000 A 
ATOM     25  C   UNL     1       5.735   3.282  13.319  0.00  0.00    +0.000 A 
ATOM     26  C   UNL     1       6.205   3.559  12.030  0.00  0.00    +0.000 A 
ATOM     27  C   UNL     1       7.211   4.506  11.824  0.00  0.00    +0.000 A 
ATOM     28  C   UNL     1       7.782   5.210  12.892  0.00  0.00    +0.000 A 
ATOM     29  C   UNL     1       7.290   4.920  14.164  0.00  0.00    +0.000 A 
ATOM     30  N   UNL     1       7.590   5.408  15.406  0.00  0.00    +0.000 N 
ATOM     31  H   UNL     1       8.280   6.106  15.643  0.00  0.00    +0.000 HD
ENDBRANCH  21  22
ENDBRANCH  19  21
ENDBRANCH  18  19
ENDBRANCH  17  18
ENDBRANCH   4  17
TORSDOF 8
ENDMDL
MODEL 5
REMARK VINA RESULT:      -6.8      2.701      4.840
REMARK  Name = 
REMARK  9 active torsions:
REMARK  status: ('A' for Active; 'I' for Inactive)
REMARK    1  A    between atoms: C_1  and  N_2
REMARK    2  A    between atoms: C_6  and  C_7
REMARK    3  A    between atoms: C_7  and  N_8
REMARK    4  A    between atoms: C_9  and  C_11
REMARK    5  A    between atoms: C_14  and  C_15
REMARK    6  A    between atoms: C_15  and  C_16
REMARK    7  A    between atoms: C_16  and  N_17
REMARK    8  A    between atoms: N_17  and  C_18
REMARK    9  A    between atoms: C_18  and  C_19
REMARK                            x       y       z     vdW  Elec       q    Type
REMARK                         _______ _______ _______ _____ _____    ______ ____
ROOT
ATOM      1  C   UNL     1       1.353   9.242  19.090  0.00  0.00    +0.000 A 
ATOM      2  C   UNL     1       1.486   8.241  20.035  0.00  0.00    +0.000 A 
ATOM      3  S   UNL     1       2.531   7.016  19.473  0.00  0.00    +0.000 S 
ATOM      4  C   UNL     1       2.753   7.889  18.009  0.00  0.00    +0.000 A 
ATOM      5  N   UNL     1       2.082   9.022  17.915  0.00  0.00    +0.000 NA
ENDROOT
BRANCH   1   7
ATOM      6  N   UNL     1      -0.764  10.320  18.803  0.00  0.00    +0.000 N 
ATOM      7  C   UNL     1       0.510  10.426  19.303  0.00  0.00    +0.000 C 
ATOM      8  O   UNL     1       0.922  11.420  19.895  0.00  0.00    +0.000 OA
ATOM      9  H   UNL     1      -1.014   9.449  18.345  0.00  0.00    +0.000 HD
BRANCH   6  10
ATOM     10  C   UNL     1      -1.760  11.339  19.000  0.00  0.00    +0.000 C 
BRANCH  10  16
ATOM     11  C   UNL     1      -4.801  12.109  19.091  0.00  0.00    +0.000 C 
ATOM     12  N   UNL     1      -4.057  11.659  17.941  0.00  0.00    +0.000 N 
ATOM     13  C   UNL     1      -4.602  11.457  16.703  0.00  0.00    +0.000 A 
ATOM     14  N   UNL     1      -3.705  11.038  15.841  0.00  0.00    +0.000 NA
ATOM     15  C   UNL     1      -2.537  10.961  16.550  0.00  0.00    +0.000 A 
ATOM     16  C   UNL     1      -2.719  11.336  17.868  0.00  0.00    +0.000 A 
ENDBRANCH  10  16
ENDBRANCH   6  10
ENDBRANCH   1   7
BRANCH   4  17
ATOM     17  C   UNL     1       3.658   7.339  16.945  0.00  0.00    +0.000 C 
BRANCH  17  18
ATOM     18  C   UNL     1       4.932   6.699  17.523  0.00  0.00    +0.000 C 
BRANCH  18  19
ATOM     19  N   UNL     1       5.646   5.757  16.640  0.00  0.00    +0.000 NA
ATOM     20  H   UNL     1       6.586   6.130  16.475  0.00  0.00    +0.000 HD
BRANCH  19  21
ATOM     21  C   UNL     1       5.815   4.450  17.294  0.00  0.00    +0.000 C 
BRANCH  21  22
ATOM     22  C   UNL     1       4.587   4.028  18.018  0.00  0.00    +0.000 A 
ATOM     23  N   UNL     1       3.414   3.764  17.473  0.00  0.00    +0.000 NA
ATOM     24  C   UNL     1       2.610   3.372  18.508  0.00  0.00    +0.000 A 
ATOM     25  C   UNL     1       1.272   2.957  18.487  0.00  0.00    +0.000 A 
ATOM     26  C   UNL     1       0.666   2.595  19.695  0.00  0.00    +0.000 A 
ATOM     27  C   UNL     1       1.376   2.650  20.897  0.00  0.00    +0.000 A 
ATOM     28  C   UNL     1       2.713   3.066  20.937  0.00  0.00    +0.000 A 
ATOM     29  C   UNL     1       3.295   3.414  19.718  0.00  0.00    +0.000 A 
ATOM     30  N   UNL     1       4.550   3.839  19.380  0.00  0.00    +0.000 N 
ATOM     31  H   UNL     1       5.332   4.003  19.998  0.00  0.00    +0.000 HD
ENDBRANCH  21  22
ENDBRANCH  19  21
ENDBRANCH  18  19
ENDBRANCH  17  18
ENDBRANCH   4  17
TORSDOF 8
ENDMDL
MODEL 6
REMARK VINA RESULT:      -6.8      2.675      3.721
REMARK  Name = 
REMARK  9 active torsions:
REMARK  status: ('A' for Active; 'I' for Inactive)
REMARK    1  A    between atoms: C_1  and  N_2
REMARK    2  A    between atoms: C_6  and  C_7
REMARK    3  A    between atoms: C_7  and  N_8
REMARK    4  A    between atoms: C_9  and  C_11
REMARK    5  A    between atoms: C_14  and  C_15
REMARK    6  A    between atoms: C_15  and  C_16
REMARK    7  A    between atoms: C_16  and  N_17
REMARK    8  A    between atoms: N_17  and  C_18
REMARK    9  A    between atoms: C_18  and  C_19
REMARK                            x       y       z     vdW  Elec       q    Type
REMARK                         _______ _______ _______ _____ _____    ______ ____
ROOT
ATOM      1  C   UNL     1       1.136   9.219  19.221  0.00  0.00    +0.000 A 
ATOM      2  C   UNL     1       1.768   8.937  18.024  0.00  0.00    +0.000 A 
ATOM      3  S   UNL     1       2.651   7.482  18.136  0.00  0.00    +0.000 S 
ATOM      4  C   UNL     1       2.139   7.307  19.767  0.00  0.00    +0.000 A 
ATOM      5  N   UNL     1       1.367   8.274  20.228  0.00  0.00    +0.000 NA
ENDROOT
BRANCH   1   7
ATOM      6  N   UNL     1      -0.233  10.934  18.266  0.00  0.00    +0.000 N 
ATOM      7  C   UNL     1       0.304  10.415  19.417  0.00  0.00    +0.000 C 
ATOM      8  O   UNL     1       0.104  10.892  20.531  0.00  0.00    +0.000 OA
ATOM      9  H   UNL     1      -0.023  10.456  17.396  0.00  0.00    +0.000 HD
BRANCH   6  10
ATOM     10  C   UNL     1      -1.149  12.044  18.272  0.00  0.00    +0.000 C 
BRANCH  10  16
ATOM     11  C   UNL     1      -4.057  12.281  19.429  0.00  0.00    +0.000 C 
ATOM     12  N   UNL     1      -3.678  11.755  18.141  0.00  0.00    +0.000 N 
ATOM     13  C   UNL     1      -4.560  11.229  17.236  0.00  0.00    +0.000 A 
ATOM     14  N   UNL     1      -3.950  10.814  16.151  0.00  0.00    +0.000 NA
ATOM     15  C   UNL     1      -2.623  11.077  16.364  0.00  0.00    +0.000 A 
ATOM     16  C   UNL     1      -2.415  11.659  17.600  0.00  0.00    +0.000 A 
ENDBRANCH  10  16
ENDBRANCH   6  10
ENDBRANCH   1   7
BRANCH   4  17
ATOM     17  C   UNL     1       2.581   6.112  20.561  0.00  0.00    +0.000 C 
BRANCH  17  18
ATOM     18  C   UNL     1       1.543   4.977  20.552  0.00  0.00    +0.000 C 
BRANCH  18  19
ATOM     19  N   UNL     1       1.315   4.314  19.254  0.00  0.00    +0.000 NA
ATOM     20  H   UNL     1       1.530   4.988  18.513  0.00  0.00    +0.000 HD
BRANCH  19  21
ATOM     21  C   UNL     1       2.231   3.177  19.076  0.00  0.00    +0.000 C 
BRANCH  21  22
ATOM     22  C   UNL     1       3.435   3.551  18.288  0.00  0.00    +0.000 A 
ATOM     23  N   UNL     1       3.522   3.590  16.972  0.00  0.00    +0.000 NA
ATOM     24  C   UNL     1       4.790   4.031  16.703  0.00  0.00    +0.000 A 
ATOM     25  C   UNL     1       5.402   4.275  15.467  0.00  0.00    +0.000 A 
ATOM     26  C   UNL     1       6.724   4.736  15.456  0.00  0.00    +0.000 A 
ATOM     27  C   UNL     1       7.420   4.942  16.650  0.00  0.00    +0.000 A 
ATOM     28  C   UNL     1       6.824   4.700  17.894  0.00  0.00    +0.000 A 
ATOM     29  C   UNL     1       5.504   4.249  17.877  0.00  0.00    +0.000 A 
ATOM     30  N   UNL     1       4.621   3.932  18.872  0.00  0.00    +0.000 N 
ATOM     31  H   UNL     1       4.782   3.955  19.868  0.00  0.00    +0.000 HD
ENDBRANCH  21  22
ENDBRANCH  19  21
ENDBRANCH  18  19
ENDBRANCH  17  18
ENDBRANCH   4  17
TORSDOF 8
ENDMDL
MODEL 7
REMARK VINA RESULT:      -6.8      2.855      3.983
REMARK  Name = 
REMARK  9 active torsions:
REMARK  status: ('A' for Active; 'I' for Inactive)
REMARK    1  A    between atoms: C_1  and  N_2
REMARK    2  A    between atoms: C_6  and  C_7
REMARK    3  A    between atoms: C_7  and  N_8
REMARK    4  A    between atoms: C_9  and  C_11
REMARK    5  A    between atoms: C_14  and  C_15
REMARK    6  A    between atoms: C_15  and  C_16
REMARK    7  A    between atoms: C_16  and  N_17
REMARK    8  A    between atoms: N_17  and  C_18
REMARK    9  A    between atoms: C_18  and  C_19
REMARK                            x       y       z     vdW  Elec       q    Type
REMARK                         _______ _______ _______ _____ _____    ______ ____
ROOT
ATOM      1  C   UNL     1       1.608   8.264  19.487  0.00  0.00    +0.000 A 
ATOM      2  C   UNL     1       1.319   7.616  20.674  0.00  0.00    +0.000 A 
ATOM      3  S   UNL     1       1.990   6.048  20.684  0.00  0.00    +0.000 S 
ATOM      4  C   UNL     1       2.631   6.321  19.113  0.00  0.00    +0.000 A 
ATOM      5  N   UNL     1       2.359   7.500  18.585  0.00  0.00    +0.000 NA
ENDROOT
BRANCH   1   7
ATOM      6  N   UNL     1      -0.136   9.900  19.582  0.00  0.00    +0.000 N 
ATOM      7  C   UNL     1       1.154   9.631  19.198  0.00  0.00    +0.000 C 
ATOM      8  O   UNL     1       1.888  10.461  18.668  0.00  0.00    +0.000 OA
ATOM      9  H   UNL     1      -0.655   9.151  20.029  0.00  0.00    +0.000 HD
BRANCH   6  10
ATOM     10  C   UNL     1      -0.720  11.210  19.467  0.00  0.00    +0.000 C 
BRANCH  10  16
ATOM     11  C   UNL     1      -3.449  12.663  20.006  0.00  0.00    +0.000 C 
ATOM     12  N   UNL     1      -3.142  11.779  18.910  0.00  0.00    +0.000 N 
ATOM     13  C   UNL     1      -4.040  11.405  17.948  0.00  0.00    +0.000 A 
ATOM     14  N   UNL     1      -3.503  10.587  17.075  0.00  0.00    +0.000 NA
ATOM     15  C   UNL     1      -2.208  10.421  17.490  0.00  0.00    +0.000 A 
ATOM     16  C   UNL     1      -1.949  11.146  18.637  0.00  0.00    +0.000 A 
ENDBRANCH  10  16
ENDBRANCH   6  10
ENDBRANCH   1   7
BRANCH   4  17
ATOM     17  C   UNL     1       3.434   5.246  18.441  0.00  0.00    +0.000 C 
BRANCH  17  18
ATOM     18  C   UNL     1       4.749   4.938  19.178  0.00  0.00    +0.000 C 
BRANCH  18  19
ATOM     19  N   UNL     1       5.697   4.053  18.476  0.00  0.00    +0.000 NA
ATOM     20  H   UNL     1       5.193   3.593  17.711  0.00  0.00    +0.000 HD
BRANCH  19  21
ATOM     21  C   UNL     1       6.785   4.829  17.863  0.00  0.00    +0.000 C 
BRANCH  21  22
ATOM     22  C   UNL     1       6.792   4.705  16.381  0.00  0.00    +0.000 A 
ATOM     23  N   UNL     1       7.577   5.362  15.549  0.00  0.00    +0.000 NA
ATOM     24  C   UNL     1       7.263   4.892  14.303  0.00  0.00    +0.000 A 
ATOM     25  C   UNL     1       7.811   5.232  13.060  0.00  0.00    +0.000 A 
ATOM     26  C   UNL     1       7.318   4.596  11.915  0.00  0.00    +0.000 A 
ATOM     27  C   UNL     1       6.297   3.647  12.007  0.00  0.00    +0.000 A 
ATOM     28  C   UNL     1       5.734   3.297  13.242  0.00  0.00    +0.000 A 
ATOM     29  C   UNL     1       6.250   3.940  14.367  0.00  0.00    +0.000 A 
ATOM     30  N   UNL     1       5.964   3.842  15.701  0.00  0.00    +0.000 N 
ATOM     31  H   UNL     1       5.269   3.256  16.140  0.00  0.00    +0.000 HD
ENDBRANCH  21  22
ENDBRANCH  19  21
ENDBRANCH  18  19
ENDBRANCH  17  18
ENDBRANCH   4  17
TORSDOF 8
ENDMDL
MODEL 8
REMARK VINA RESULT:      -6.8      1.640      2.317
REMARK  Name = 
REMARK  9 active torsions:
REMARK  status: ('A' for Active; 'I' for Inactive)
REMARK    1  A    between atoms: C_1  and  N_2
REMARK    2  A    between atoms: C_6  and  C_7
REMARK    3  A    between atoms: C_7  and  N_8
REMARK    4  A    between atoms: C_9  and  C_11
REMARK    5  A    between atoms: C_14  and  C_15
REMARK    6  A    between atoms: C_15  and  C_16
REMARK    7  A    between atoms: C_16  and  N_17
REMARK    8  A    between atoms: N_17  and  C_18
REMARK    9  A    between atoms: C_18  and  C_19
REMARK                            x       y       z     vdW  Elec       q    Type
REMARK                         _______ _______ _______ _____ _____    ______ ____
ROOT
ATOM      1  C   UNL     1       2.052   5.560  18.598  0.00  0.00    +0.000 A 
ATOM      2  C   UNL     1       1.614   4.655  17.649  0.00  0.00    +0.000 A 
ATOM      3  S   UNL     1       1.077   3.215  18.390  0.00  0.00    +0.000 S 
ATOM      4  C   UNL     1       1.453   3.879  19.930  0.00  0.00    +0.000 A 
ATOM      5  N   UNL     1       1.966   5.095  19.916  0.00  0.00    +0.000 NA
ENDROOT
BRANCH   1   7
ATOM      6  N   UNL     1       1.672   7.912  18.383  0.00  0.00    +0.000 N 
ATOM      7  C   UNL     1       2.574   6.888  18.246  0.00  0.00    +0.000 C 
ATOM      8  O   UNL     1       3.732   7.053  17.875  0.00  0.00    +0.000 OA
ATOM      9  H   UNL     1       0.742   7.675  18.714  0.00  0.00    +0.000 HD
BRANCH   6  10
ATOM     10  C   UNL     1       2.029   9.291  18.177  0.00  0.00    +0.000 C 
BRANCH  10  16
ATOM     11  C   UNL     1       1.202   8.871  21.175  0.00  0.00    +0.000 C 
ATOM     12  N   UNL     1       0.794   9.948  20.308  0.00  0.00    +0.000 N 
ATOM     13  C   UNL     1      -0.074  10.942  20.672  0.00  0.00    +0.000 A 
ATOM     14  N   UNL     1      -0.281  11.787  19.690  0.00  0.00    +0.000 NA
ATOM     15  C   UNL     1       0.477  11.320  18.650  0.00  0.00    +0.000 A 
ATOM     16  C   UNL     1       1.158  10.169  18.998  0.00  0.00    +0.000 A 
ENDBRANCH  10  16
ENDBRANCH   6  10
ENDBRANCH   1   7
BRANCH   4  17
ATOM     17  C   UNL     1       1.196   3.072  21.170  0.00  0.00    +0.000 C 
BRANCH  17  18
ATOM     18  C   UNL     1       2.415   2.237  21.597  0.00  0.00    +0.000 C 
BRANCH  18  19
ATOM     19  N   UNL     1       3.737   2.781  21.233  0.00  0.00    +0.000 NA
ATOM     20  H   UNL     1       4.377   2.604  22.013  0.00  0.00    +0.000 HD
BRANCH  19  21
ATOM     21  C   UNL     1       4.288   2.083  20.061  0.00  0.00    +0.000 C 
BRANCH  21  22
ATOM     22  C   UNL     1       4.868   3.029  19.072  0.00  0.00    +0.000 A 
ATOM     23  N   UNL     1       5.724   3.999  19.333  0.00  0.00    +0.000 NA
ATOM     24  C   UNL     1       6.012   4.567  18.121  0.00  0.00    +0.000 A 
ATOM     25  C   UNL     1       6.882   5.623  17.819  0.00  0.00    +0.000 A 
ATOM     26  C   UNL     1       7.010   6.020  16.483  0.00  0.00    +0.000 A 
ATOM     27  C   UNL     1       6.284   5.384  15.474  0.00  0.00    +0.000 A 
ATOM     28  C   UNL     1       5.407   4.329  15.759  0.00  0.00    +0.000 A 
ATOM     29  C   UNL     1       5.304   3.947  17.097  0.00  0.00    +0.000 A 
ATOM     30  N   UNL     1       4.579   2.975  17.728  0.00  0.00    +0.000 N 
ATOM     31  H   UNL     1       3.932   2.321  17.312  0.00  0.00    +0.000 HD
ENDBRANCH  21  22
ENDBRANCH  19  21
ENDBRANCH  18  19
ENDBRANCH  17  18
ENDBRANCH   4  17
TORSDOF 8
ENDMDL
MODEL 9
REMARK VINA RESULT:      -6.7      2.779      9.159
REMARK  Name = 
REMARK  9 active torsions:
REMARK  status: ('A' for Active; 'I' for Inactive)
REMARK    1  A    between atoms: C_1  and  N_2
REMARK    2  A    between atoms: C_6  and  C_7
REMARK    3  A    between atoms: C_7  and  N_8
REMARK    4  A    between atoms: C_9  and  C_11
REMARK    5  A    between atoms: C_14  and  C_15
REMARK    6  A    between atoms: C_15  and  C_16
REMARK    7  A    between atoms: C_16  and  N_17
REMARK    8  A    between atoms: N_17  and  C_18
REMARK    9  A    between atoms: C_18  and  C_19
REMARK                            x       y       z     vdW  Elec       q    Type
REMARK                         _______ _______ _______ _____ _____    ______ ____
ROOT
ATOM      1  C   UNL     1       2.353   7.160  19.209  0.00  0.00    +0.000 A 
ATOM      2  C   UNL     1       2.308   8.039  18.142  0.00  0.00    +0.000 A 
ATOM      3  S   UNL     1       1.501   9.477  18.579  0.00  0.00    +0.000 S 
ATOM      4  C   UNL     1       1.262   8.851  20.162  0.00  0.00    +0.000 A 
ATOM      5  N   UNL     1       1.734   7.636  20.371  0.00  0.00    +0.000 NA
ENDROOT
BRANCH   1   7
ATOM      6  N   UNL     1       4.353   5.846  19.262  0.00  0.00    +0.000 N 
ATOM      7  C   UNL     1       2.988   5.838  19.120  0.00  0.00    +0.000 C 
ATOM      8  O   UNL     1       2.334   4.813  18.947  0.00  0.00    +0.000 OA
ATOM      9  H   UNL     1       4.800   6.744  19.419  0.00  0.00    +0.000 HD
BRANCH   6  10
ATOM     10  C   UNL     1       5.135   4.638  19.300  0.00  0.00    +0.000 C 
BRANCH  10  16
ATOM     11  C   UNL     1       4.461   3.844  16.340  0.00  0.00    +0.000 C 
ATOM     12  N   UNL     1       5.749   4.228  16.860  0.00  0.00    +0.000 N 
ATOM     13  C   UNL     1       6.900   4.258  16.121  0.00  0.00    +0.000 A 
ATOM     14  N   UNL     1       7.930   4.634  16.842  0.00  0.00    +0.000 NA
ATOM     15  C   UNL     1       7.427   4.852  18.097  0.00  0.00    +0.000 A 
ATOM     16  C   UNL     1       6.068   4.603  18.147  0.00  0.00    +0.000 A 
ENDBRANCH  10  16
ENDBRANCH   6  10
ENDBRANCH   1   7
BRANCH   4  17
ATOM     17  C   UNL     1       0.551   9.682  21.190  0.00  0.00    +0.000 C 
BRANCH  17  18
ATOM     18  C   UNL     1       1.055  11.135  21.230  0.00  0.00    +0.000 C 
BRANCH  18  19
ATOM     19  N   UNL     1       0.017  12.184  21.268  0.00  0.00    +0.000 NA
ATOM     20  H   UNL     1       0.296  12.878  21.968  0.00  0.00    +0.000 HD
BRANCH  19  21
ATOM     21  C   UNL     1      -0.067  12.886  19.979  0.00  0.00    +0.000 C 
BRANCH  21  22
ATOM     22  C   UNL     1      -1.176  12.370  19.135  0.00  0.00    +0.000 A 
ATOM     23  N   UNL     1      -2.448  12.296  19.481  0.00  0.00    +0.000 NA
ATOM     24  C   UNL     1      -3.098  11.808  18.380  0.00  0.00    +0.000 A 
ATOM     25  C   UNL     1      -4.463  11.556  18.193  0.00  0.00    +0.000 A 
ATOM     26  C   UNL     1      -4.888  11.058  16.956  0.00  0.00    +0.000 A 
ATOM     27  C   UNL     1      -3.971  10.810  15.932  0.00  0.00    +0.000 A 
ATOM     28  C   UNL     1      -2.601  11.053  16.103  0.00  0.00    +0.000 A 
ATOM     29  C   UNL     1      -2.207  11.557  17.342  0.00  0.00    +0.000 A 
ATOM     30  N   UNL     1      -0.989  11.918  17.849  0.00  0.00    +0.000 N 
ATOM     31  H   UNL     1      -0.092  11.868  17.390  0.00  0.00    +0.000 HD
ENDBRANCH  21  22
ENDBRANCH  19  21
ENDBRANCH  18  19
ENDBRANCH  17  18
ENDBRANCH   4  17
TORSDOF 8
ENDMDL
