MODEL 1
REMARK VINA RESULT:      -8.3      0.000      0.000
REMARK  Name = 
REMARK  9 active torsions:
REMARK  status: ('A' for Active; 'I' for Inactive)
REMARK    1  A    between atoms: C_1  and  C_2
REMARK    2  A    between atoms: C_2  and  C_3
REMARK    3  A    between atoms: C_3  and  C_4
REMARK    4  A    between atoms: C_4  and  C_5
REMARK    5  A    between atoms: C_5  and  C_6
REMARK    6  A    between atoms: C_6  and  C_7
REMARK    7  A    between atoms: C_7  and  C_8
REMARK    8  A    between atoms: C_8  and  O_9
REMARK    9  A    between atoms: O_9  and  C_10
REMARK                            x       y       z     vdW  Elec       q    Type
REMARK                         _______ _______ _______ _____ _____    ______ ____
ROOT
ATOM      1  C   UNL     1       5.569   5.229  15.737  0.00  0.00    +0.000 A 
ATOM      2  C   UNL     1       5.373   3.896  16.059  0.00  0.00    +0.000 A 
ATOM      3  C   UNL     1       4.502   3.536  17.091  0.00  0.00    +0.000 A 
ATOM      4  C   UNL     1       3.797   4.488  17.845  0.00  0.00    +0.000 A 
ATOM      5  C   UNL     1       4.002   5.834  17.513  0.00  0.00    +0.000 A 
ATOM      6  C   UNL     1       4.878   6.193  16.464  0.00  0.00    +0.000 A 
ATOM      7  C   UNL     1       3.329   6.954  18.236  0.00  0.00    +0.000 C 
ATOM      8  C   UNL     1       2.410   6.543  19.354  0.00  0.00    +0.000 C 
ATOM      9  C   UNL     1       2.227   5.069  19.634  0.00  0.00    +0.000 A 
ATOM     10  N   UNL     1       1.400   4.816  20.602  0.00  0.00    +0.000 NA
ATOM     11  N   UNL     1       1.129   3.518  20.997  0.00  0.00    +0.000 NA
ATOM     12  C   UNL     1       1.730   2.569  20.374  0.00  0.00    +0.000 A 
ATOM     13  C   UNL     1       2.685   2.793  19.260  0.00  0.00    +0.000 A 
ATOM     14  O   UNL     1       3.155   1.761  18.796  0.00  0.00    +0.000 OA
ATOM     15  N   UNL     1       2.905   4.120  18.910  0.00  0.00    +0.000 N 
ENDROOT
BRANCH   1  16
ATOM     16  O   UNL     1       6.398   5.697  14.755  0.00  0.00    +0.000 OA
BRANCH  16  17
ATOM     17  C   UNL     1       7.301   4.731  14.216  0.00  0.00    +0.000 C 
BRANCH  17  18
ATOM     18  C   UNL     1       7.652   5.116  12.789  0.00  0.00    +0.000 C 
BRANCH  18  19
ATOM     19  C   UNL     1       6.951   4.181  11.807  0.00  0.00    +0.000 C 
BRANCH  19  20
ATOM     20  C   UNL     1       5.831   3.411  12.492  0.00  0.00    +0.000 C 
BRANCH  20  21
ATOM     21  C   UNL     1       4.983   2.662  11.467  0.00  0.00    +0.000 C 
BRANCH  21  22
ATOM     22  C   UNL     1       3.691   3.420  11.181  0.00  0.00    +0.000 C 
BRANCH  22  24
ATOM     23  C   UNL     1       2.518   4.697   9.369  0.00  0.00    +0.000 C 
ATOM     24  C   UNL     1       3.439   3.530   9.680  0.00  0.00    +0.000 C 
ENDBRANCH  22  24
ENDBRANCH  21  22
ENDBRANCH  20  21
ENDBRANCH  19  20
ENDBRANCH  18  19
ENDBRANCH  17  18
ENDBRANCH  16  17
ENDBRANCH   1  16
TORSDOF 8
ENDMDL
MODEL 2
REMARK VINA RESULT:      -7.9      1.254      2.235
REMARK  Name = 
REMARK  9 active torsions:
REMARK  status: ('A' for Active; 'I' for Inactive)
REMARK    1  A    between atoms: C_1  and  C_2
REMARK    2  A    between atoms: C_2  and  C_3
REMARK    3  A    between atoms: C_3  and  C_4
REMARK    4  A    between atoms: C_4  and  C_5
REMARK    5  A    between atoms: C_5  and  C_6
REMARK    6  A    between atoms: C_6  and  C_7
REMARK    7  A    between atoms: C_7  and  C_8
REMARK    8  A    between atoms: C_8  and  O_9
REMARK    9  A    between atoms: O_9  and  C_10
REMARK                            x       y       z     vdW  Elec       q    Type
REMARK                         _______ _______ _______ _____ _____    ______ ____
ROOT
ATOM      1  C   UNL     1       5.651   5.496  15.746  0.00  0.00    +0.000 A 
ATOM      2  C   UNL     1       5.138   6.471  16.585  0.00  0.00    +0.000 A 
ATOM      3  C   UNL     1       4.237   6.133  17.598  0.00  0.00    +0.000 A 
ATOM      4  C   UNL     1       3.810   4.813  17.814  0.00  0.00    +0.000 A 
ATOM      5  C   UNL     1       4.334   3.833  16.961  0.00  0.00    +0.000 A 
ATOM      6  C   UNL     1       5.250   4.178  15.942  0.00  0.00    +0.000 A 
ATOM      7  C   UNL     1       3.962   2.390  17.065  0.00  0.00    +0.000 C 
ATOM      8  C   UNL     1       2.978   2.053  18.153  0.00  0.00    +0.000 C 
ATOM      9  C   UNL     1       2.477   3.165  19.044  0.00  0.00    +0.000 A 
ATOM     10  N   UNL     1       1.650   2.770  19.963  0.00  0.00    +0.000 NA
ATOM     11  N   UNL     1       1.085   3.664  20.856  0.00  0.00    +0.000 NA
ATOM     12  C   UNL     1       1.405   4.904  20.740  0.00  0.00    +0.000 A 
ATOM     13  C   UNL     1       2.345   5.416  19.712  0.00  0.00    +0.000 A 
ATOM     14  O   UNL     1       2.521   6.628  19.763  0.00  0.00    +0.000 OA
ATOM     15  N   UNL     1       2.880   4.463  18.853  0.00  0.00    +0.000 N 
ENDROOT
BRANCH   1  16
ATOM     16  O   UNL     1       6.530   5.711  14.721  0.00  0.00    +0.000 OA
BRANCH  16  17
ATOM     17  C   UNL     1       7.167   4.538  14.214  0.00  0.00    +0.000 C 
BRANCH  17  18
ATOM     18  C   UNL     1       7.847   4.866  12.896  0.00  0.00    +0.000 C 
BRANCH  18  19
ATOM     19  C   UNL     1       6.958   4.448  11.730  0.00  0.00    +0.000 C 
BRANCH  19  20
ATOM     20  C   UNL     1       6.915   2.933  11.591  0.00  0.00    +0.000 C 
BRANCH  20  21
ATOM     21  C   UNL     1       5.498   2.409  11.803  0.00  0.00    +0.000 C 
BRANCH  21  22
ATOM     22  C   UNL     1       4.476   3.521  11.596  0.00  0.00    +0.000 C 
BRANCH  22  24
ATOM     23  C   UNL     1       3.040   4.169   9.645  0.00  0.00    +0.000 C 
ATOM     24  C   UNL     1       3.364   3.079  10.651  0.00  0.00    +0.000 C 
ENDBRANCH  22  24
ENDBRANCH  21  22
ENDBRANCH  20  21
ENDBRANCH  19  20
ENDBRANCH  18  19
ENDBRANCH  17  18
ENDBRANCH  16  17
ENDBRANCH   1  16
TORSDOF 8
ENDMDL
MODEL 3
REMARK VINA RESULT:      -7.6      3.577      6.919
REMARK  Name = 
REMARK  9 active torsions:
REMARK  status: ('A' for Active; 'I' for Inactive)
REMARK    1  A    between atoms: C_1  and  C_2
REMARK    2  A    between atoms: C_2  and  C_3
REMARK    3  A    between atoms: C_3  and  C_4
REMARK    4  A    between atoms: C_4  and  C_5
REMARK    5  A    between atoms: C_5  and  C_6
REMARK    6  A    between atoms: C_6  and  C_7
REMARK    7  A    between atoms: C_7  and  C_8
REMARK    8  A    between atoms: C_8  and  O_9
REMARK    9  A    between atoms: O_9  and  C_10
REMARK                            x       y       z     vdW  Elec       q    Type
REMARK                         _______ _______ _______ _____ _____    ______ ____
ROOT
ATOM      1  C   UNL     1       3.523   2.386  18.544  0.00  0.00    +0.000 A 
ATOM      2  C   UNL     1       4.338   2.817  19.577  0.00  0.00    +0.000 A 
ATOM      3  C   UNL     1       5.280   3.828  19.364  0.00  0.00    +0.000 A 
ATOM      4  C   UNL     1       5.449   4.445  18.114  0.00  0.00    +0.000 A 
ATOM      5  C   UNL     1       4.620   4.003  17.074  0.00  0.00    +0.000 A 
ATOM      6  C   UNL     1       3.665   2.985  17.297  0.00  0.00    +0.000 A 
ATOM      7  C   UNL     1       4.695   4.559  15.690  0.00  0.00    +0.000 C 
ATOM      8  C   UNL     1       5.728   5.634  15.481  0.00  0.00    +0.000 C 
ATOM      9  C   UNL     1       6.566   6.069  16.660  0.00  0.00    +0.000 A 
ATOM     10  N   UNL     1       7.412   7.014  16.383  0.00  0.00    +0.000 NA
ATOM     11  N   UNL     1       8.268   7.521  17.346  0.00  0.00    +0.000 NA
ATOM     12  C   UNL     1       8.199   7.017  18.526  0.00  0.00    +0.000 A 
ATOM     13  C   UNL     1       7.253   5.937  18.905  0.00  0.00    +0.000 A 
ATOM     14  O   UNL     1       7.342   5.591  20.077  0.00  0.00    +0.000 OA
ATOM     15  N   UNL     1       6.419   5.482  17.891  0.00  0.00    +0.000 N 
ENDROOT
BRANCH   1  16
ATOM     16  O   UNL     1       2.575   1.404  18.635  0.00  0.00    +0.000 OA
BRANCH  16  17
ATOM     17  C   UNL     1       1.477   1.702  19.497  0.00  0.00    +0.000 C 
BRANCH  17  18
ATOM     18  C   UNL     1       1.019   3.129  19.251  0.00  0.00    +0.000 C 
BRANCH  18  19
ATOM     19  C   UNL     1       0.964   3.897  20.568  0.00  0.00    +0.000 C 
BRANCH  19  20
ATOM     20  C   UNL     1       1.705   5.222  20.459  0.00  0.00    +0.000 C 
BRANCH  20  21
ATOM     21  C   UNL     1       1.897   5.617  18.998  0.00  0.00    +0.000 C 
BRANCH  21  22
ATOM     22  C   UNL     1       2.837   6.813  18.883  0.00  0.00    +0.000 C 
BRANCH  22  24
ATOM     23  C   UNL     1       1.770   9.012  18.327  0.00  0.00    +0.000 C 
ATOM     24  C   UNL     1       2.401   7.752  17.763  0.00  0.00    +0.000 C 
ENDBRANCH  22  24
ENDBRANCH  21  22
ENDBRANCH  20  21
ENDBRANCH  19  20
ENDBRANCH  18  19
ENDBRANCH  17  18
ENDBRANCH  16  17
ENDBRANCH   1  16
TORSDOF 8
ENDMDL
MODEL 4
REMARK VINA RESULT:      -7.5      1.416      2.380
REMARK  Name = 
REMARK  9 active torsions:
REMARK  status: ('A' for Active; 'I' for Inactive)
REMARK    1  A    between atoms: C_1  and  C_2
REMARK    2  A    between atoms: C_2  and  C_3
REMARK    3  A    between atoms: C_3  and  C_4
REMARK    4  A    between atoms: C_4  and  C_5
REMARK    5  A    between atoms: C_5  and  C_6
REMARK    6  A    between atoms: C_6  and  C_7
REMARK    7  A    between atoms: C_7  and  C_8
REMARK    8  A    between atoms: C_8  and  O_9
REMARK    9  A    between atoms: O_9  and  C_10
REMARK                            x       y       z     vdW  Elec       q    Type
REMARK                         _______ _______ _______ _____ _____    ______ ____
ROOT
ATOM      1  C   UNL     1       5.712   5.618  15.490  0.00  0.00    +0.000 A 
ATOM      2  C   UNL     1       5.142   6.695  16.150  0.00  0.00    +0.000 A 
ATOM      3  C   UNL     1       4.268   6.489  17.221  0.00  0.00    +0.000 A 
ATOM      4  C   UNL     1       3.925   5.205  17.675  0.00  0.00    +0.000 A 
ATOM      5  C   UNL     1       4.506   4.122  17.001  0.00  0.00    +0.000 A 
ATOM      6  C   UNL     1       5.394   4.335  15.923  0.00  0.00    +0.000 A 
ATOM      7  C   UNL     1       4.224   2.701  17.365  0.00  0.00    +0.000 C 
ATOM      8  C   UNL     1       3.268   2.505  18.510  0.00  0.00    +0.000 C 
ATOM      9  C   UNL     1       2.702   3.726  19.197  0.00  0.00    +0.000 A 
ATOM     10  N   UNL     1       1.905   3.452  20.184  0.00  0.00    +0.000 NA
ATOM     11  N   UNL     1       1.289   4.455  20.913  0.00  0.00    +0.000 NA
ATOM     12  C   UNL     1       1.532   5.671  20.573  0.00  0.00    +0.000 A 
ATOM     13  C   UNL     1       2.434   6.047  19.457  0.00  0.00    +0.000 A 
ATOM     14  O   UNL     1       2.534   7.257  19.289  0.00  0.00    +0.000 OA
ATOM     15  N   UNL     1       3.023   4.991  18.773  0.00  0.00    +0.000 N 
ENDROOT
BRANCH   1  16
ATOM     16  O   UNL     1       6.572   5.699  14.430  0.00  0.00    +0.000 OA
BRANCH  16  17
ATOM     17  C   UNL     1       7.208   4.473  14.072  0.00  0.00    +0.000 C 
BRANCH  17  18
ATOM     18  C   UNL     1       6.855   4.125  12.636  0.00  0.00    +0.000 C 
BRANCH  18  19
ATOM     19  C   UNL     1       5.522   3.385  12.589  0.00  0.00    +0.000 C 
BRANCH  19  20
ATOM     20  C   UNL     1       4.630   3.936  11.486  0.00  0.00    +0.000 C 
BRANCH  20  21
ATOM     21  C   UNL     1       3.699   2.852  10.949  0.00  0.00    +0.000 C 
BRANCH  21  22
ATOM     22  C   UNL     1       3.022   3.313   9.663  0.00  0.00    +0.000 C 
BRANCH  22  24
ATOM     23  C   UNL     1       1.985   5.247   8.450  0.00  0.00    +0.000 C 
ATOM     24  C   UNL     1       2.714   4.806   9.707  0.00  0.00    +0.000 C 
ENDBRANCH  22  24
ENDBRANCH  21  22
ENDBRANCH  20  21
ENDBRANCH  19  20
ENDBRANCH  18  19
ENDBRANCH  17  18
ENDBRANCH  16  17
ENDBRANCH   1  16
TORSDOF 8
ENDMDL
MODEL 5
REMARK VINA RESULT:      -7.3      3.276      7.022
REMARK  Name = 
REMARK  9 active torsions:
REMARK  status: ('A' for Active; 'I' for Inactive)
REMARK    1  A    between atoms: C_1  and  C_2
REMARK    2  A    between atoms: C_2  and  C_3
REMARK    3  A    between atoms: C_3  and  C_4
REMARK    4  A    between atoms: C_4  and  C_5
REMARK    5  A    between atoms: C_5  and  C_6
REMARK    6  A    between atoms: C_6  and  C_7
REMARK    7  A    between atoms: C_7  and  C_8
REMARK    8  A    between atoms: C_8  and  O_9
REMARK    9  A    between atoms: O_9  and  C_10
REMARK                            x       y       z     vdW  Elec       q    Type
REMARK                         _______ _______ _______ _____ _____    ______ ____
ROOT
ATOM      1  C   UNL     1       3.314   2.430  19.150  0.00  0.00    +0.000 A 
ATOM      2  C   UNL     1       3.303   2.126  17.798  0.00  0.00    +0.000 A 
ATOM      3  C   UNL     1       4.166   2.783  16.917  0.00  0.00    +0.000 A 
ATOM      4  C   UNL     1       5.070   3.768  17.344  0.00  0.00    +0.000 A 
ATOM      5  C   UNL     1       5.074   4.069  18.713  0.00  0.00    +0.000 A 
ATOM      6  C   UNL     1       4.204   3.397  19.602  0.00  0.00    +0.000 A 
ATOM      7  C   UNL     1       5.973   5.102  19.309  0.00  0.00    +0.000 C 
ATOM      8  C   UNL     1       6.881   5.806  18.338  0.00  0.00    +0.000 C 
ATOM      9  C   UNL     1       6.830   5.408  16.882  0.00  0.00    +0.000 A 
ATOM     10  N   UNL     1       7.665   6.058  16.129  0.00  0.00    +0.000 NA
ATOM     11  N   UNL     1       7.738   5.825  14.767  0.00  0.00    +0.000 NA
ATOM     12  C   UNL     1       6.945   4.944  14.271  0.00  0.00    +0.000 A 
ATOM     13  C   UNL     1       5.971   4.168  15.078  0.00  0.00    +0.000 A 
ATOM     14  O   UNL     1       5.303   3.377  14.422  0.00  0.00    +0.000 OA
ATOM     15  N   UNL     1       5.956   4.447  16.439  0.00  0.00    +0.000 N 
ENDROOT
BRANCH   1  16
ATOM     16  O   UNL     1       2.513   1.858  20.100  0.00  0.00    +0.000 OA
BRANCH  16  17
ATOM     17  C   UNL     1       1.776   2.780  20.903  0.00  0.00    +0.000 C 
BRANCH  17  18
ATOM     18  C   UNL     1       0.771   3.513  20.032  0.00  0.00    +0.000 C 
BRANCH  18  19
ATOM     19  C   UNL     1       0.660   4.969  20.471  0.00  0.00    +0.000 C 
BRANCH  19  20
ATOM     20  C   UNL     1       2.037   5.579  20.692  0.00  0.00    +0.000 C 
BRANCH  20  21
ATOM     21  C   UNL     1       2.212   6.841  19.852  0.00  0.00    +0.000 C 
BRANCH  21  22
ATOM     22  C   UNL     1       2.540   6.484  18.407  0.00  0.00    +0.000 C 
BRANCH  22  24
ATOM     23  C   UNL     1       2.180   8.877  17.750  0.00  0.00    +0.000 C 
ATOM     24  C   UNL     1       3.114   7.683  17.659  0.00  0.00    +0.000 C 
ENDBRANCH  22  24
ENDBRANCH  21  22
ENDBRANCH  20  21
ENDBRANCH  19  20
ENDBRANCH  18  19
ENDBRANCH  17  18
ENDBRANCH  16  17
ENDBRANCH   1  16
TORSDOF 8
ENDMDL
MODEL 6
REMARK VINA RESULT:      -7.2      4.790      7.373
REMARK  Name = 
REMARK  9 active torsions:
REMARK  status: ('A' for Active; 'I' for Inactive)
REMARK    1  A    between atoms: C_1  and  C_2
REMARK    2  A    between atoms: C_2  and  C_3
REMARK    3  A    between atoms: C_3  and  C_4
REMARK    4  A    between atoms: C_4  and  C_5
REMARK    5  A    between atoms: C_5  and  C_6
REMARK    6  A    between atoms: C_6  and  C_7
REMARK    7  A    between atoms: C_7  and  C_8
REMARK    8  A    between atoms: C_8  and  O_9
REMARK    9  A    between atoms: O_9  and  C_10
REMARK                            x       y       z     vdW  Elec       q    Type
REMARK                         _______ _______ _______ _____ _____    ______ ____
ROOT
ATOM      1  C   UNL     1       2.475   6.957  19.348  0.00  0.00    +0.000 A 
ATOM      2  C   UNL     1       1.999   6.884  20.647  0.00  0.00    +0.000 A 
ATOM      3  C   UNL     1       1.245   7.931  21.186  0.00  0.00    +0.000 A 
ATOM      4  C   UNL     1       0.939   9.090  20.455  0.00  0.00    +0.000 A 
ATOM      5  C   UNL     1       1.425   9.155  19.142  0.00  0.00    +0.000 A 
ATOM      6  C   UNL     1       2.181   8.091  18.599  0.00  0.00    +0.000 A 
ATOM      7  C   UNL     1       1.188  10.330  18.252  0.00  0.00    +0.000 C 
ATOM      8  C   UNL     1       0.389  11.451  18.860  0.00  0.00    +0.000 C 
ATOM      9  C   UNL     1      -0.117  11.293  20.275  0.00  0.00    +0.000 A 
ATOM     10  N   UNL     1      -0.812  12.304  20.700  0.00  0.00    +0.000 NA
ATOM     11  N   UNL     1      -1.338  12.328  21.980  0.00  0.00    +0.000 NA
ATOM     12  C   UNL     1      -1.109  11.314  22.737  0.00  0.00    +0.000 A 
ATOM     13  C   UNL     1      -0.324  10.130  22.308  0.00  0.00    +0.000 A 
ATOM     14  O   UNL     1      -0.215   9.269  23.173  0.00  0.00    +0.000 OA
ATOM     15  N   UNL     1       0.168  10.169  21.009  0.00  0.00    +0.000 N 
ENDROOT
BRANCH   1  16
ATOM     16  O   UNL     1       3.224   6.000  18.721  0.00  0.00    +0.000 OA
BRANCH  16  17
ATOM     17  C   UNL     1       4.261   5.427  19.517  0.00  0.00    +0.000 C 
BRANCH  17  18
ATOM     18  C   UNL     1       4.664   4.087  18.926  0.00  0.00    +0.000 C 
BRANCH  18  19
ATOM     19  C   UNL     1       3.962   3.872  17.589  0.00  0.00    +0.000 C 
BRANCH  19  20
ATOM     20  C   UNL     1       2.968   2.722  17.673  0.00  0.00    +0.000 C 
BRANCH  20  21
ATOM     21  C   UNL     1       1.562   3.239  17.963  0.00  0.00    +0.000 C 
BRANCH  21  22
ATOM     22  C   UNL     1       0.979   2.551  19.193  0.00  0.00    +0.000 C 
BRANCH  22  24
ATOM     23  C   UNL     1       1.835   3.061  21.495  0.00  0.00    +0.000 C 
ATOM     24  C   UNL     1       0.908   3.509  20.379  0.00  0.00    +0.000 C 
ENDBRANCH  22  24
ENDBRANCH  21  22
ENDBRANCH  20  21
ENDBRANCH  19  20
ENDBRANCH  18  19
ENDBRANCH  17  18
ENDBRANCH  16  17
ENDBRANCH   1  16
TORSDOF 8
ENDMDL
MODEL 7
REMARK VINA RESULT:      -7.2      4.206      6.777
REMARK  Name = 
REMARK  9 active torsions:
REMARK  status: ('A' for Active; 'I' for Inactive)
REMARK    1  A    between atoms: C_1  and  C_2
REMARK    2  A    between atoms: C_2  and  C_3
REMARK    3  A    between atoms: C_3  and  C_4
REMARK    4  A    between atoms: C_4  and  C_5
REMARK    5  A    between atoms: C_5  and  C_6
REMARK    6  A    between atoms: C_6  and  C_7
REMARK    7  A    between atoms: C_7  and  C_8
REMARK    8  A    between atoms: C_8  and  O_9
REMARK    9  A    between atoms: O_9  and  C_10
REMARK                            x       y       z     vdW  Elec       q    Type
REMARK                         _______ _______ _______ _____ _____    ______ ____
ROOT
ATOM      1  C   UNL     1       4.110   5.845  18.315  0.00  0.00    +0.000 A 
ATOM      2  C   UNL     1       4.015   6.931  17.460  0.00  0.00    +0.000 A 
ATOM      3  C   UNL     1       3.153   7.992  17.753  0.00  0.00    +0.000 A 
ATOM      4  C   UNL     1       2.351   8.012  18.905  0.00  0.00    +0.000 A 
ATOM      5  C   UNL     1       2.453   6.910  19.764  0.00  0.00    +0.000 A 
ATOM      6  C   UNL     1       3.331   5.842  19.467  0.00  0.00    +0.000 A 
ATOM      7  C   UNL     1       1.653   6.789  21.019  0.00  0.00    +0.000 C 
ATOM      8  C   UNL     1       0.721   7.935  21.304  0.00  0.00    +0.000 C 
ATOM      9  C   UNL     1       0.687   9.096  20.338  0.00  0.00    +0.000 A 
ATOM     10  N   UNL     1      -0.133  10.043  20.683  0.00  0.00    +0.000 NA
ATOM     11  N   UNL     1      -0.296  11.173  19.902  0.00  0.00    +0.000 NA
ATOM     12  C   UNL     1       0.389  11.251  18.817  0.00  0.00    +0.000 A 
ATOM     13  C   UNL     1       1.341  10.204  18.370  0.00  0.00    +0.000 A 
ATOM     14  O   UNL     1       1.898  10.461  17.309  0.00  0.00    +0.000 OA
ATOM     15  N   UNL     1       1.462   9.100  19.206  0.00  0.00    +0.000 N 
ENDROOT
BRANCH   1  16
ATOM     16  O   UNL     1       4.910   4.753  18.127  0.00  0.00    +0.000 OA
BRANCH  16  17
ATOM     17  C   UNL     1       4.468   3.845  17.118  0.00  0.00    +0.000 C 
BRANCH  17  18
ATOM     18  C   UNL     1       3.867   2.616  17.777  0.00  0.00    +0.000 C 
BRANCH  18  19
ATOM     19  C   UNL     1       2.444   2.394  17.274  0.00  0.00    +0.000 C 
BRANCH  19  20
ATOM     20  C   UNL     1       1.453   3.258  18.042  0.00  0.00    +0.000 C 
BRANCH  20  21
ATOM     21  C   UNL     1       0.884   2.499  19.237  0.00  0.00    +0.000 C 
BRANCH  21  22
ATOM     22  C   UNL     1       0.726   3.427  20.437  0.00  0.00    +0.000 C 
BRANCH  22  24
ATOM     23  C   UNL     1       2.894   2.575  21.364  0.00  0.00    +0.000 C 
ATOM     24  C   UNL     1       1.435   2.865  21.665  0.00  0.00    +0.000 C 
ENDBRANCH  22  24
ENDBRANCH  21  22
ENDBRANCH  20  21
ENDBRANCH  19  20
ENDBRANCH  18  19
ENDBRANCH  17  18
ENDBRANCH  16  17
ENDBRANCH   1  16
TORSDOF 8
ENDMDL
MODEL 8
REMARK VINA RESULT:      -7.1      4.828      7.730
REMARK  Name = 
REMARK  9 active torsions:
REMARK  status: ('A' for Active; 'I' for Inactive)
REMARK    1  A    between atoms: C_1  and  C_2
REMARK    2  A    between atoms: C_2  and  C_3
REMARK    3  A    between atoms: C_3  and  C_4
REMARK    4  A    between atoms: C_4  and  C_5
REMARK    5  A    between atoms: C_5  and  C_6
REMARK    6  A    between atoms: C_6  and  C_7
REMARK    7  A    between atoms: C_7  and  C_8
REMARK    8  A    between atoms: C_8  and  O_9
REMARK    9  A    between atoms: O_9  and  C_10
REMARK                            x       y       z     vdW  Elec       q    Type
REMARK                         _______ _______ _______ _____ _____    ______ ____
ROOT
ATOM      1  C   UNL     1       2.494   7.788  18.443  0.00  0.00    +0.000 A 
ATOM      2  C   UNL     1       1.898   8.805  17.715  0.00  0.00    +0.000 A 
ATOM      3  C   UNL     1       1.030   9.707  18.336  0.00  0.00    +0.000 A 
ATOM      4  C   UNL     1       0.718   9.631  19.702  0.00  0.00    +0.000 A 
ATOM      5  C   UNL     1       1.326   8.599  20.431  0.00  0.00    +0.000 A 
ATOM      6  C   UNL     1       2.209   7.693  19.801  0.00  0.00    +0.000 A 
ATOM      7  C   UNL     1       1.080   8.388  21.889  0.00  0.00    +0.000 C 
ATOM      8  C   UNL     1       0.129   9.362  22.531  0.00  0.00    +0.000 C 
ATOM      9  C   UNL     1      -0.466  10.459  21.680  0.00  0.00    +0.000 A 
ATOM     10  N   UNL     1      -1.257  11.258  22.330  0.00  0.00    +0.000 NA
ATOM     11  N   UNL     1      -1.897  12.310  21.697  0.00  0.00    +0.000 NA
ATOM     12  C   UNL     1      -1.685  12.464  20.439  0.00  0.00    +0.000 A 
ATOM     13  C   UNL     1      -0.793  11.585  19.642  0.00  0.00    +0.000 A 
ATOM     14  O   UNL     1      -0.722  11.895  18.459  0.00  0.00    +0.000 OA
ATOM     15  N   UNL     1      -0.177  10.555  20.342  0.00  0.00    +0.000 N 
ENDROOT
BRANCH   1  16
ATOM     16  O   UNL     1       3.351   6.848  17.941  0.00  0.00    +0.000 OA
BRANCH  16  17
ATOM     17  C   UNL     1       3.415   5.631  18.683  0.00  0.00    +0.000 C 
BRANCH  17  18
ATOM     18  C   UNL     1       3.877   4.509  17.769  0.00  0.00    +0.000 C 
BRANCH  18  19
ATOM     19  C   UNL     1       2.675   3.720  17.260  0.00  0.00    +0.000 C 
BRANCH  19  20
ATOM     20  C   UNL     1       1.457   3.950  18.142  0.00  0.00    +0.000 C 
BRANCH  20  21
ATOM     21  C   UNL     1       1.341   2.860  19.203  0.00  0.00    +0.000 C 
BRANCH  21  22
ATOM     22  C   UNL     1       1.039   3.467  20.569  0.00  0.00    +0.000 C 
BRANCH  22  24
ATOM     23  C   UNL     1       3.338   2.512  20.868  0.00  0.00    +0.000 C 
ATOM     24  C   UNL     1       2.167   3.189  21.558  0.00  0.00    +0.000 C 
ENDBRANCH  22  24
ENDBRANCH  21  22
ENDBRANCH  20  21
ENDBRANCH  19  20
ENDBRANCH  18  19
ENDBRANCH  17  18
ENDBRANCH  16  17
ENDBRANCH   1  16
TORSDOF 8
ENDMDL
MODEL 9
REMARK VINA RESULT:      -7.1      4.800      7.795
REMARK  Name = 
REMARK  9 active torsions:
REMARK  status: ('A' for Active; 'I' for Inactive)
REMARK    1  A    between atoms: C_1  and  C_2
REMARK    2  A    between atoms: C_2  and  C_3
REMARK    3  A    between atoms: C_3  and  C_4
REMARK    4  A    between atoms: C_4  and  C_5
REMARK    5  A    between atoms: C_5  and  C_6
REMARK    6  A    between atoms: C_6  and  C_7
REMARK    7  A    between atoms: C_7  and  C_8
REMARK    8  A    between atoms: C_8  and  O_9
REMARK    9  A    between atoms: O_9  and  C_10
REMARK                            x       y       z     vdW  Elec       q    Type
REMARK                         _______ _______ _______ _____ _____    ______ ____
ROOT
ATOM      1  C   UNL     1       2.239   7.773  19.096  0.00  0.00    +0.000 A 
ATOM      2  C   UNL     1       1.803   8.729  18.195  0.00  0.00    +0.000 A 
ATOM      3  C   UNL     1       0.949   9.756  18.607  0.00  0.00    +0.000 A 
ATOM      4  C   UNL     1       0.492   9.868  19.930  0.00  0.00    +0.000 A 
ATOM      5  C   UNL     1       0.939   8.896  20.835  0.00  0.00    +0.000 A 
ATOM      6  C   UNL     1       1.808   7.864  20.416  0.00  0.00    +0.000 A 
ATOM      7  C   UNL     1       0.527   8.882  22.271  0.00  0.00    +0.000 C 
ATOM      8  C   UNL     1      -0.406   9.986  22.687  0.00  0.00    +0.000 C 
ATOM      9  C   UNL     1      -0.822  11.007  21.654  0.00  0.00    +0.000 A 
ATOM     10  N   UNL     1      -1.611  11.930  22.116  0.00  0.00    +0.000 NA
ATOM     11  N   UNL     1      -2.097  12.936  21.299  0.00  0.00    +0.000 NA
ATOM     12  C   UNL     1      -1.745  12.921  20.063  0.00  0.00    +0.000 A 
ATOM     13  C   UNL     1      -0.847  11.895  19.477  0.00  0.00    +0.000 A 
ATOM     14  O   UNL     1      -0.630  12.052  18.281  0.00  0.00    +0.000 OA
ATOM     15  N   UNL     1      -0.389  10.920  20.355  0.00  0.00    +0.000 N 
ENDROOT
BRANCH   1  16
ATOM     16  O   UNL     1       3.067   6.724  18.805  0.00  0.00    +0.000 OA
BRANCH  16  17
ATOM     17  C   UNL     1       3.787   6.844  17.578  0.00  0.00    +0.000 C 
BRANCH  17  18
ATOM     18  C   UNL     1       4.273   5.472  17.146  0.00  0.00    +0.000 C 
BRANCH  18  19
ATOM     19  C   UNL     1       3.914   4.432  18.203  0.00  0.00    +0.000 C 
BRANCH  19  20
ATOM     20  C   UNL     1       2.908   3.427  17.660  0.00  0.00    +0.000 C 
BRANCH  20  21
ATOM     21  C   UNL     1       1.480   3.872  17.962  0.00  0.00    +0.000 C 
BRANCH  21  22
ATOM     22  C   UNL     1       0.936   3.141  19.185  0.00  0.00    +0.000 C 
BRANCH  22  24
ATOM     23  C   UNL     1       1.961   3.314  21.466  0.00  0.00    +0.000 C 
ATOM     24  C   UNL     1       1.071   3.994  20.442  0.00  0.00    +0.000 C 
ENDBRANCH  22  24
ENDBRANCH  21  22
ENDBRANCH  20  21
ENDBRANCH  19  20
ENDBRANCH  18  19
ENDBRANCH  17  18
ENDBRANCH  16  17
ENDBRANCH   1  16
TORSDOF 8
ENDMDL
