MODEL 1
REMARK VINA RESULT:      -7.6      0.000      0.000
REMARK  Name = 
REMARK  4 active torsions:
REMARK  status: ('A' for Active; 'I' for Inactive)
REMARK    1  A    between atoms: C_2  and  C_3
REMARK    2  A    between atoms: C_3  and  C_4
REMARK    3  A    between atoms: C_7  and  C_8
REMARK    4  A    between atoms: N_16  and  O_17
REMARK                            x       y       z     vdW  Elec       q    Type
REMARK                         _______ _______ _______ _____ _____    ______ ____
ROOT
ATOM      1  C   UNL     1       4.730   4.828  16.593  0.00  0.00    +0.000 A 
ATOM      2  C   UNL     1       5.005   6.196  16.583  0.00  0.00    +0.000 A 
ATOM      3  C   UNL     1       4.213   7.084  17.321  0.00  0.00    +0.000 A 
ATOM      4  C   UNL     1       3.111   6.644  18.075  0.00  0.00    +0.000 A 
ATOM      5  C   UNL     1       2.842   5.264  18.063  0.00  0.00    +0.000 A 
ATOM      6  C   UNL     1       3.645   4.367  17.344  0.00  0.00    +0.000 A 
ENDROOT
BRANCH   4   7
ATOM      7  C   UNL     1       2.287   7.602  18.856  0.00  0.00    +0.000 A 
ATOM      8  C   UNL     1       1.830   8.807  18.286  0.00  0.00    +0.000 A 
ATOM      9  C   UNL     1       1.095   9.738  19.027  0.00  0.00    +0.000 A 
ATOM     10  C   UNL     1       0.776   9.477  20.354  0.00  0.00    +0.000 A 
ATOM     11  C   UNL     1       1.194   8.286  20.939  0.00  0.00    +0.000 A 
ATOM     12  C   UNL     1       1.944   7.364  20.199  0.00  0.00    +0.000 A 
ENDBRANCH   4   7
BRANCH   1  13
ATOM     13  C   UNL     1       5.620   3.862  15.853  0.00  0.00    +0.000 C 
BRANCH  13  15
ATOM     14  O   UNL     1       7.912   4.515  16.289  0.00  0.00    +0.000 OA
ATOM     15  C   UNL     1       6.961   4.476  15.509  0.00  0.00    +0.000 C 
ATOM     16  N   UNL     1       7.038   5.000  14.237  0.00  0.00    +0.000 N 
ATOM     17  H   UNL     1       6.214   5.289  13.723  0.00  0.00    +0.000 HD
BRANCH  16  18
ATOM     18  O   UNL     1       8.231   5.704  13.943  0.00  0.00    +0.000 OA
ATOM     19  H   UNL     1       7.910   6.625  13.830  0.00  0.00    +0.000 HD
ENDBRANCH  16  18
ENDBRANCH  13  15
ENDBRANCH   1  13
TORSDOF 4
ENDMDL
MODEL 2
REMARK VINA RESULT:      -7.5      1.104      1.851
REMARK  Name = 
REMARK  4 active torsions:
REMARK  status: ('A' for Active; 'I' for Inactive)
REMARK    1  A    between atoms: C_2  and  C_3
REMARK    2  A    between atoms: C_3  and  C_4
REMARK    3  A    between atoms: C_7  and  C_8
REMARK    4  A    between atoms: N_16  and  O_17
REMARK                            x       y       z     vdW  Elec       q    Type
REMARK                         _______ _______ _______ _____ _____    ______ ____
ROOT
ATOM      1  C   UNL     1       4.409   5.132  16.782  0.00  0.00    +0.000 A 
ATOM      2  C   UNL     1       4.672   6.501  16.722  0.00  0.00    +0.000 A 
ATOM      3  C   UNL     1       3.906   7.404  17.468  0.00  0.00    +0.000 A 
ATOM      4  C   UNL     1       2.840   6.979  18.280  0.00  0.00    +0.000 A 
ATOM      5  C   UNL     1       2.582   5.597  18.319  0.00  0.00    +0.000 A 
ATOM      6  C   UNL     1       3.360   4.685  17.592  0.00  0.00    +0.000 A 
ENDROOT
BRANCH   4   7
ATOM      7  C   UNL     1       2.043   7.953  19.069  0.00  0.00    +0.000 A 
ATOM      8  C   UNL     1       1.712   7.707  20.417  0.00  0.00    +0.000 A 
ATOM      9  C   UNL     1       0.921   8.594  21.152  0.00  0.00    +0.000 A 
ATOM     10  C   UNL     1       0.459   9.766  20.566  0.00  0.00    +0.000 A 
ATOM     11  C   UNL     1       0.787  10.048  19.245  0.00  0.00    +0.000 A 
ATOM     12  C   UNL     1       1.565   9.149  18.505  0.00  0.00    +0.000 A 
ENDBRANCH   4   7
BRANCH   1  13
ATOM     13  C   UNL     1       5.274   4.152  16.032  0.00  0.00    +0.000 C 
BRANCH  13  15
ATOM     14  O   UNL     1       7.561   4.754  15.506  0.00  0.00    +0.000 OA
ATOM     15  C   UNL     1       6.746   4.348  16.333  0.00  0.00    +0.000 C 
ATOM     16  N   UNL     1       7.112   4.027  17.622  0.00  0.00    +0.000 N 
ATOM     17  H   UNL     1       6.570   3.388  18.192  0.00  0.00    +0.000 HD
BRANCH  16  18
ATOM     18  O   UNL     1       8.502   4.065  17.884  0.00  0.00    +0.000 OA
ATOM     19  H   UNL     1       8.593   4.878  18.428  0.00  0.00    +0.000 HD
ENDBRANCH  16  18
ENDBRANCH  13  15
ENDBRANCH   1  13
TORSDOF 4
ENDMDL
MODEL 3
REMARK VINA RESULT:      -7.5      1.198      2.229
REMARK  Name = 
REMARK  4 active torsions:
REMARK  status: ('A' for Active; 'I' for Inactive)
REMARK    1  A    between atoms: C_2  and  C_3
REMARK    2  A    between atoms: C_3  and  C_4
REMARK    3  A    between atoms: C_7  and  C_8
REMARK    4  A    between atoms: N_16  and  O_17
REMARK                            x       y       z     vdW  Elec       q    Type
REMARK                         _______ _______ _______ _____ _____    ______ ____
ROOT
ATOM      1  C   UNL     1       4.370   5.215  16.885  0.00  0.00    +0.000 A 
ATOM      2  C   UNL     1       3.281   4.830  17.669  0.00  0.00    +0.000 A 
ATOM      3  C   UNL     1       2.490   5.791  18.308  0.00  0.00    +0.000 A 
ATOM      4  C   UNL     1       2.767   7.166  18.205  0.00  0.00    +0.000 A 
ATOM      5  C   UNL     1       3.874   7.536  17.422  0.00  0.00    +0.000 A 
ATOM      6  C   UNL     1       4.657   6.578  16.762  0.00  0.00    +0.000 A 
ENDROOT
BRANCH   4   7
ATOM      7  C   UNL     1       1.911   8.172  18.886  0.00  0.00    +0.000 A 
ATOM      8  C   UNL     1       1.618   8.072  20.262  0.00  0.00    +0.000 A 
ATOM      9  C   UNL     1       0.775   8.985  20.901  0.00  0.00    +0.000 A 
ATOM     10  C   UNL     1       0.219  10.039  20.186  0.00  0.00    +0.000 A 
ATOM     11  C   UNL     1       0.507  10.178  18.833  0.00  0.00    +0.000 A 
ATOM     12  C   UNL     1       1.338   9.252  18.191  0.00  0.00    +0.000 A 
ENDBRANCH   4   7
BRANCH   1  13
ATOM     13  C   UNL     1       5.183   4.186  16.144  0.00  0.00    +0.000 C 
BRANCH  13  15
ATOM     14  O   UNL     1       7.464   4.706  15.514  0.00  0.00    +0.000 OA
ATOM     15  C   UNL     1       6.669   4.355  16.384  0.00  0.00    +0.000 C 
ATOM     16  N   UNL     1       7.072   4.078  17.672  0.00  0.00    +0.000 N 
ATOM     17  H   UNL     1       6.535   3.477  18.287  0.00  0.00    +0.000 HD
BRANCH  16  18
ATOM     18  O   UNL     1       8.471   4.089  17.885  0.00  0.00    +0.000 OA
ATOM     19  H   UNL     1       8.809   4.487  17.053  0.00  0.00    +0.000 HD
ENDBRANCH  16  18
ENDBRANCH  13  15
ENDBRANCH   1  13
TORSDOF 4
ENDMDL
MODEL 4
REMARK VINA RESULT:      -7.5      1.179      1.889
REMARK  Name = 
REMARK  4 active torsions:
REMARK  status: ('A' for Active; 'I' for Inactive)
REMARK    1  A    between atoms: C_2  and  C_3
REMARK    2  A    between atoms: C_3  and  C_4
REMARK    3  A    between atoms: C_7  and  C_8
REMARK    4  A    between atoms: N_16  and  O_17
REMARK                            x       y       z     vdW  Elec       q    Type
REMARK                         _______ _______ _______ _____ _____    ______ ____
ROOT
ATOM      1  C   UNL     1       4.362   5.217  16.854  0.00  0.00    +0.000 A 
ATOM      2  C   UNL     1       3.267   4.822  17.625  0.00  0.00    +0.000 A 
ATOM      3  C   UNL     1       2.484   5.775  18.285  0.00  0.00    +0.000 A 
ATOM      4  C   UNL     1       2.774   7.150  18.219  0.00  0.00    +0.000 A 
ATOM      5  C   UNL     1       3.887   7.528  17.448  0.00  0.00    +0.000 A 
ATOM      6  C   UNL     1       4.663   6.579  16.766  0.00  0.00    +0.000 A 
ENDROOT
BRANCH   4   7
ATOM      7  C   UNL     1       1.926   8.146  18.922  0.00  0.00    +0.000 A 
ATOM      8  C   UNL     1       1.400   9.266  18.247  0.00  0.00    +0.000 A 
ATOM      9  C   UNL     1       0.642  10.234  18.910  0.00  0.00    +0.000 A 
ATOM     10  C   UNL     1       0.368  10.097  20.266  0.00  0.00    +0.000 A 
ATOM     11  C   UNL     1       0.854   8.991  20.956  0.00  0.00    +0.000 A 
ATOM     12  C   UNL     1       1.628   8.031  20.292  0.00  0.00    +0.000 A 
ENDBRANCH   4   7
BRANCH   1  13
ATOM     13  C   UNL     1       5.167   4.198  16.089  0.00  0.00    +0.000 C 
BRANCH  13  15
ATOM     14  O   UNL     1       7.456   4.700  15.471  0.00  0.00    +0.000 OA
ATOM     15  C   UNL     1       6.654   4.348  16.336  0.00  0.00    +0.000 C 
ATOM     16  N   UNL     1       7.050   4.053  17.622  0.00  0.00    +0.000 N 
ATOM     17  H   UNL     1       6.505   3.452  18.229  0.00  0.00    +0.000 HD
BRANCH  16  18
ATOM     18  O   UNL     1       8.449   4.047  17.838  0.00  0.00    +0.000 OA
ATOM     19  H   UNL     1       8.547   4.646  18.610  0.00  0.00    +0.000 HD
ENDBRANCH  16  18
ENDBRANCH  13  15
ENDBRANCH   1  13
TORSDOF 4
ENDMDL
MODEL 5
REMARK VINA RESULT:      -7.5      1.138      1.465
REMARK  Name = 
REMARK  4 active torsions:
REMARK  status: ('A' for Active; 'I' for Inactive)
REMARK    1  A    between atoms: C_2  and  C_3
REMARK    2  A    between atoms: C_3  and  C_4
REMARK    3  A    between atoms: C_7  and  C_8
REMARK    4  A    between atoms: N_16  and  O_17
REMARK                            x       y       z     vdW  Elec       q    Type
REMARK                         _______ _______ _______ _____ _____    ______ ____
ROOT
ATOM      1  C   UNL     1       4.383   5.105  16.806  0.00  0.00    +0.000 A 
ATOM      2  C   UNL     1       4.678   6.467  16.725  0.00  0.00    +0.000 A 
ATOM      3  C   UNL     1       3.905   7.403  17.420  0.00  0.00    +0.000 A 
ATOM      4  C   UNL     1       2.801   7.020  18.202  0.00  0.00    +0.000 A 
ATOM      5  C   UNL     1       2.511   5.645  18.262  0.00  0.00    +0.000 A 
ATOM      6  C   UNL     1       3.295   4.700  17.585  0.00  0.00    +0.000 A 
ENDROOT
BRANCH   4   7
ATOM      7  C   UNL     1       1.997   8.029  18.937  0.00  0.00    +0.000 A 
ATOM      8  C   UNL     1       1.522   9.192  18.299  0.00  0.00    +0.000 A 
ATOM      9  C   UNL     1       0.806  10.171  18.993  0.00  0.00    +0.000 A 
ATOM     10  C   UNL     1       0.523  10.002  20.343  0.00  0.00    +0.000 A 
ATOM     11  C   UNL     1       0.959   8.855  20.997  0.00  0.00    +0.000 A 
ATOM     12  C   UNL     1       1.691   7.884  20.302  0.00  0.00    +0.000 A 
ENDBRANCH   4   7
BRANCH   1  13
ATOM     13  C   UNL     1       5.253   4.089  16.112  0.00  0.00    +0.000 C 
BRANCH  13  15
ATOM     14  O   UNL     1       7.522   4.724  15.546  0.00  0.00    +0.000 OA
ATOM     15  C   UNL     1       6.724   4.317  16.390  0.00  0.00    +0.000 C 
ATOM     16  N   UNL     1       7.112   4.026  17.679  0.00  0.00    +0.000 N 
ATOM     17  H   UNL     1       6.589   3.387  18.267  0.00  0.00    +0.000 HD
BRANCH  16  18
ATOM     18  O   UNL     1       8.505   4.094  17.923  0.00  0.00    +0.000 OA
ATOM     19  H   UNL     1       8.551   4.044  18.903  0.00  0.00    +0.000 HD
ENDBRANCH  16  18
ENDBRANCH  13  15
ENDBRANCH   1  13
TORSDOF 4
ENDMDL
MODEL 6
REMARK VINA RESULT:      -7.5      0.128      1.171
REMARK  Name = 
REMARK  4 active torsions:
REMARK  status: ('A' for Active; 'I' for Inactive)
REMARK    1  A    between atoms: C_2  and  C_3
REMARK    2  A    between atoms: C_3  and  C_4
REMARK    3  A    between atoms: C_7  and  C_8
REMARK    4  A    between atoms: N_16  and  O_17
REMARK                            x       y       z     vdW  Elec       q    Type
REMARK                         _______ _______ _______ _____ _____    ______ ____
ROOT
ATOM      1  C   UNL     1       4.680   4.839  16.623  0.00  0.00    +0.000 A 
ATOM      2  C   UNL     1       3.594   4.372  17.366  0.00  0.00    +0.000 A 
ATOM      3  C   UNL     1       2.806   5.261  18.106  0.00  0.00    +0.000 A 
ATOM      4  C   UNL     1       3.083   6.639  18.149  0.00  0.00    +0.000 A 
ATOM      5  C   UNL     1       4.187   7.090  17.405  0.00  0.00    +0.000 A 
ATOM      6  C   UNL     1       4.967   6.207  16.644  0.00  0.00    +0.000 A 
ENDROOT
BRANCH   4   7
ATOM      7  C   UNL     1       2.230   7.567  18.936  0.00  0.00    +0.000 A 
ATOM      8  C   UNL     1       1.643   8.703  18.342  0.00  0.00    +0.000 A 
ATOM      9  C   UNL     1       0.880   9.608  19.084  0.00  0.00    +0.000 A 
ATOM     10  C   UNL     1       0.661   9.389  20.439  0.00  0.00    +0.000 A 
ATOM     11  C   UNL     1       1.208   8.265  21.049  0.00  0.00    +0.000 A 
ATOM     12  C   UNL     1       1.987   7.369  20.307  0.00  0.00    +0.000 A 
ENDBRANCH   4   7
BRANCH   1  13
ATOM     13  C   UNL     1       5.490   3.894  15.774  0.00  0.00    +0.000 C 
BRANCH  13  15
ATOM     14  O   UNL     1       7.813   4.397  16.242  0.00  0.00    +0.000 OA
ATOM     15  C   UNL     1       6.864   4.448  15.461  0.00  0.00    +0.000 C 
ATOM     16  N   UNL     1       6.974   5.028  14.216  0.00  0.00    +0.000 N 
ATOM     17  H   UNL     1       6.169   5.387  13.716  0.00  0.00    +0.000 HD
BRANCH  16  18
ATOM     18  O   UNL     1       8.205   5.678  13.957  0.00  0.00    +0.000 OA
ATOM     19  H   UNL     1       8.608   5.732  14.851  0.00  0.00    +0.000 HD
ENDBRANCH  16  18
ENDBRANCH  13  15
ENDBRANCH   1  13
TORSDOF 4
ENDMDL
MODEL 7
REMARK VINA RESULT:      -7.4      0.909      1.538
REMARK  Name = 
REMARK  4 active torsions:
REMARK  status: ('A' for Active; 'I' for Inactive)
REMARK    1  A    between atoms: C_2  and  C_3
REMARK    2  A    between atoms: C_3  and  C_4
REMARK    3  A    between atoms: C_7  and  C_8
REMARK    4  A    between atoms: N_16  and  O_17
REMARK                            x       y       z     vdW  Elec       q    Type
REMARK                         _______ _______ _______ _____ _____    ______ ____
ROOT
ATOM      1  C   UNL     1       5.096   4.699  16.415  0.00  0.00    +0.000 A 
ATOM      2  C   UNL     1       4.010   4.251  17.169  0.00  0.00    +0.000 A 
ATOM      3  C   UNL     1       3.184   5.163  17.835  0.00  0.00    +0.000 A 
ATOM      4  C   UNL     1       3.422   6.548  17.792  0.00  0.00    +0.000 A 
ATOM      5  C   UNL     1       4.527   6.981  17.039  0.00  0.00    +0.000 A 
ATOM      6  C   UNL     1       5.346   6.073  16.351  0.00  0.00    +0.000 A 
ENDROOT
BRANCH   4   7
ATOM      7  C   UNL     1       2.529   7.500  18.501  0.00  0.00    +0.000 A 
ATOM      8  C   UNL     1       1.987   8.623  17.844  0.00  0.00    +0.000 A 
ATOM      9  C   UNL     1       1.186   9.551  18.515  0.00  0.00    +0.000 A 
ATOM     10  C   UNL     1       0.884   9.369  19.859  0.00  0.00    +0.000 A 
ATOM     11  C   UNL     1       1.386   8.259  20.530  0.00  0.00    +0.000 A 
ATOM     12  C   UNL     1       2.203   7.340  19.860  0.00  0.00    +0.000 A 
ENDBRANCH   4   7
BRANCH   1  13
ATOM     13  C   UNL     1       5.948   3.724  15.644  0.00  0.00    +0.000 C 
BRANCH  13  15
ATOM     14  O   UNL     1       6.167   4.115  13.262  0.00  0.00    +0.000 OA
ATOM     15  C   UNL     1       6.552   4.354  14.406  0.00  0.00    +0.000 C 
ATOM     16  N   UNL     1       7.587   5.228  14.660  0.00  0.00    +0.000 N 
ATOM     17  H   UNL     1       8.136   5.180  15.511  0.00  0.00    +0.000 HD
BRANCH  16  18
ATOM     18  O   UNL     1       8.261   5.718  13.515  0.00  0.00    +0.000 OA
ATOM     19  H   UNL     1       8.389   4.904  12.980  0.00  0.00    +0.000 HD
ENDBRANCH  16  18
ENDBRANCH  13  15
ENDBRANCH   1  13
TORSDOF 4
ENDMDL
MODEL 8
REMARK VINA RESULT:      -7.3      0.849      1.500
REMARK  Name = 
REMARK  4 active torsions:
REMARK  status: ('A' for Active; 'I' for Inactive)
REMARK    1  A    between atoms: C_2  and  C_3
REMARK    2  A    between atoms: C_3  and  C_4
REMARK    3  A    between atoms: C_7  and  C_8
REMARK    4  A    between atoms: N_16  and  O_17
REMARK                            x       y       z     vdW  Elec       q    Type
REMARK                         _______ _______ _______ _____ _____    ______ ____
ROOT
ATOM      1  C   UNL     1       4.912   4.870  16.581  0.00  0.00    +0.000 A 
ATOM      2  C   UNL     1       5.181   6.238  16.506  0.00  0.00    +0.000 A 
ATOM      3  C   UNL     1       4.356   7.160  17.159  0.00  0.00    +0.000 A 
ATOM      4  C   UNL     1       3.224   6.756  17.890  0.00  0.00    +0.000 A 
ATOM      5  C   UNL     1       2.962   5.376  17.945  0.00  0.00    +0.000 A 
ATOM      6  C   UNL     1       3.798   4.446  17.311  0.00  0.00    +0.000 A 
ENDROOT
BRANCH   4   7
ATOM      7  C   UNL     1       2.364   7.751  18.581  0.00  0.00    +0.000 A 
ATOM      8  C   UNL     1       2.030   7.609  19.943  0.00  0.00    +0.000 A 
ATOM      9  C   UNL     1       1.183   8.513  20.589  0.00  0.00    +0.000 A 
ATOM     10  C   UNL     1       0.664   9.600  19.896  0.00  0.00    +0.000 A 
ATOM     11  C   UNL     1       0.992   9.780  18.557  0.00  0.00    +0.000 A 
ATOM     12  C   UNL     1       1.828   8.864  17.907  0.00  0.00    +0.000 A 
ENDBRANCH   4   7
BRANCH   1  13
ATOM     13  C   UNL     1       5.836   3.871  15.935  0.00  0.00    +0.000 C 
BRANCH  13  15
ATOM     14  O   UNL     1       5.855   4.083  13.521  0.00  0.00    +0.000 OA
ATOM     15  C   UNL     1       6.366   4.365  14.605  0.00  0.00    +0.000 C 
ATOM     16  N   UNL     1       7.484   5.163  14.699  0.00  0.00    +0.000 N 
ATOM     17  H   UNL     1       8.107   5.126  15.498  0.00  0.00    +0.000 HD
BRANCH  16  18
ATOM     18  O   UNL     1       8.080   5.518  13.465  0.00  0.00    +0.000 OA
ATOM     19  H   UNL     1       9.007   5.714  13.725  0.00  0.00    +0.000 HD
ENDBRANCH  16  18
ENDBRANCH  13  15
ENDBRANCH   1  13
TORSDOF 4
ENDMDL
MODEL 9
REMARK VINA RESULT:      -7.2      2.369      3.558
REMARK  Name = 
REMARK  4 active torsions:
REMARK  status: ('A' for Active; 'I' for Inactive)
REMARK    1  A    between atoms: C_2  and  C_3
REMARK    2  A    between atoms: C_3  and  C_4
REMARK    3  A    between atoms: C_7  and  C_8
REMARK    4  A    between atoms: N_16  and  O_17
REMARK                            x       y       z     vdW  Elec       q    Type
REMARK                         _______ _______ _______ _____ _____    ______ ____
ROOT
ATOM      1  C   UNL     1       5.925   4.653  14.818  0.00  0.00    +0.000 A 
ATOM      2  C   UNL     1       5.532   3.597  15.643  0.00  0.00    +0.000 A 
ATOM      3  C   UNL     1       4.758   3.838  16.783  0.00  0.00    +0.000 A 
ATOM      4  C   UNL     1       4.366   5.137  17.154  0.00  0.00    +0.000 A 
ATOM      5  C   UNL     1       4.781   6.189  16.319  0.00  0.00    +0.000 A 
ATOM      6  C   UNL     1       5.538   5.952  15.163  0.00  0.00    +0.000 A 
ENDROOT
BRANCH   4   7
ATOM      7  C   UNL     1       3.539   5.370  18.366  0.00  0.00    +0.000 A 
ATOM      8  C   UNL     1       3.223   4.317  19.249  0.00  0.00    +0.000 A 
ATOM      9  C   UNL     1       2.406   4.516  20.365  0.00  0.00    +0.000 A 
ATOM     10  C   UNL     1       1.901   5.781  20.643  0.00  0.00    +0.000 A 
ATOM     11  C   UNL     1       2.213   6.844  19.803  0.00  0.00    +0.000 A 
ATOM     12  C   UNL     1       3.018   6.638  18.676  0.00  0.00    +0.000 A 
ENDBRANCH   4   7
BRANCH   1  13
ATOM     13  C   UNL     1       6.702   4.391  13.554  0.00  0.00    +0.000 C 
BRANCH  13  15
ATOM     14  O   UNL     1       4.759   3.624  12.327  0.00  0.00    +0.000 OA
ATOM     15  C   UNL     1       5.950   3.484  12.603  0.00  0.00    +0.000 C 
ATOM     16  N   UNL     1       6.709   2.469  12.063  0.00  0.00    +0.000 N 
ATOM     17  H   UNL     1       7.549   2.126  12.515  0.00  0.00    +0.000 HD
BRANCH  16  18
ATOM     18  O   UNL     1       5.995   1.526  11.285  0.00  0.00    +0.000 OA
ATOM     19  H   UNL     1       5.397   2.097  10.756  0.00  0.00    +0.000 HD
ENDBRANCH  16  18
ENDBRANCH  13  15
ENDBRANCH   1  13
TORSDOF 4
ENDMDL
