MODEL 1
REMARK VINA RESULT:      -7.9      0.000      0.000
REMARK  Name = 
REMARK  5 active torsions:
REMARK  status: ('A' for Active; 'I' for Inactive)
REMARK    1  A    between atoms: C_1  and  O_2
REMARK    2  A    between atoms: O_2  and  C_3
REMARK    3  A    between atoms: C_8  and  C_9
REMARK    4  A    between atoms: C_10  and  C_11
REMARK    5  A    between atoms: C_17  and  C_18
REMARK                            x       y       z     vdW  Elec       q    Type
REMARK                         _______ _______ _______ _____ _____    ______ ____
ROOT
ATOM      1  C   UNL     1       2.865   3.058  20.059  0.00  0.00    +0.000 C 
ATOM      2  C   UNL     1       1.636   3.201  19.548  0.00  0.00    +0.000 C 
ATOM      3  C   UNL     1       1.364   3.803  18.234  0.00  0.00    +0.000 C 
ATOM      4  O   UNL     1       0.276   3.592  17.697  0.00  0.00    +0.000 OA
ATOM      5  C   UNL     1       2.489   4.644  17.625  0.00  0.00    +0.000 C 
ATOM      6  C   UNL     1       3.094   5.902  18.403  0.00  0.00    +0.000 C 
ATOM      7  C   UNL     1       2.625   7.334  18.255  0.00  0.00    +0.000 C 
ATOM      8  C   UNL     1       4.382   5.543  17.610  0.00  0.00    +0.000 C 
ATOM      9  C   UNL     1       3.946   4.040  17.821  0.00  0.00    +0.000 C 
ATOM     10  C   UNL     1       4.536   3.142  16.740  0.00  0.00    +0.000 C 
ATOM     11  C   UNL     1       4.129   3.354  19.243  0.00  0.00    +0.000 C 
ATOM     12  O   UNL     1       5.223   3.026  19.712  0.00  0.00    +0.000 OA
ENDROOT
BRANCH   8  13
ATOM     13  C   UNL     1       5.796   6.116  17.972  0.00  0.00    +0.000 A 
ATOM     14  C   UNL     1       6.644   5.597  18.963  0.00  0.00    +0.000 A 
ATOM     15  C   UNL     1       7.906   6.139  19.206  0.00  0.00    +0.000 A 
ATOM     16  C   UNL     1       8.353   7.238  18.478  0.00  0.00    +0.000 A 
ATOM     17  C   UNL     1       7.535   7.801  17.510  0.00  0.00    +0.000 A 
ATOM     18  C   UNL     1       6.282   7.242  17.265  0.00  0.00    +0.000 A 
ENDBRANCH   8  13
BRANCH   1  20
ATOM     19  C   UNL     1       1.704   2.507  22.048  0.00  0.00    +0.000 C 
ATOM     20  O   UNL     1       2.950   2.570  21.358  0.00  0.00    +0.000 OA
ENDBRANCH   1  20
TORSDOF 2
ENDMDL
MODEL 2
REMARK VINA RESULT:      -7.8      2.387      5.752
REMARK  Name = 
REMARK  5 active torsions:
REMARK  status: ('A' for Active; 'I' for Inactive)
REMARK    1  A    between atoms: C_1  and  O_2
REMARK    2  A    between atoms: O_2  and  C_3
REMARK    3  A    between atoms: C_8  and  C_9
REMARK    4  A    between atoms: C_10  and  C_11
REMARK    5  A    between atoms: C_17  and  C_18
REMARK                            x       y       z     vdW  Elec       q    Type
REMARK                         _______ _______ _______ _____ _____    ______ ____
ROOT
ATOM      1  C   UNL     1       5.419   4.854  15.606  0.00  0.00    +0.000 C 
ATOM      2  C   UNL     1       6.000   6.059  15.589  0.00  0.00    +0.000 C 
ATOM      3  C   UNL     1       6.143   6.914  16.778  0.00  0.00    +0.000 C 
ATOM      4  O   UNL     1       6.970   7.827  16.757  0.00  0.00    +0.000 OA
ATOM      5  C   UNL     1       5.246   6.575  17.970  0.00  0.00    +0.000 C 
ATOM      6  C   UNL     1       3.655   6.543  17.825  0.00  0.00    +0.000 C 
ATOM      7  C   UNL     1       2.724   7.706  18.097  0.00  0.00    +0.000 C 
ATOM      8  C   UNL     1       3.754   5.493  18.967  0.00  0.00    +0.000 C 
ATOM      9  C   UNL     1       5.080   5.020  18.252  0.00  0.00    +0.000 C 
ATOM     10  C   UNL     1       6.018   4.333  19.238  0.00  0.00    +0.000 C 
ATOM     11  C   UNL     1       4.997   4.169  16.913  0.00  0.00    +0.000 C 
ATOM     12  O   UNL     1       4.639   2.989  16.869  0.00  0.00    +0.000 OA
ENDROOT
BRANCH   8  13
ATOM     13  C   UNL     1       2.569   4.544  19.359  0.00  0.00    +0.000 A 
ATOM     14  C   UNL     1       1.677   3.955  18.449  0.00  0.00    +0.000 A 
ATOM     15  C   UNL     1       0.666   3.090  18.869  0.00  0.00    +0.000 A 
ATOM     16  C   UNL     1       0.501   2.803  20.221  0.00  0.00    +0.000 A 
ATOM     17  C   UNL     1       1.341   3.387  21.156  0.00  0.00    +0.000 A 
ATOM     18  C   UNL     1       2.357   4.237  20.724  0.00  0.00    +0.000 A 
ENDBRANCH   8  13
BRANCH   1  20
ATOM     19  C   UNL     1       6.475   4.030  13.654  0.00  0.00    +0.000 C 
ATOM     20  O   UNL     1       5.263   4.215  14.382  0.00  0.00    +0.000 OA
ENDBRANCH   1  20
TORSDOF 2
ENDMDL
MODEL 3
REMARK VINA RESULT:      -7.6      0.094      1.074
REMARK  Name = 
REMARK  5 active torsions:
REMARK  status: ('A' for Active; 'I' for Inactive)
REMARK    1  A    between atoms: C_1  and  O_2
REMARK    2  A    between atoms: O_2  and  C_3
REMARK    3  A    between atoms: C_8  and  C_9
REMARK    4  A    between atoms: C_10  and  C_11
REMARK    5  A    between atoms: C_17  and  C_18
REMARK                            x       y       z     vdW  Elec       q    Type
REMARK                         _______ _______ _______ _____ _____    ______ ____
ROOT
ATOM      1  C   UNL     1       2.899   3.074  20.051  0.00  0.00    +0.000 C 
ATOM      2  C   UNL     1       1.660   3.203  19.561  0.00  0.00    +0.000 C 
ATOM      3  C   UNL     1       1.360   3.787  18.245  0.00  0.00    +0.000 C 
ATOM      4  O   UNL     1       0.262   3.562  17.732  0.00  0.00    +0.000 OA
ATOM      5  C   UNL     1       2.468   4.626  17.605  0.00  0.00    +0.000 C 
ATOM      6  C   UNL     1       3.080   5.898  18.355  0.00  0.00    +0.000 C 
ATOM      7  C   UNL     1       2.600   7.325  18.198  0.00  0.00    +0.000 C 
ATOM      8  C   UNL     1       4.355   5.535  17.542  0.00  0.00    +0.000 C 
ATOM      9  C   UNL     1       3.932   4.033  17.780  0.00  0.00    +0.000 C 
ATOM     10  C   UNL     1       4.507   3.124  16.700  0.00  0.00    +0.000 C 
ATOM     11  C   UNL     1       4.146   3.366  19.207  0.00  0.00    +0.000 C 
ATOM     12  O   UNL     1       5.250   3.051  19.660  0.00  0.00    +0.000 OA
ENDROOT
BRANCH   8  13
ATOM     13  C   UNL     1       5.772   6.121  17.871  0.00  0.00    +0.000 A 
ATOM     14  C   UNL     1       6.362   7.213  17.215  0.00  0.00    +0.000 A 
ATOM     15  C   UNL     1       7.614   7.702  17.587  0.00  0.00    +0.000 A 
ATOM     16  C   UNL     1       8.329   7.098  18.617  0.00  0.00    +0.000 A 
ATOM     17  C   UNL     1       7.796   5.999  19.272  0.00  0.00    +0.000 A 
ATOM     18  C   UNL     1       6.538   5.527  18.902  0.00  0.00    +0.000 A 
ENDBRANCH   8  13
BRANCH   1  20
ATOM     19  C   UNL     1       1.776   2.522  22.061  0.00  0.00    +0.000 C 
ATOM     20  O   UNL     1       3.011   2.602  21.354  0.00  0.00    +0.000 OA
ENDBRANCH   1  20
TORSDOF 2
ENDMDL
MODEL 4
REMARK VINA RESULT:      -7.5      2.364      5.671
REMARK  Name = 
REMARK  5 active torsions:
REMARK  status: ('A' for Active; 'I' for Inactive)
REMARK    1  A    between atoms: C_1  and  O_2
REMARK    2  A    between atoms: O_2  and  C_3
REMARK    3  A    between atoms: C_8  and  C_9
REMARK    4  A    between atoms: C_10  and  C_11
REMARK    5  A    between atoms: C_17  and  C_18
REMARK                            x       y       z     vdW  Elec       q    Type
REMARK                         _______ _______ _______ _____ _____    ______ ____
ROOT
ATOM      1  C   UNL     1       5.422   4.838  15.668  0.00  0.00    +0.000 C 
ATOM      2  C   UNL     1       5.973   6.057  15.624  0.00  0.00    +0.000 C 
ATOM      3  C   UNL     1       6.107   6.934  16.797  0.00  0.00    +0.000 C 
ATOM      4  O   UNL     1       6.911   7.867  16.752  0.00  0.00    +0.000 OA
ATOM      5  C   UNL     1       5.232   6.593  18.005  0.00  0.00    +0.000 C 
ATOM      6  C   UNL     1       3.641   6.519  17.879  0.00  0.00    +0.000 C 
ATOM      7  C   UNL     1       2.685   7.663  18.142  0.00  0.00    +0.000 C 
ATOM      8  C   UNL     1       3.779   5.491  19.037  0.00  0.00    +0.000 C 
ATOM      9  C   UNL     1       5.108   5.039  18.315  0.00  0.00    +0.000 C 
ATOM     10  C   UNL     1       6.074   4.392  19.300  0.00  0.00    +0.000 C 
ATOM     11  C   UNL     1       5.032   4.164  16.990  0.00  0.00    +0.000 C 
ATOM     12  O   UNL     1       4.703   2.975  16.970  0.00  0.00    +0.000 OA
ENDROOT
BRANCH   8  13
ATOM     13  C   UNL     1       2.622   4.519  19.457  0.00  0.00    +0.000 A 
ATOM     14  C   UNL     1       2.323   4.150  20.778  0.00  0.00    +0.000 A 
ATOM     15  C   UNL     1       1.254   3.306  21.079  0.00  0.00    +0.000 A 
ATOM     16  C   UNL     1       0.460   2.785  20.062  0.00  0.00    +0.000 A 
ATOM     17  C   UNL     1       0.738   3.100  18.741  0.00  0.00    +0.000 A 
ATOM     18  C   UNL     1       1.800   3.956  18.453  0.00  0.00    +0.000 A 
ENDBRANCH   8  13
BRANCH   1  20
ATOM     19  C   UNL     1       6.467   4.057  13.692  0.00  0.00    +0.000 C 
ATOM     20  O   UNL     1       5.268   4.175  14.456  0.00  0.00    +0.000 OA
ENDBRANCH   1  20
TORSDOF 2
ENDMDL
MODEL 5
REMARK VINA RESULT:      -6.8      2.475      4.171
REMARK  Name = 
REMARK  5 active torsions:
REMARK  status: ('A' for Active; 'I' for Inactive)
REMARK    1  A    between atoms: C_1  and  O_2
REMARK    2  A    between atoms: O_2  and  C_3
REMARK    3  A    between atoms: C_8  and  C_9
REMARK    4  A    between atoms: C_10  and  C_11
REMARK    5  A    between atoms: C_17  and  C_18
REMARK                            x       y       z     vdW  Elec       q    Type
REMARK                         _______ _______ _______ _____ _____    ______ ____
ROOT
ATOM      1  C   UNL     1       2.697   6.810  18.896  0.00  0.00    +0.000 C 
ATOM      2  C   UNL     1       2.147   6.057  19.856  0.00  0.00    +0.000 C 
ATOM      3  C   UNL     1       2.713   4.779  20.315  0.00  0.00    +0.000 C 
ATOM      4  O   UNL     1       2.356   4.329  21.405  0.00  0.00    +0.000 OA
ATOM      5  C   UNL     1       3.734   4.115  19.388  0.00  0.00    +0.000 C 
ATOM      6  C   UNL     1       3.360   3.742  17.879  0.00  0.00    +0.000 C 
ATOM      7  C   UNL     1       2.818   2.408  17.413  0.00  0.00    +0.000 C 
ATOM      8  C   UNL     1       4.881   3.959  17.641  0.00  0.00    +0.000 C 
ATOM      9  C   UNL     1       4.759   5.120  18.705  0.00  0.00    +0.000 C 
ATOM     10  C   UNL     1       6.100   5.393  19.374  0.00  0.00    +0.000 C 
ATOM     11  C   UNL     1       4.075   6.496  18.299  0.00  0.00    +0.000 C 
ATOM     12  O   UNL     1       4.599   7.331  17.556  0.00  0.00    +0.000 OA
ENDROOT
BRANCH   8  13
ATOM     13  C   UNL     1       5.506   4.126  16.213  0.00  0.00    +0.000 A 
ATOM     14  C   UNL     1       4.860   3.802  15.010  0.00  0.00    +0.000 A 
ATOM     15  C   UNL     1       5.467   4.012  13.772  0.00  0.00    +0.000 A 
ATOM     16  C   UNL     1       6.755   4.533  13.698  0.00  0.00    +0.000 A 
ATOM     17  C   UNL     1       7.442   4.838  14.863  0.00  0.00    +0.000 A 
ATOM     18  C   UNL     1       6.820   4.639  16.095  0.00  0.00    +0.000 A 
ENDBRANCH   8  13
BRANCH   1  20
ATOM     19  C   UNL     1       1.520   8.750  19.571  0.00  0.00    +0.000 C 
ATOM     20  O   UNL     1       1.986   7.936  18.497  0.00  0.00    +0.000 OA
ENDBRANCH   1  20
TORSDOF 2
ENDMDL
MODEL 6
REMARK VINA RESULT:      -6.6      2.505      4.211
REMARK  Name = 
REMARK  5 active torsions:
REMARK  status: ('A' for Active; 'I' for Inactive)
REMARK    1  A    between atoms: C_1  and  O_2
REMARK    2  A    between atoms: O_2  and  C_3
REMARK    3  A    between atoms: C_8  and  C_9
REMARK    4  A    between atoms: C_10  and  C_11
REMARK    5  A    between atoms: C_17  and  C_18
REMARK                            x       y       z     vdW  Elec       q    Type
REMARK                         _______ _______ _______ _____ _____    ______ ____
ROOT
ATOM      1  C   UNL     1       2.729   6.862  18.770  0.00  0.00    +0.000 C 
ATOM      2  C   UNL     1       2.170   6.109  19.725  0.00  0.00    +0.000 C 
ATOM      3  C   UNL     1       2.742   4.841  20.203  0.00  0.00    +0.000 C 
ATOM      4  O   UNL     1       2.369   4.394  21.289  0.00  0.00    +0.000 OA
ATOM      5  C   UNL     1       3.786   4.182  19.298  0.00  0.00    +0.000 C 
ATOM      6  C   UNL     1       3.444   3.795  17.786  0.00  0.00    +0.000 C 
ATOM      7  C   UNL     1       2.925   2.452  17.319  0.00  0.00    +0.000 C 
ATOM      8  C   UNL     1       4.967   4.027  17.574  0.00  0.00    +0.000 C 
ATOM      9  C   UNL     1       4.812   5.193  18.627  0.00  0.00    +0.000 C 
ATOM     10  C   UNL     1       6.138   5.486  19.319  0.00  0.00    +0.000 C 
ATOM     11  C   UNL     1       4.121   6.560  18.200  0.00  0.00    +0.000 C 
ATOM     12  O   UNL     1       4.649   7.395  17.461  0.00  0.00    +0.000 OA
ENDROOT
BRANCH   8  13
ATOM     13  C   UNL     1       5.616   4.191  16.156  0.00  0.00    +0.000 A 
ATOM     14  C   UNL     1       6.904   4.693  15.916  0.00  0.00    +0.000 A 
ATOM     15  C   UNL     1       7.429   4.777  14.626  0.00  0.00    +0.000 A 
ATOM     16  C   UNL     1       6.670   4.381  13.529  0.00  0.00    +0.000 A 
ATOM     17  C   UNL     1       5.381   3.908  13.719  0.00  0.00    +0.000 A 
ATOM     18  C   UNL     1       4.872   3.813  15.013  0.00  0.00    +0.000 A 
ENDBRANCH   8  13
BRANCH   1  20
ATOM     19  C   UNL     1       1.531   8.802  19.411  0.00  0.00    +0.000 C 
ATOM     20  O   UNL     1       2.013   7.977  18.351  0.00  0.00    +0.000 OA
ENDBRANCH   1  20
TORSDOF 2
ENDMDL
MODEL 7
REMARK VINA RESULT:      -6.5      2.878      4.694
REMARK  Name = 
REMARK  5 active torsions:
REMARK  status: ('A' for Active; 'I' for Inactive)
REMARK    1  A    between atoms: C_1  and  O_2
REMARK    2  A    between atoms: O_2  and  C_3
REMARK    3  A    between atoms: C_8  and  C_9
REMARK    4  A    between atoms: C_10  and  C_11
REMARK    5  A    between atoms: C_17  and  C_18
REMARK                            x       y       z     vdW  Elec       q    Type
REMARK                         _______ _______ _______ _____ _____    ______ ____
ROOT
ATOM      1  C   UNL     1       3.304   7.357  17.794  0.00  0.00    +0.000 C 
ATOM      2  C   UNL     1       2.739   6.754  18.847  0.00  0.00    +0.000 C 
ATOM      3  C   UNL     1       3.224   5.488  19.419  0.00  0.00    +0.000 C 
ATOM      4  O   UNL     1       2.880   5.183  20.562  0.00  0.00    +0.000 OA
ATOM      5  C   UNL     1       4.149   4.651  18.532  0.00  0.00    +0.000 C 
ATOM      6  C   UNL     1       3.682   4.157  17.086  0.00  0.00    +0.000 C 
ATOM      7  C   UNL     1       3.019   2.830  16.782  0.00  0.00    +0.000 C 
ATOM      8  C   UNL     1       5.204   4.222  16.773  0.00  0.00    +0.000 C 
ATOM      9  C   UNL     1       5.218   5.493  17.710  0.00  0.00    +0.000 C 
ATOM     10  C   UNL     1       6.604   5.723  18.300  0.00  0.00    +0.000 C 
ATOM     11  C   UNL     1       4.626   6.872  17.186  0.00  0.00    +0.000 C 
ATOM     12  O   UNL     1       5.180   7.580  16.340  0.00  0.00    +0.000 OA
ENDROOT
BRANCH   8  13
ATOM     13  C   UNL     1       5.777   4.190  15.314  0.00  0.00    +0.000 A 
ATOM     14  C   UNL     1       5.179   3.529  14.230  0.00  0.00    +0.000 A 
ATOM     15  C   UNL     1       5.730   3.574  12.949  0.00  0.00    +0.000 A 
ATOM     16  C   UNL     1       6.914   4.266  12.715  0.00  0.00    +0.000 A 
ATOM     17  C   UNL     1       7.555   4.908  13.764  0.00  0.00    +0.000 A 
ATOM     18  C   UNL     1       6.987   4.869  15.037  0.00  0.00    +0.000 A 
ENDBRANCH   8  13
BRANCH   1  20
ATOM     19  C   UNL     1       1.681   9.037  18.178  0.00  0.00    +0.000 C 
ATOM     20  O   UNL     1       2.665   8.490  17.303  0.00  0.00    +0.000 OA
ENDBRANCH   1  20
TORSDOF 2
ENDMDL
MODEL 8
REMARK VINA RESULT:      -6.4      2.107      5.656
REMARK  Name = 
REMARK  5 active torsions:
REMARK  status: ('A' for Active; 'I' for Inactive)
REMARK    1  A    between atoms: C_1  and  O_2
REMARK    2  A    between atoms: O_2  and  C_3
REMARK    3  A    between atoms: C_8  and  C_9
REMARK    4  A    between atoms: C_10  and  C_11
REMARK    5  A    between atoms: C_17  and  C_18
REMARK                            x       y       z     vdW  Elec       q    Type
REMARK                         _______ _______ _______ _____ _____    ______ ____
ROOT
ATOM      1  C   UNL     1       6.833   5.632  19.269  0.00  0.00    +0.000 C 
ATOM      2  C   UNL     1       7.612   6.044  18.261  0.00  0.00    +0.000 C 
ATOM      3  C   UNL     1       7.111   6.334  16.909  0.00  0.00    +0.000 C 
ATOM      4  O   UNL     1       7.803   7.018  16.153  0.00  0.00    +0.000 OA
ATOM      5  C   UNL     1       5.736   5.763  16.556  0.00  0.00    +0.000 C 
ATOM      6  C   UNL     1       5.444   4.194  16.644  0.00  0.00    +0.000 C 
ATOM      7  C   UNL     1       5.589   3.208  15.504  0.00  0.00    +0.000 C 
ATOM      8  C   UNL     1       3.991   4.665  16.932  0.00  0.00    +0.000 C 
ATOM      9  C   UNL     1       4.662   5.854  17.725  0.00  0.00    +0.000 C 
ATOM     10  C   UNL     1       3.732   7.059  17.796  0.00  0.00    +0.000 C 
ATOM     11  C   UNL     1       5.303   5.590  19.155  0.00  0.00    +0.000 C 
ATOM     12  O   UNL     1       4.643   5.378  20.176  0.00  0.00    +0.000 OA
ENDROOT
BRANCH   8  13
ATOM     13  C   UNL     1       2.887   3.718  17.518  0.00  0.00    +0.000 A 
ATOM     14  C   UNL     1       3.078   2.366  17.843  0.00  0.00    +0.000 A 
ATOM     15  C   UNL     1       2.057   1.593  18.396  0.00  0.00    +0.000 A 
ATOM     16  C   UNL     1       0.799   2.145  18.622  0.00  0.00    +0.000 A 
ATOM     17  C   UNL     1       0.558   3.469  18.288  0.00  0.00    +0.000 A 
ATOM     18  C   UNL     1       1.591   4.236  17.750  0.00  0.00    +0.000 A 
ENDBRANCH   8  13
BRANCH   1  20
ATOM     19  C   UNL     1       8.883   5.134  20.343  0.00  0.00    +0.000 C 
ATOM     20  O   UNL     1       7.470   5.296  20.457  0.00  0.00    +0.000 OA
ENDBRANCH   1  20
TORSDOF 2
ENDMDL
MODEL 9
REMARK VINA RESULT:      -6.2      2.111      5.598
REMARK  Name = 
REMARK  5 active torsions:
REMARK  status: ('A' for Active; 'I' for Inactive)
REMARK    1  A    between atoms: C_1  and  O_2
REMARK    2  A    between atoms: O_2  and  C_3
REMARK    3  A    between atoms: C_8  and  C_9
REMARK    4  A    between atoms: C_10  and  C_11
REMARK    5  A    between atoms: C_17  and  C_18
REMARK                            x       y       z     vdW  Elec       q    Type
REMARK                         _______ _______ _______ _____ _____    ______ ____
ROOT
ATOM      1  C   UNL     1       6.943   4.898  18.093  0.00  0.00    +0.000 C 
ATOM      2  C   UNL     1       7.189   4.590  16.814  0.00  0.00    +0.000 C 
ATOM      3  C   UNL     1       6.135   4.359  15.814  0.00  0.00    +0.000 C 
ATOM      4  O   UNL     1       6.428   4.421  14.618  0.00  0.00    +0.000 OA
ATOM      5  C   UNL     1       4.733   4.075  16.356  0.00  0.00    +0.000 C 
ATOM      6  C   UNL     1       4.463   2.853  17.350  0.00  0.00    +0.000 C 
ATOM      7  C   UNL     1       4.038   1.460  16.935  0.00  0.00    +0.000 C 
ATOM      8  C   UNL     1       3.317   3.767  17.870  0.00  0.00    +0.000 C 
ATOM      9  C   UNL     1       4.315   4.962  17.607  0.00  0.00    +0.000 C 
ATOM     10  C   UNL     1       3.560   6.266  17.383  0.00  0.00    +0.000 C 
ATOM     11  C   UNL     1       5.530   5.213  18.601  0.00  0.00    +0.000 C 
ATOM     12  O   UNL     1       5.402   5.666  19.742  0.00  0.00    +0.000 OA
ENDROOT
BRANCH   8  13
ATOM     13  C   UNL     1       2.573   3.514  19.227  0.00  0.00    +0.000 A 
ATOM     14  C   UNL     1       1.244   3.876  19.494  0.00  0.00    +0.000 A 
ATOM     15  C   UNL     1       0.636   3.586  20.716  0.00  0.00    +0.000 A 
ATOM     16  C   UNL     1       1.349   2.941  21.722  0.00  0.00    +0.000 A 
ATOM     17  C   UNL     1       2.674   2.592  21.511  0.00  0.00    +0.000 A 
ATOM     18  C   UNL     1       3.267   2.873  20.281  0.00  0.00    +0.000 A 
ENDBRANCH   8  13
BRANCH   1  20
ATOM     19  C   UNL     1       8.387   6.305  19.334  0.00  0.00    +0.000 C 
ATOM     20  O   UNL     1       8.042   4.979  18.941  0.00  0.00    +0.000 OA
ENDBRANCH   1  20
TORSDOF 2
ENDMDL
