MODEL 1
REMARK VINA RESULT:      -7.4      0.000      0.000
REMARK  Name = 
REMARK  10 active torsions:
REMARK  status: ('A' for Active; 'I' for Inactive)
REMARK    1  A    between atoms: C_1  and  C_2
REMARK    2  A    between atoms: C_2  and  C_3
REMARK    3  A    between atoms: C_3  and  C_4
REMARK    4  A    between atoms: C_8  and  C_10
REMARK    5  A    between atoms: C_10  and  C_11
REMARK    6  A    between atoms: C_16  and  C_17
REMARK    7  A    between atoms: N_23  and  C_24
REMARK    8  A    between atoms: C_24  and  C_25
REMARK    9  A    between atoms: C_25  and  C_26
REMARK   10  A    between atoms: C_30  and  C_31
REMARK                            x       y       z     vdW  Elec       q    Type
REMARK                         _______ _______ _______ _____ _____    ______ ____
ROOT
ATOM      1  C   UNL     1       0.406  10.361  18.853  0.00  0.00    +0.000 C 
ATOM      2  N   UNL     1      -0.012   9.646  20.048  0.00  0.00    +0.000 N 
ATOM      3  C   UNL     1       0.752   8.541  20.332  0.00  0.00    +0.000 C 
ATOM      4  O   UNL     1       0.602   7.888  21.342  0.00  0.00    +0.000 OA
ATOM      5  N   UNL     1       1.657   8.370  19.329  0.00  0.00    +0.000 N 
ATOM      6  C   UNL     1       1.498   9.351  18.393  0.00  0.00    +0.000 C 
ATOM      7  O   UNL     1       2.126   9.409  17.342  0.00  0.00    +0.000 OA
ATOM      8  H   UNL     1      -0.713   9.958  20.704  0.00  0.00    +0.000 HD
ENDROOT
BRANCH   1   9
ATOM      9  C   UNL     1       0.860  11.802  19.280  0.00  0.00    +0.000 C 
ATOM     10  C   UNL     1       0.957  12.092  20.784  0.00  0.00    +0.000 C 
ATOM     11  C   UNL     1      -0.401  12.135  21.464  0.00  0.00    +0.000 C 
ATOM     12  N   UNL     1      -1.449  12.853  20.729  0.00  0.00    +0.000 N 
ATOM     13  C   UNL     1      -2.713  12.848  21.336  0.00  0.00    +0.000 C 
ATOM     14  O   UNL     1      -2.898  12.323  22.439  0.00  0.00    +0.000 OA
ATOM     15  C   UNL     1      -1.331  13.090  19.295  0.00  0.00    +0.000 C 
ATOM     16  C   UNL     1       0.054  12.969  18.694  0.00  0.00    +0.000 C 
BRANCH  13  17
ATOM     17  C   UNL     1      -3.876  13.538  20.610  0.00  0.00    +0.000 C 
BRANCH  17  18
ATOM     18  C   UNL     1      -4.934  12.564  20.129  0.00  0.00    +0.000 A 
ATOM     19  C   UNL     1      -4.747  11.994  18.854  0.00  0.00    +0.000 A 
ATOM     20  C   UNL     1      -5.671  11.106  18.312  0.00  0.00    +0.000 A 
ATOM     21  C   UNL     1      -6.806  10.769  19.039  0.00  0.00    +0.000 A 
ATOM     22  C   UNL     1      -7.012  11.323  20.301  0.00  0.00    +0.000 A 
ATOM     23  C   UNL     1      -6.096  12.232  20.859  0.00  0.00    +0.000 A 
ATOM     24  C   UNL     1      -6.410  12.779  22.224  0.00  0.00    +0.000 C 
ENDBRANCH  17  18
ENDBRANCH  13  17
ENDBRANCH   1   9
BRANCH   1  26
ATOM     25  C   UNL     1      -2.049   9.734  18.301  0.00  0.00    +0.000 C 
ATOM     26  C   UNL     1      -0.763  10.418  17.848  0.00  0.00    +0.000 C 
ENDBRANCH   1  26
BRANCH   5  27
ATOM     27  C   UNL     1       2.763   7.422  19.327  0.00  0.00    +0.000 C 
BRANCH  27  28
ATOM     28  C   UNL     1       2.427   6.035  18.776  0.00  0.00    +0.000 C 
BRANCH  28  29
ATOM     29  C   UNL     1       3.447   5.565  17.787  0.00  0.00    +0.000 A 
ATOM     30  S   UNL     1       4.645   6.642  17.187  0.00  0.00    +0.000 S 
ATOM     31  C   UNL     1       5.314   5.364  16.268  0.00  0.00    +0.000 A 
ATOM     32  N   UNL     1       4.705   4.203  16.364  0.00  0.00    +0.000 NA
ATOM     33  C   UNL     1       3.633   4.306  17.237  0.00  0.00    +0.000 A 
ATOM     34  C   UNL     1       2.812   3.094  17.497  0.00  0.00    +0.000 C 
ENDBRANCH  28  29
ENDBRANCH  27  28
ENDBRANCH   5  27
TORSDOF 7
ENDMDL
MODEL 2
REMARK VINA RESULT:      -7.3      1.254      1.517
REMARK  Name = 
REMARK  10 active torsions:
REMARK  status: ('A' for Active; 'I' for Inactive)
REMARK    1  A    between atoms: C_1  and  C_2
REMARK    2  A    between atoms: C_2  and  C_3
REMARK    3  A    between atoms: C_3  and  C_4
REMARK    4  A    between atoms: C_8  and  C_10
REMARK    5  A    between atoms: C_10  and  C_11
REMARK    6  A    between atoms: C_16  and  C_17
REMARK    7  A    between atoms: N_23  and  C_24
REMARK    8  A    between atoms: C_24  and  C_25
REMARK    9  A    between atoms: C_25  and  C_26
REMARK   10  A    between atoms: C_30  and  C_31
REMARK                            x       y       z     vdW  Elec       q    Type
REMARK                         _______ _______ _______ _____ _____    ______ ____
ROOT
ATOM      1  C   UNL     1       0.345  10.475  18.866  0.00  0.00    +0.000 C 
ATOM      2  N   UNL     1      -0.078   9.750  20.053  0.00  0.00    +0.000 N 
ATOM      3  C   UNL     1       0.670   8.630  20.317  0.00  0.00    +0.000 C 
ATOM      4  O   UNL     1       0.516   7.964  21.319  0.00  0.00    +0.000 OA
ATOM      5  N   UNL     1       1.566   8.458  19.306  0.00  0.00    +0.000 N 
ATOM      6  C   UNL     1       1.418   9.455  18.385  0.00  0.00    +0.000 C 
ATOM      7  O   UNL     1       2.041   9.517  17.331  0.00  0.00    +0.000 OA
ATOM      8  H   UNL     1      -0.769  10.064  20.718  0.00  0.00    +0.000 HD
ENDROOT
BRANCH   1   9
ATOM      9  C   UNL     1       0.825  11.903  19.311  0.00  0.00    +0.000 C 
ATOM     10  C   UNL     1       0.965  12.160  20.816  0.00  0.00    +0.000 C 
ATOM     11  C   UNL     1      -0.373  12.201  21.535  0.00  0.00    +0.000 C 
ATOM     12  N   UNL     1      -1.433  12.945  20.843  0.00  0.00    +0.000 N 
ATOM     13  C   UNL     1      -2.680  12.939  21.483  0.00  0.00    +0.000 C 
ATOM     14  O   UNL     1      -2.841  12.393  22.580  0.00  0.00    +0.000 OA
ATOM     15  C   UNL     1      -1.352  13.210  19.411  0.00  0.00    +0.000 C 
ATOM     16  C   UNL     1       0.016  13.089  18.770  0.00  0.00    +0.000 C 
BRANCH  13  17
ATOM     17  C   UNL     1      -3.855  13.656  20.804  0.00  0.00    +0.000 C 
BRANCH  17  18
ATOM     18  C   UNL     1      -4.946  12.704  20.352  0.00  0.00    +0.000 A 
ATOM     19  C   UNL     1      -4.816  12.146  19.065  0.00  0.00    +0.000 A 
ATOM     20  C   UNL     1      -5.773  11.280  18.548  0.00  0.00    +0.000 A 
ATOM     21  C   UNL     1      -6.887  10.951  19.312  0.00  0.00    +0.000 A 
ATOM     22  C   UNL     1      -7.037  11.494  20.588  0.00  0.00    +0.000 A 
ATOM     23  C   UNL     1      -6.085  12.383  21.121  0.00  0.00    +0.000 A 
ATOM     24  C   UNL     1      -6.341  12.918  22.502  0.00  0.00    +0.000 C 
ENDBRANCH  17  18
ENDBRANCH  13  17
ENDBRANCH   1   9
BRANCH   1  26
ATOM     25  C   UNL     1      -2.115   9.872  18.309  0.00  0.00    +0.000 C 
ATOM     26  C   UNL     1      -0.829  10.565  17.869  0.00  0.00    +0.000 C 
ENDBRANCH   1  26
BRANCH   5  27
ATOM     27  C   UNL     1       2.657   7.492  19.284  0.00  0.00    +0.000 C 
BRANCH  27  28
ATOM     28  C   UNL     1       2.424   6.272  18.390  0.00  0.00    +0.000 C 
BRANCH  28  29
ATOM     29  C   UNL     1       2.728   4.992  19.103  0.00  0.00    +0.000 A 
ATOM     30  S   UNL     1       1.994   4.638  20.616  0.00  0.00    +0.000 S 
ATOM     31  C   UNL     1       2.797   3.128  20.637  0.00  0.00    +0.000 A 
ATOM     32  N   UNL     1       3.578   2.876  19.611  0.00  0.00    +0.000 NA
ATOM     33  C   UNL     1       3.543   3.938  18.722  0.00  0.00    +0.000 A 
ATOM     34  C   UNL     1       4.355   3.848  17.479  0.00  0.00    +0.000 C 
ENDBRANCH  28  29
ENDBRANCH  27  28
ENDBRANCH   5  27
TORSDOF 7
ENDMDL
MODEL 3
REMARK VINA RESULT:      -7.1      1.012      1.252
REMARK  Name = 
REMARK  10 active torsions:
REMARK  status: ('A' for Active; 'I' for Inactive)
REMARK    1  A    between atoms: C_1  and  C_2
REMARK    2  A    between atoms: C_2  and  C_3
REMARK    3  A    between atoms: C_3  and  C_4
REMARK    4  A    between atoms: C_8  and  C_10
REMARK    5  A    between atoms: C_10  and  C_11
REMARK    6  A    between atoms: C_16  and  C_17
REMARK    7  A    between atoms: N_23  and  C_24
REMARK    8  A    between atoms: C_24  and  C_25
REMARK    9  A    between atoms: C_25  and  C_26
REMARK   10  A    between atoms: C_30  and  C_31
REMARK                            x       y       z     vdW  Elec       q    Type
REMARK                         _______ _______ _______ _____ _____    ______ ____
ROOT
ATOM      1  C   UNL     1       0.175  10.760  18.977  0.00  0.00    +0.000 C 
ATOM      2  N   UNL     1      -0.286   9.976  20.111  0.00  0.00    +0.000 N 
ATOM      3  C   UNL     1       0.462   8.850  20.349  0.00  0.00    +0.000 C 
ATOM      4  O   UNL     1       0.275   8.136  21.312  0.00  0.00    +0.000 OA
ATOM      5  N   UNL     1       1.398   8.734  19.367  0.00  0.00    +0.000 N 
ATOM      6  C   UNL     1       1.275   9.773  18.490  0.00  0.00    +0.000 C 
ATOM      7  O   UNL     1       1.938   9.892  17.466  0.00  0.00    +0.000 OA
ATOM      8  H   UNL     1      -1.006  10.252  20.763  0.00  0.00    +0.000 HD
ENDROOT
BRANCH   1   9
ATOM      9  C   UNL     1       0.623  12.169  19.508  0.00  0.00    +0.000 C 
ATOM     10  C   UNL     1       0.782  12.330  21.026  0.00  0.00    +0.000 C 
ATOM     11  C   UNL     1      -0.544  12.286  21.766  0.00  0.00    +0.000 C 
ATOM     12  N   UNL     1      -1.636  13.043  21.141  0.00  0.00    +0.000 N 
ATOM     13  C   UNL     1      -2.871  12.959  21.800  0.00  0.00    +0.000 C 
ATOM     14  O   UNL     1      -2.997  12.337  22.860  0.00  0.00    +0.000 OA
ATOM     15  C   UNL     1      -1.587  13.404  19.730  0.00  0.00    +0.000 C 
ATOM     16  C   UNL     1      -0.228  13.365  19.061  0.00  0.00    +0.000 C 
BRANCH  13  17
ATOM     17  C   UNL     1      -4.077  13.685  21.188  0.00  0.00    +0.000 C 
BRANCH  17  18
ATOM     18  C   UNL     1      -5.137  12.734  20.665  0.00  0.00    +0.000 A 
ATOM     19  C   UNL     1      -4.946  12.213  19.370  0.00  0.00    +0.000 A 
ATOM     20  C   UNL     1      -5.871  11.351  18.790  0.00  0.00    +0.000 A 
ATOM     21  C   UNL     1      -7.010  10.989  19.498  0.00  0.00    +0.000 A 
ATOM     22  C   UNL     1      -7.220  11.494  20.781  0.00  0.00    +0.000 A 
ATOM     23  C   UNL     1      -6.302  12.378  21.377  0.00  0.00    +0.000 A 
ATOM     24  C   UNL     1      -6.620  12.872  22.761  0.00  0.00    +0.000 C 
ENDBRANCH  17  18
ENDBRANCH  13  17
ENDBRANCH   1   9
BRANCH   1  26
ATOM     25  C   UNL     1      -2.179  10.006  18.191  0.00  0.00    +0.000 C 
ATOM     26  C   UNL     1      -0.961  10.889  17.940  0.00  0.00    +0.000 C 
ENDBRANCH   1  26
BRANCH   5  27
ATOM     27  C   UNL     1       2.498   7.779  19.342  0.00  0.00    +0.000 C 
BRANCH  27  28
ATOM     28  C   UNL     1       2.386   6.690  18.273  0.00  0.00    +0.000 C 
BRANCH  28  29
ATOM     29  C   UNL     1       3.521   5.717  18.347  0.00  0.00    +0.000 A 
ATOM     30  S   UNL     1       3.534   4.475  19.536  0.00  0.00    +0.000 S 
ATOM     31  C   UNL     1       5.009   3.895  18.894  0.00  0.00    +0.000 A 
ATOM     32  N   UNL     1       5.497   4.564  17.874  0.00  0.00    +0.000 NA
ATOM     33  C   UNL     1       4.649   5.610  17.548  0.00  0.00    +0.000 A 
ATOM     34  C   UNL     1       5.013   6.489  16.406  0.00  0.00    +0.000 C 
ENDBRANCH  28  29
ENDBRANCH  27  28
ENDBRANCH   5  27
TORSDOF 7
ENDMDL
MODEL 4
REMARK VINA RESULT:      -7.1      1.260      1.868
REMARK  Name = 
REMARK  10 active torsions:
REMARK  status: ('A' for Active; 'I' for Inactive)
REMARK    1  A    between atoms: C_1  and  C_2
REMARK    2  A    between atoms: C_2  and  C_3
REMARK    3  A    between atoms: C_3  and  C_4
REMARK    4  A    between atoms: C_8  and  C_10
REMARK    5  A    between atoms: C_10  and  C_11
REMARK    6  A    between atoms: C_16  and  C_17
REMARK    7  A    between atoms: N_23  and  C_24
REMARK    8  A    between atoms: C_24  and  C_25
REMARK    9  A    between atoms: C_25  and  C_26
REMARK   10  A    between atoms: C_30  and  C_31
REMARK                            x       y       z     vdW  Elec       q    Type
REMARK                         _______ _______ _______ _____ _____    ______ ____
ROOT
ATOM      1  C   UNL     1       0.332  10.442  18.895  0.00  0.00    +0.000 C 
ATOM      2  N   UNL     1      -0.080   9.729  20.093  0.00  0.00    +0.000 N 
ATOM      3  C   UNL     1       0.673   8.613  20.364  0.00  0.00    +0.000 C 
ATOM      4  O   UNL     1       0.529   7.959  21.374  0.00  0.00    +0.000 OA
ATOM      5  N   UNL     1       1.562   8.433  19.348  0.00  0.00    +0.000 N 
ATOM      6  C   UNL     1       1.403   9.419  18.417  0.00  0.00    +0.000 C 
ATOM      7  O   UNL     1       2.017   9.472  17.357  0.00  0.00    +0.000 OA
ATOM      8  H   UNL     1      -0.767  10.048  20.761  0.00  0.00    +0.000 HD
ENDROOT
BRANCH   1   9
ATOM      9  C   UNL     1       0.811  11.876  19.320  0.00  0.00    +0.000 C 
ATOM     10  C   UNL     1       0.924  12.162  20.823  0.00  0.00    +0.000 C 
ATOM     11  C   UNL     1      -0.428  12.225  21.515  0.00  0.00    +0.000 C 
ATOM     12  N   UNL     1      -1.470  12.960  20.789  0.00  0.00    +0.000 N 
ATOM     13  C   UNL     1      -2.729  12.973  21.406  0.00  0.00    +0.000 C 
ATOM     14  O   UNL     1      -2.913  12.450  22.510  0.00  0.00    +0.000 OA
ATOM     15  C   UNL     1      -1.360  13.196  19.354  0.00  0.00    +0.000 C 
ATOM     16  C   UNL     1       0.018  13.055  18.742  0.00  0.00    +0.000 C 
BRANCH  13  17
ATOM     17  C   UNL     1      -3.887  13.683  20.690  0.00  0.00    +0.000 C 
BRANCH  17  18
ATOM     18  C   UNL     1      -5.154  12.850  20.647  0.00  0.00    +0.000 A 
ATOM     19  C   UNL     1      -5.983  12.886  21.786  0.00  0.00    +0.000 A 
ATOM     20  C   UNL     1      -7.155  12.141  21.856  0.00  0.00    +0.000 A 
ATOM     21  C   UNL     1      -7.525  11.340  20.782  0.00  0.00    +0.000 A 
ATOM     22  C   UNL     1      -6.718  11.288  19.646  0.00  0.00    +0.000 A 
ATOM     23  C   UNL     1      -5.522  12.024  19.563  0.00  0.00    +0.000 A 
ATOM     24  C   UNL     1      -4.719  11.896  18.299  0.00  0.00    +0.000 C 
ENDBRANCH  17  18
ENDBRANCH  13  17
ENDBRANCH   1   9
BRANCH   1  26
ATOM     25  C   UNL     1      -2.096   9.735  18.315  0.00  0.00    +0.000 C 
ATOM     26  C   UNL     1      -0.851  10.518  17.907  0.00  0.00    +0.000 C 
ENDBRANCH   1  26
BRANCH   5  27
ATOM     27  C   UNL     1       2.655   7.470  19.327  0.00  0.00    +0.000 C 
BRANCH  27  28
ATOM     28  C   UNL     1       2.475   6.306  18.350  0.00  0.00    +0.000 C 
BRANCH  28  29
ATOM     29  C   UNL     1       3.038   5.030  18.893  0.00  0.00    +0.000 A 
ATOM     30  S   UNL     1       4.595   4.485  18.409  0.00  0.00    +0.000 S 
ATOM     31  C   UNL     1       4.435   3.141  19.455  0.00  0.00    +0.000 A 
ATOM     32  N   UNL     1       3.306   3.062  20.124  0.00  0.00    +0.000 NA
ATOM     33  C   UNL     1       2.498   4.144  19.812  0.00  0.00    +0.000 A 
ATOM     34  C   UNL     1       1.171   4.252  20.474  0.00  0.00    +0.000 C 
ENDBRANCH  28  29
ENDBRANCH  27  28
ENDBRANCH   5  27
TORSDOF 7
ENDMDL
MODEL 5
REMARK VINA RESULT:      -7.1      1.264      1.402
REMARK  Name = 
REMARK  10 active torsions:
REMARK  status: ('A' for Active; 'I' for Inactive)
REMARK    1  A    between atoms: C_1  and  C_2
REMARK    2  A    between atoms: C_2  and  C_3
REMARK    3  A    between atoms: C_3  and  C_4
REMARK    4  A    between atoms: C_8  and  C_10
REMARK    5  A    between atoms: C_10  and  C_11
REMARK    6  A    between atoms: C_16  and  C_17
REMARK    7  A    between atoms: N_23  and  C_24
REMARK    8  A    between atoms: C_24  and  C_25
REMARK    9  A    between atoms: C_25  and  C_26
REMARK   10  A    between atoms: C_30  and  C_31
REMARK                            x       y       z     vdW  Elec       q    Type
REMARK                         _______ _______ _______ _____ _____    ______ ____
ROOT
ATOM      1  C   UNL     1       0.202  10.644  19.215  0.00  0.00    +0.000 C 
ATOM      2  N   UNL     1      -0.091   9.754  20.326  0.00  0.00    +0.000 N 
ATOM      3  C   UNL     1       0.721   8.649  20.383  0.00  0.00    +0.000 C 
ATOM      4  O   UNL     1       0.678   7.854  21.298  0.00  0.00    +0.000 OA
ATOM      5  N   UNL     1       1.537   8.653  19.292  0.00  0.00    +0.000 N 
ATOM      6  C   UNL     1       1.272   9.750  18.524  0.00  0.00    +0.000 C 
ATOM      7  O   UNL     1       1.802   9.979  17.442  0.00  0.00    +0.000 OA
ATOM      8  H   UNL     1      -0.738   9.944  21.078  0.00  0.00    +0.000 HD
ENDROOT
BRANCH   1   9
ATOM      9  C   UNL     1       0.657  12.027  19.805  0.00  0.00    +0.000 C 
ATOM     10  C   UNL     1       0.727  12.151  21.332  0.00  0.00    +0.000 C 
ATOM     11  C   UNL     1      -0.644  12.132  21.988  0.00  0.00    +0.000 C 
ATOM     12  N   UNL     1      -1.672  12.935  21.316  0.00  0.00    +0.000 N 
ATOM     13  C   UNL     1      -2.947  12.876  21.895  0.00  0.00    +0.000 C 
ATOM     14  O   UNL     1      -3.158  12.236  22.931  0.00  0.00    +0.000 OA
ATOM     15  C   UNL     1      -1.525  13.325  19.919  0.00  0.00    +0.000 C 
ATOM     16  C   UNL     1      -0.128  13.257  19.334  0.00  0.00    +0.000 C 
BRANCH  13  17
ATOM     17  C   UNL     1      -4.091  13.652  21.227  0.00  0.00    +0.000 C 
BRANCH  17  18
ATOM     18  C   UNL     1      -5.169  12.747  20.663  0.00  0.00    +0.000 A 
ATOM     19  C   UNL     1      -4.968  12.245  19.362  0.00  0.00    +0.000 A 
ATOM     20  C   UNL     1      -5.907  11.425  18.746  0.00  0.00    +0.000 A 
ATOM     21  C   UNL     1      -7.073  11.087  19.423  0.00  0.00    +0.000 A 
ATOM     22  C   UNL     1      -7.293  11.574  20.711  0.00  0.00    +0.000 A 
ATOM     23  C   UNL     1      -6.361  12.415  21.344  0.00  0.00    +0.000 A 
ATOM     24  C   UNL     1      -6.692  12.893  22.730  0.00  0.00    +0.000 C 
ENDBRANCH  17  18
ENDBRANCH  13  17
ENDBRANCH   1   9
BRANCH   1  26
ATOM     25  C   UNL     1      -1.357   9.621  17.412  0.00  0.00    +0.000 C 
ATOM     26  C   UNL     1      -1.054  10.800  18.331  0.00  0.00    +0.000 C 
ENDBRANCH   1  26
BRANCH   5  27
ATOM     27  C   UNL     1       2.661   7.755  19.060  0.00  0.00    +0.000 C 
BRANCH  27  28
ATOM     28  C   UNL     1       2.339   6.517  18.221  0.00  0.00    +0.000 C 
BRANCH  28  29
ATOM     29  C   UNL     1       2.996   5.288  18.766  0.00  0.00    +0.000 A 
ATOM     30  S   UNL     1       4.552   4.810  18.213  0.00  0.00    +0.000 S 
ATOM     31  C   UNL     1       4.519   3.490  19.301  0.00  0.00    +0.000 A 
ATOM     32  N   UNL     1       3.433   3.373  20.032  0.00  0.00    +0.000 NA
ATOM     33  C   UNL     1       2.553   4.402  19.736  0.00  0.00    +0.000 A 
ATOM     34  C   UNL     1       1.259   4.461  20.467  0.00  0.00    +0.000 C 
ENDBRANCH  28  29
ENDBRANCH  27  28
ENDBRANCH   5  27
TORSDOF 7
ENDMDL
MODEL 6
REMARK VINA RESULT:      -6.9      0.477      1.289
REMARK  Name = 
REMARK  10 active torsions:
REMARK  status: ('A' for Active; 'I' for Inactive)
REMARK    1  A    between atoms: C_1  and  C_2
REMARK    2  A    between atoms: C_2  and  C_3
REMARK    3  A    between atoms: C_3  and  C_4
REMARK    4  A    between atoms: C_8  and  C_10
REMARK    5  A    between atoms: C_10  and  C_11
REMARK    6  A    between atoms: C_16  and  C_17
REMARK    7  A    between atoms: N_23  and  C_24
REMARK    8  A    between atoms: C_24  and  C_25
REMARK    9  A    between atoms: C_25  and  C_26
REMARK   10  A    between atoms: C_30  and  C_31
REMARK                            x       y       z     vdW  Elec       q    Type
REMARK                         _______ _______ _______ _____ _____    ______ ____
ROOT
ATOM      1  C   UNL     1       0.483  10.411  18.950  0.00  0.00    +0.000 C 
ATOM      2  N   UNL     1       0.171   9.601  20.116  0.00  0.00    +0.000 N 
ATOM      3  C   UNL     1       0.959   8.484  20.246  0.00  0.00    +0.000 C 
ATOM      4  O   UNL     1       0.898   7.752  21.211  0.00  0.00    +0.000 OA
ATOM      5  N   UNL     1       1.775   8.400  19.159  0.00  0.00    +0.000 N 
ATOM      6  C   UNL     1       1.534   9.450  18.321  0.00  0.00    +0.000 C 
ATOM      7  O   UNL     1       2.070   9.597  17.228  0.00  0.00    +0.000 OA
ATOM      8  H   UNL     1      -0.472   9.853  20.853  0.00  0.00    +0.000 HD
ENDROOT
BRANCH   1   9
ATOM      9  C   UNL     1       0.969  11.818  19.450  0.00  0.00    +0.000 C 
ATOM     10  C   UNL     1       1.028  12.044  20.966  0.00  0.00    +0.000 C 
ATOM     11  C   UNL     1      -0.348  12.104  21.608  0.00  0.00    +0.000 C 
ATOM     12  N   UNL     1      -1.349  12.885  20.872  0.00  0.00    +0.000 N 
ATOM     13  C   UNL     1      -2.631  12.896  21.441  0.00  0.00    +0.000 C 
ATOM     14  O   UNL     1      -2.866  12.334  22.515  0.00  0.00    +0.000 OA
ATOM     15  C   UNL     1      -1.181  13.175  19.453  0.00  0.00    +0.000 C 
ATOM     16  C   UNL     1       0.218  13.033  18.889  0.00  0.00    +0.000 C 
BRANCH  13  17
ATOM     17  C   UNL     1      -3.749  13.653  20.710  0.00  0.00    +0.000 C 
BRANCH  17  18
ATOM     18  C   UNL     1      -5.049  12.874  20.651  0.00  0.00    +0.000 A 
ATOM     19  C   UNL     1      -5.896  12.955  21.775  0.00  0.00    +0.000 A 
ATOM     20  C   UNL     1      -7.100  12.261  21.829  0.00  0.00    +0.000 A 
ATOM     21  C   UNL     1      -7.484  11.468  20.755  0.00  0.00    +0.000 A 
ATOM     22  C   UNL     1      -6.661  11.372  19.634  0.00  0.00    +0.000 A 
ATOM     23  C   UNL     1      -5.434  12.056  19.567  0.00  0.00    +0.000 A 
ATOM     24  C   UNL     1      -4.615  11.883  18.319  0.00  0.00    +0.000 C 
ENDBRANCH  17  18
ENDBRANCH  13  17
ENDBRANCH   1   9
BRANCH   1  26
ATOM     25  C   UNL     1      -1.967   9.696  18.488  0.00  0.00    +0.000 C 
ATOM     26  C   UNL     1      -0.769  10.536  18.057  0.00  0.00    +0.000 C 
ENDBRANCH   1  26
BRANCH   5  27
ATOM     27  C   UNL     1       2.879   7.465  18.988  0.00  0.00    +0.000 C 
BRANCH  27  28
ATOM     28  C   UNL     1       2.478   6.070  18.506  0.00  0.00    +0.000 C 
BRANCH  28  29
ATOM     29  C   UNL     1       3.571   5.415  17.722  0.00  0.00    +0.000 A 
ATOM     30  S   UNL     1       5.004   6.279  17.328  0.00  0.00    +0.000 S 
ATOM     31  C   UNL     1       5.622   4.879  16.563  0.00  0.00    +0.000 A 
ATOM     32  N   UNL     1       4.837   3.825  16.568  0.00  0.00    +0.000 NA
ATOM     33  C   UNL     1       3.658   4.120  17.234  0.00  0.00    +0.000 A 
ATOM     34  C   UNL     1       2.631   3.052  17.364  0.00  0.00    +0.000 C 
ENDBRANCH  28  29
ENDBRANCH  27  28
ENDBRANCH   5  27
TORSDOF 7
ENDMDL
MODEL 7
REMARK VINA RESULT:      -6.8      1.438      1.819
REMARK  Name = 
REMARK  10 active torsions:
REMARK  status: ('A' for Active; 'I' for Inactive)
REMARK    1  A    between atoms: C_1  and  C_2
REMARK    2  A    between atoms: C_2  and  C_3
REMARK    3  A    between atoms: C_3  and  C_4
REMARK    4  A    between atoms: C_8  and  C_10
REMARK    5  A    between atoms: C_10  and  C_11
REMARK    6  A    between atoms: C_16  and  C_17
REMARK    7  A    between atoms: N_23  and  C_24
REMARK    8  A    between atoms: C_24  and  C_25
REMARK    9  A    between atoms: C_25  and  C_26
REMARK   10  A    between atoms: C_30  and  C_31
REMARK                            x       y       z     vdW  Elec       q    Type
REMARK                         _______ _______ _______ _____ _____    ______ ____
ROOT
ATOM      1  C   UNL     1      -0.280  11.496  19.531  0.00  0.00    +0.000 C 
ATOM      2  N   UNL     1      -0.897  10.569  20.465  0.00  0.00    +0.000 N 
ATOM      3  C   UNL     1      -0.167   9.426  20.679  0.00  0.00    +0.000 C 
ATOM      4  O   UNL     1      -0.486   8.592  21.499  0.00  0.00    +0.000 OA
ATOM      5  N   UNL     1       0.919   9.445  19.856  0.00  0.00    +0.000 N 
ATOM      6  C   UNL     1       0.911  10.588  19.110  0.00  0.00    +0.000 C 
ATOM      7  O   UNL     1       1.727  10.842  18.231  0.00  0.00    +0.000 OA
ATOM      8  H   UNL     1      -1.720  10.753  21.021  0.00  0.00    +0.000 HD
ENDROOT
BRANCH   1   9
ATOM      9  C   UNL     1       0.037  12.827  20.303  0.00  0.00    +0.000 C 
ATOM     10  C   UNL     1       0.168  12.741  21.829  0.00  0.00    +0.000 C 
ATOM     11  C   UNL     1      -1.156  12.458  22.519  0.00  0.00    +0.000 C 
ATOM     12  N   UNL     1      -2.304  13.214  22.006  0.00  0.00    +0.000 N 
ATOM     13  C   UNL     1      -3.533  12.915  22.611  0.00  0.00    +0.000 C 
ATOM     14  O   UNL     1      -3.614  12.114  23.548  0.00  0.00    +0.000 OA
ATOM     15  C   UNL     1      -2.275  13.814  20.677  0.00  0.00    +0.000 C 
ATOM     16  C   UNL     1      -0.912  14.004  20.044  0.00  0.00    +0.000 C 
BRANCH  13  17
ATOM     17  C   UNL     1      -4.793  13.629  22.102  0.00  0.00    +0.000 C 
BRANCH  17  18
ATOM     18  C   UNL     1      -5.835  12.672  21.556  0.00  0.00    +0.000 A 
ATOM     19  C   UNL     1      -5.609  12.146  20.268  0.00  0.00    +0.000 A 
ATOM     20  C   UNL     1      -6.514  11.278  19.668  0.00  0.00    +0.000 A 
ATOM     21  C   UNL     1      -7.671  10.915  20.347  0.00  0.00    +0.000 A 
ATOM     22  C   UNL     1      -7.916  11.425  21.622  0.00  0.00    +0.000 A 
ATOM     23  C   UNL     1      -7.017  12.315  22.238  0.00  0.00    +0.000 A 
ATOM     24  C   UNL     1      -7.374  12.813  23.611  0.00  0.00    +0.000 C 
ENDBRANCH  17  18
ENDBRANCH  13  17
ENDBRANCH   1   9
BRANCH   1  26
ATOM     25  C   UNL     1      -2.343  10.716  18.166  0.00  0.00    +0.000 C 
ATOM     26  C   UNL     1      -1.237  11.751  18.348  0.00  0.00    +0.000 C 
ENDBRANCH   1  26
BRANCH   5  27
ATOM     27  C   UNL     1       2.034   8.508  19.890  0.00  0.00    +0.000 C 
BRANCH  27  28
ATOM     28  C   UNL     1       1.688   7.105  20.392  0.00  0.00    +0.000 C 
BRANCH  28  29
ATOM     29  C   UNL     1       2.234   6.040  19.493  0.00  0.00    +0.000 A 
ATOM     30  S   UNL     1       3.429   6.417  18.315  0.00  0.00    +0.000 S 
ATOM     31  C   UNL     1       3.477   4.770  17.857  0.00  0.00    +0.000 A 
ATOM     32  N   UNL     1       2.663   3.967  18.504  0.00  0.00    +0.000 NA
ATOM     33  C   UNL     1       1.947   4.685  19.449  0.00  0.00    +0.000 A 
ATOM     34  C   UNL     1       0.972   3.957  20.303  0.00  0.00    +0.000 C 
ENDBRANCH  28  29
ENDBRANCH  27  28
ENDBRANCH   5  27
TORSDOF 7
ENDMDL
MODEL 8
REMARK VINA RESULT:      -6.6      1.607      2.547
REMARK  Name = 
REMARK  10 active torsions:
REMARK  status: ('A' for Active; 'I' for Inactive)
REMARK    1  A    between atoms: C_1  and  C_2
REMARK    2  A    between atoms: C_2  and  C_3
REMARK    3  A    between atoms: C_3  and  C_4
REMARK    4  A    between atoms: C_8  and  C_10
REMARK    5  A    between atoms: C_10  and  C_11
REMARK    6  A    between atoms: C_16  and  C_17
REMARK    7  A    between atoms: N_23  and  C_24
REMARK    8  A    between atoms: C_24  and  C_25
REMARK    9  A    between atoms: C_25  and  C_26
REMARK   10  A    between atoms: C_30  and  C_31
REMARK                            x       y       z     vdW  Elec       q    Type
REMARK                         _______ _______ _______ _____ _____    ______ ____
ROOT
ATOM      1  C   UNL     1      -0.050  10.660  19.151  0.00  0.00    +0.000 C 
ATOM      2  N   UNL     1      -0.670   9.917  20.235  0.00  0.00    +0.000 N 
ATOM      3  C   UNL     1       0.041   8.811  20.630  0.00  0.00    +0.000 C 
ATOM      4  O   UNL     1      -0.282   8.134  21.583  0.00  0.00    +0.000 OA
ATOM      5  N   UNL     1       1.114   8.668  19.804  0.00  0.00    +0.000 N 
ATOM      6  C   UNL     1       1.117   9.669  18.876  0.00  0.00    +0.000 C 
ATOM      7  O   UNL     1       1.925   9.755  17.957  0.00  0.00    +0.000 OA
ATOM      8  H   UNL     1      -1.482  10.209  20.760  0.00  0.00    +0.000 HD
ENDROOT
BRANCH   1   9
ATOM      9  C   UNL     1       0.303  12.095  19.683  0.00  0.00    +0.000 C 
ATOM     10  C   UNL     1       0.389  12.280  21.204  0.00  0.00    +0.000 C 
ATOM     11  C   UNL     1      -0.964  12.176  21.888  0.00  0.00    +0.000 C 
ATOM     12  N   UNL     1      -2.064  12.870  21.209  0.00  0.00    +0.000 N 
ATOM     13  C   UNL     1      -3.321  12.730  21.815  0.00  0.00    +0.000 C 
ATOM     14  O   UNL     1      -3.461  12.114  22.877  0.00  0.00    +0.000 OA
ATOM     15  C   UNL     1      -1.973  13.219  19.796  0.00  0.00    +0.000 C 
ATOM     16  C   UNL     1      -0.587  13.241  19.186  0.00  0.00    +0.000 C 
BRANCH  13  17
ATOM     17  C   UNL     1      -4.535  13.388  21.145  0.00  0.00    +0.000 C 
BRANCH  17  18
ATOM     18  C   UNL     1      -5.748  13.453  22.052  0.00  0.00    +0.000 A 
ATOM     19  C   UNL     1      -5.738  14.429  23.068  0.00  0.00    +0.000 A 
ATOM     20  C   UNL     1      -6.792  14.555  23.966  0.00  0.00    +0.000 A 
ATOM     21  C   UNL     1      -7.886  13.703  23.865  0.00  0.00    +0.000 A 
ATOM     22  C   UNL     1      -7.916  12.729  22.868  0.00  0.00    +0.000 A 
ATOM     23  C   UNL     1      -6.852  12.578  21.960  0.00  0.00    +0.000 A 
ATOM     24  C   UNL     1      -6.977  11.494  20.926  0.00  0.00    +0.000 C 
ENDBRANCH  17  18
ENDBRANCH  13  17
ENDBRANCH   1   9
BRANCH   1  26
ATOM     25  C   UNL     1      -2.345  10.000  18.138  0.00  0.00    +0.000 C 
ATOM     26  C   UNL     1      -1.019  10.732  17.952  0.00  0.00    +0.000 C 
ENDBRANCH   1  26
BRANCH   5  27
ATOM     27  C   UNL     1       2.213   7.728  19.983  0.00  0.00    +0.000 C 
BRANCH  27  28
ATOM     28  C   UNL     1       2.368   6.693  18.867  0.00  0.00    +0.000 C 
BRANCH  28  29
ATOM     29  C   UNL     1       2.712   5.339  19.406  0.00  0.00    +0.000 A 
ATOM     30  S   UNL     1       1.796   4.647  20.685  0.00  0.00    +0.000 S 
ATOM     31  C   UNL     1       2.769   3.243  20.604  0.00  0.00    +0.000 A 
ATOM     32  N   UNL     1       3.730   3.258  19.708  0.00  0.00    +0.000 NA
ATOM     33  C   UNL     1       3.704   4.455  19.011  0.00  0.00    +0.000 A 
ATOM     34  C   UNL     1       4.709   4.671  17.936  0.00  0.00    +0.000 C 
ENDBRANCH  28  29
ENDBRANCH  27  28
ENDBRANCH   5  27
TORSDOF 7
ENDMDL
MODEL 9
REMARK VINA RESULT:      -6.6      0.948      1.251
REMARK  Name = 
REMARK  10 active torsions:
REMARK  status: ('A' for Active; 'I' for Inactive)
REMARK    1  A    between atoms: C_1  and  C_2
REMARK    2  A    between atoms: C_2  and  C_3
REMARK    3  A    between atoms: C_3  and  C_4
REMARK    4  A    between atoms: C_8  and  C_10
REMARK    5  A    between atoms: C_10  and  C_11
REMARK    6  A    between atoms: C_16  and  C_17
REMARK    7  A    between atoms: N_23  and  C_24
REMARK    8  A    between atoms: C_24  and  C_25
REMARK    9  A    between atoms: C_25  and  C_26
REMARK   10  A    between atoms: C_30  and  C_31
REMARK                            x       y       z     vdW  Elec       q    Type
REMARK                         _______ _______ _______ _____ _____    ______ ____
ROOT
ATOM      1  C   UNL     1       0.129  10.299  19.252  0.00  0.00    +0.000 C 
ATOM      2  N   UNL     1       0.140   9.614  20.534  0.00  0.00    +0.000 N 
ATOM      3  C   UNL     1       1.043   8.583  20.607  0.00  0.00    +0.000 C 
ATOM      4  O   UNL     1       1.251   7.969  21.632  0.00  0.00    +0.000 OA
ATOM      5  N   UNL     1       1.625   8.429  19.386  0.00  0.00    +0.000 N 
ATOM      6  C   UNL     1       1.118   9.350  18.515  0.00  0.00    +0.000 C 
ATOM      7  O   UNL     1       1.404   9.402  17.324  0.00  0.00    +0.000 OA
ATOM      8  H   UNL     1      -0.361   9.906  21.361  0.00  0.00    +0.000 HD
ENDROOT
BRANCH   1   9
ATOM      9  C   UNL     1       0.567  11.788  19.491  0.00  0.00    +0.000 C 
ATOM     10  C   UNL     1       0.675  12.265  20.944  0.00  0.00    +0.000 C 
ATOM     11  C   UNL     1      -0.676  12.376  21.631  0.00  0.00    +0.000 C 
ATOM     12  N   UNL     1      -1.741  12.983  20.823  0.00  0.00    +0.000 N 
ATOM     13  C   UNL     1      -2.999  13.038  21.441  0.00  0.00    +0.000 C 
ATOM     14  O   UNL     1      -3.165  12.654  22.603  0.00  0.00    +0.000 OA
ATOM     15  C   UNL     1      -1.641  13.040  19.370  0.00  0.00    +0.000 C 
ATOM     16  C   UNL     1      -0.260  12.862  18.772  0.00  0.00    +0.000 C 
BRANCH  13  17
ATOM     17  C   UNL     1      -4.178  13.618  20.649  0.00  0.00    +0.000 C 
BRANCH  17  18
ATOM     18  C   UNL     1      -5.135  12.552  20.148  0.00  0.00    +0.000 A 
ATOM     19  C   UNL     1      -4.853  11.977  18.893  0.00  0.00    +0.000 A 
ATOM     20  C   UNL     1      -5.680  11.008  18.336  0.00  0.00    +0.000 A 
ATOM     21  C   UNL     1      -6.812  10.591  19.027  0.00  0.00    +0.000 A 
ATOM     22  C   UNL     1      -7.110  11.149  20.269  0.00  0.00    +0.000 A 
ATOM     23  C   UNL     1      -6.293  12.139  20.842  0.00  0.00    +0.000 A 
ATOM     24  C   UNL     1      -6.703  12.682  22.183  0.00  0.00    +0.000 C 
ENDBRANCH  17  18
ENDBRANCH  13  17
ENDBRANCH   1   9
BRANCH   1  26
ATOM     25  C   UNL     1      -1.337   9.808  17.170  0.00  0.00    +0.000 C 
ATOM     26  C   UNL     1      -1.284  10.223  18.637  0.00  0.00    +0.000 C 
ENDBRANCH   1  26
BRANCH   5  27
ATOM     27  C   UNL     1       2.757   7.563  19.080  0.00  0.00    +0.000 C 
BRANCH  27  28
ATOM     28  C   UNL     1       2.679   6.158  19.680  0.00  0.00    +0.000 C 
BRANCH  28  29
ATOM     29  C   UNL     1       2.934   5.098  18.654  0.00  0.00    +0.000 A 
ATOM     30  S   UNL     1       1.695   3.990  18.215  0.00  0.00    +0.000 S 
ATOM     31  C   UNL     1       2.756   3.275  17.080  0.00  0.00    +0.000 A 
ATOM     32  N   UNL     1       3.963   3.790  17.015  0.00  0.00    +0.000 NA
ATOM     33  C   UNL     1       4.075   4.841  17.912  0.00  0.00    +0.000 A 
ATOM     34  C   UNL     1       5.367   5.573  17.988  0.00  0.00    +0.000 C 
ENDBRANCH  28  29
ENDBRANCH  27  28
ENDBRANCH   5  27
TORSDOF 7
ENDMDL
