MODEL 1
REMARK VINA RESULT:      -7.8      0.000      0.000
REMARK  Name = 
REMARK  10 active torsions:
REMARK  status: ('A' for Active; 'I' for Inactive)
REMARK    1  A    between atoms: C_1  and  O_2
REMARK    2  A    between atoms: O_2  and  C_3
REMARK    3  A    between atoms: C_5  and  N_6
REMARK    4  A    between atoms: C_7  and  C_9
REMARK    5  A    between atoms: C_9  and  C_10
REMARK    6  A    between atoms: C_10  and  N_11
REMARK    7  A    between atoms: N_11  and  S_12
REMARK    8  A    between atoms: S_12  and  C_15
REMARK    9  A    between atoms: C_27  and  O_28
REMARK   10  A    between atoms: O_28  and  C_29
REMARK                            x       y       z     vdW  Elec       q    Type
REMARK                         _______ _______ _______ _____ _____    ______ ____
ROOT
ATOM      1  N   UNL     1       1.688   4.224  19.293  0.00  0.00    +0.000 NA
ATOM      2  H   UNL     1       0.719   4.582  19.225  0.00  0.00    +0.000 HD
ENDROOT
BRANCH   1   3
ATOM      3  S   UNL     1       2.660   5.290  20.203  0.00  0.00    +0.000 S 
ATOM      4  O   UNL     1       2.197   5.285  21.574  0.00  0.00    +0.000 OA
ATOM      5  O   UNL     1       4.037   5.046  19.847  0.00  0.00    +0.000 OA
BRANCH   3   6
ATOM      6  C   UNL     1       2.178   6.822  19.458  0.00  0.00    +0.000 A 
ATOM      7  C   UNL     1       2.544   7.216  18.170  0.00  0.00    +0.000 A 
ATOM      8  C   UNL     1       2.272   8.535  17.760  0.00  0.00    +0.000 A 
ATOM      9  C   UNL     1       1.678   9.440  18.655  0.00  0.00    +0.000 A 
ATOM     10  C   UNL     1       1.304   9.012  19.922  0.00  0.00    +0.000 A 
ATOM     11  C   UNL     1       1.510   7.697  20.301  0.00  0.00    +0.000 A 
ATOM     12  C   UNL     1       0.712   9.915  20.949  0.00  0.00    +0.000 C 
ATOM     13  C   UNL     1       0.646  11.374  20.573  0.00  0.00    +0.000 C 
ATOM     14  C   UNL     1       0.960  11.731  19.137  0.00  0.00    +0.000 C 
ATOM     15  O   UNL     1       0.811  12.883  18.733  0.00  0.00    +0.000 OA
ATOM     16  N   UNL     1       1.469  10.776  18.302  0.00  0.00    +0.000 N 
ATOM     17  H   UNL     1       1.701  11.104  17.376  0.00  0.00    +0.000 HD
ENDBRANCH   3   6
ENDBRANCH   1   3
BRANCH   1  18
ATOM     18  C   UNL     1       1.753   2.815  19.707  0.00  0.00    +0.000 C 
BRANCH  18  19
ATOM     19  C   UNL     1       2.576   1.966  18.754  0.00  0.00    +0.000 C 
BRANCH  19  21
ATOM     20  N   UNL     1       4.437   2.986  17.556  0.00  0.00    +0.000 N 
ATOM     21  C   UNL     1       3.077   2.722  17.544  0.00  0.00    +0.000 C 
ATOM     22  O   UNL     1       2.291   2.998  16.641  0.00  0.00    +0.000 OA
ATOM     23  H   UNL     1       5.007   2.524  18.253  0.00  0.00    +0.000 HD
BRANCH  20  26
ATOM     24  C   UNL     1       6.182   5.937  16.068  0.00  0.00    +0.000 A 
ATOM     25  C   UNL     1       5.471   5.145  16.971  0.00  0.00    +0.000 A 
ATOM     26  C   UNL     1       5.128   3.830  16.658  0.00  0.00    +0.000 A 
ATOM     27  C   UNL     1       5.526   3.307  15.423  0.00  0.00    +0.000 A 
ATOM     28  C   UNL     1       6.235   4.092  14.507  0.00  0.00    +0.000 A 
ATOM     29  C   UNL     1       6.555   5.413  14.831  0.00  0.00    +0.000 A 
BRANCH  24  31
ATOM     30  C   UNL     1       7.474   7.311  17.519  0.00  0.00    +0.000 C 
ATOM     31  O   UNL     1       6.466   7.194  16.527  0.00  0.00    +0.000 OA
ENDBRANCH  24  31
BRANCH  28  32
ATOM     32  O   UNL     1       6.567   3.462  13.335  0.00  0.00    +0.000 OA
ATOM     33  C   UNL     1       5.559   3.406  12.330  0.00  0.00    +0.000 C 
ENDBRANCH  28  32
ENDBRANCH  20  26
ENDBRANCH  19  21
ENDBRANCH  18  19
ENDBRANCH   1  18
TORSDOF 8
ENDMDL
MODEL 2
REMARK VINA RESULT:      -7.7      4.979      8.453
REMARK  Name = 
REMARK  10 active torsions:
REMARK  status: ('A' for Active; 'I' for Inactive)
REMARK    1  A    between atoms: C_1  and  O_2
REMARK    2  A    between atoms: O_2  and  C_3
REMARK    3  A    between atoms: C_5  and  N_6
REMARK    4  A    between atoms: C_7  and  C_9
REMARK    5  A    between atoms: C_9  and  C_10
REMARK    6  A    between atoms: C_10  and  N_11
REMARK    7  A    between atoms: N_11  and  S_12
REMARK    8  A    between atoms: S_12  and  C_15
REMARK    9  A    between atoms: C_27  and  O_28
REMARK   10  A    between atoms: O_28  and  C_29
REMARK                            x       y       z     vdW  Elec       q    Type
REMARK                         _______ _______ _______ _____ _____    ______ ____
ROOT
ATOM      1  N   UNL     1       7.437   6.346  16.657  0.00  0.00    +0.000 NA
ATOM      2  H   UNL     1       7.906   5.664  17.278  0.00  0.00    +0.000 HD
ENDROOT
BRANCH   1   3
ATOM      3  S   UNL     1       6.031   5.667  15.971  0.00  0.00    +0.000 S 
ATOM      4  O   UNL     1       5.250   6.726  15.370  0.00  0.00    +0.000 OA
ATOM      5  O   UNL     1       6.421   4.482  15.246  0.00  0.00    +0.000 OA
BRANCH   3   6
ATOM      6  C   UNL     1       5.214   5.144  17.452  0.00  0.00    +0.000 A 
ATOM      7  C   UNL     1       5.878   4.713  18.602  0.00  0.00    +0.000 A 
ATOM      8  C   UNL     1       5.127   4.134  19.642  0.00  0.00    +0.000 A 
ATOM      9  C   UNL     1       3.741   3.964  19.498  0.00  0.00    +0.000 A 
ATOM     10  C   UNL     1       3.105   4.425  18.352  0.00  0.00    +0.000 A 
ATOM     11  C   UNL     1       3.834   5.055  17.359  0.00  0.00    +0.000 A 
ATOM     12  C   UNL     1       1.649   4.245  18.096  0.00  0.00    +0.000 C 
ATOM     13  C   UNL     1       0.906   3.416  19.113  0.00  0.00    +0.000 C 
ATOM     14  C   UNL     1       1.646   3.059  20.383  0.00  0.00    +0.000 C 
ATOM     15  O   UNL     1       1.064   2.488  21.305  0.00  0.00    +0.000 OA
ATOM     16  N   UNL     1       2.983   3.321  20.480  0.00  0.00    +0.000 N 
ATOM     17  H   UNL     1       3.415   3.007  21.337  0.00  0.00    +0.000 HD
ENDBRANCH   3   6
ENDBRANCH   1   3
BRANCH   1  18
ATOM     18  C   UNL     1       7.250   7.663  17.285  0.00  0.00    +0.000 C 
BRANCH  18  19
ATOM     19  C   UNL     1       8.293   7.952  18.351  0.00  0.00    +0.000 C 
BRANCH  19  21
ATOM     20  N   UNL     1       9.404   9.728  19.596  0.00  0.00    +0.000 N 
ATOM     21  C   UNL     1       8.633   9.419  18.488  0.00  0.00    +0.000 C 
ATOM     22  O   UNL     1       8.266  10.203  17.616  0.00  0.00    +0.000 OA
ATOM     23  H   UNL     1       9.816   8.965  20.120  0.00  0.00    +0.000 HD
BRANCH  20  26
ATOM     24  C   UNL     1       9.415  12.867  21.624  0.00  0.00    +0.000 A 
ATOM     25  C   UNL     1       9.070  11.593  21.173  0.00  0.00    +0.000 A 
ATOM     26  C   UNL     1       9.701  11.027  20.066  0.00  0.00    +0.000 A 
ATOM     27  C   UNL     1      10.707  11.754  19.421  0.00  0.00    +0.000 A 
ATOM     28  C   UNL     1      11.060  13.036  19.861  0.00  0.00    +0.000 A 
ATOM     29  C   UNL     1      10.404  13.593  20.961  0.00  0.00    +0.000 A 
BRANCH  24  31
ATOM     30  C   UNL     1       8.767  14.659  23.049  0.00  0.00    +0.000 C 
ATOM     31  O   UNL     1       8.727  13.276  22.734  0.00  0.00    +0.000 OA
ENDBRANCH  24  31
BRANCH  28  32
ATOM     32  O   UNL     1      12.060  13.642  19.145  0.00  0.00    +0.000 OA
ATOM     33  C   UNL     1      12.333  13.114  17.851  0.00  0.00    +0.000 C 
ENDBRANCH  28  32
ENDBRANCH  20  26
ENDBRANCH  19  21
ENDBRANCH  18  19
ENDBRANCH   1  18
TORSDOF 8
ENDMDL
MODEL 3
REMARK VINA RESULT:      -7.5      4.666      8.148
REMARK  Name = 
REMARK  10 active torsions:
REMARK  status: ('A' for Active; 'I' for Inactive)
REMARK    1  A    between atoms: C_1  and  O_2
REMARK    2  A    between atoms: O_2  and  C_3
REMARK    3  A    between atoms: C_5  and  N_6
REMARK    4  A    between atoms: C_7  and  C_9
REMARK    5  A    between atoms: C_9  and  C_10
REMARK    6  A    between atoms: C_10  and  N_11
REMARK    7  A    between atoms: N_11  and  S_12
REMARK    8  A    between atoms: S_12  and  C_15
REMARK    9  A    between atoms: C_27  and  O_28
REMARK   10  A    between atoms: O_28  and  C_29
REMARK                            x       y       z     vdW  Elec       q    Type
REMARK                         _______ _______ _______ _____ _____    ______ ____
ROOT
ATOM      1  N   UNL     1       6.889   6.356  16.090  0.00  0.00    +0.000 NA
ATOM      2  H   UNL     1       7.721   6.634  15.541  0.00  0.00    +0.000 HD
ENDROOT
BRANCH   1   3
ATOM      3  S   UNL     1       6.867   4.667  16.333  0.00  0.00    +0.000 S 
ATOM      4  O   UNL     1       6.336   4.034  15.146  0.00  0.00    +0.000 OA
ATOM      5  O   UNL     1       8.132   4.288  16.917  0.00  0.00    +0.000 OA
BRANCH   3   6
ATOM      6  C   UNL     1       5.642   4.578  17.608  0.00  0.00    +0.000 A 
ATOM      7  C   UNL     1       5.925   4.650  18.973  0.00  0.00    +0.000 A 
ATOM      8  C   UNL     1       4.900   4.368  19.895  0.00  0.00    +0.000 A 
ATOM      9  C   UNL     1       3.629   3.984  19.436  0.00  0.00    +0.000 A 
ATOM     10  C   UNL     1       3.371   3.945  18.072  0.00  0.00    +0.000 A 
ATOM     11  C   UNL     1       4.360   4.288  17.167  0.00  0.00    +0.000 A 
ATOM     12  C   UNL     1       2.068   3.506  17.498  0.00  0.00    +0.000 C 
ATOM     13  C   UNL     1       1.061   2.983  18.492  0.00  0.00    +0.000 C 
ATOM     14  C   UNL     1       1.378   3.175  19.959  0.00  0.00    +0.000 C 
ATOM     15  O   UNL     1       0.550   2.881  20.820  0.00  0.00    +0.000 OA
ATOM     16  N   UNL     1       2.615   3.622  20.328  0.00  0.00    +0.000 N 
ATOM     17  H   UNL     1       2.767   3.675  21.325  0.00  0.00    +0.000 HD
ENDBRANCH   3   6
ENDBRANCH   1   3
BRANCH   1  18
ATOM     18  C   UNL     1       6.706   7.162  17.306  0.00  0.00    +0.000 C 
BRANCH  18  19
ATOM     19  C   UNL     1       8.024   7.507  17.978  0.00  0.00    +0.000 C 
BRANCH  19  21
ATOM     20  N   UNL     1       9.238   9.312  19.075  0.00  0.00    +0.000 N 
ATOM     21  C   UNL     1       8.236   8.991  18.175  0.00  0.00    +0.000 C 
ATOM     22  O   UNL     1       7.572   9.785  17.513  0.00  0.00    +0.000 OA
ATOM     23  H   UNL     1       9.851   8.571  19.394  0.00  0.00    +0.000 HD
BRANCH  20  26
ATOM     24  C   UNL     1       9.513  12.254  21.363  0.00  0.00    +0.000 A 
ATOM     25  C   UNL     1       9.193  10.983  20.887  0.00  0.00    +0.000 A 
ATOM     26  C   UNL     1       9.516  10.600  19.586  0.00  0.00    +0.000 A 
ATOM     27  C   UNL     1      10.188  11.512  18.764  0.00  0.00    +0.000 A 
ATOM     28  C   UNL     1      10.510  12.793  19.228  0.00  0.00    +0.000 A 
ATOM     29  C   UNL     1      10.163  13.164  20.529  0.00  0.00    +0.000 A 
BRANCH  24  31
ATOM     30  C   UNL     1       8.544  13.718  22.970  0.00  0.00    +0.000 C 
ATOM     31  O   UNL     1       9.155  12.474  22.666  0.00  0.00    +0.000 OA
ENDBRANCH  24  31
BRANCH  28  32
ATOM     32  O   UNL     1      11.168  13.590  18.327  0.00  0.00    +0.000 OA
ATOM     33  C   UNL     1      11.738  12.941  17.194  0.00  0.00    +0.000 C 
ENDBRANCH  28  32
ENDBRANCH  20  26
ENDBRANCH  19  21
ENDBRANCH  18  19
ENDBRANCH   1  18
TORSDOF 8
ENDMDL
MODEL 4
REMARK VINA RESULT:      -7.5      4.763      8.468
REMARK  Name = 
REMARK  10 active torsions:
REMARK  status: ('A' for Active; 'I' for Inactive)
REMARK    1  A    between atoms: C_1  and  O_2
REMARK    2  A    between atoms: O_2  and  C_3
REMARK    3  A    between atoms: C_5  and  N_6
REMARK    4  A    between atoms: C_7  and  C_9
REMARK    5  A    between atoms: C_9  and  C_10
REMARK    6  A    between atoms: C_10  and  N_11
REMARK    7  A    between atoms: N_11  and  S_12
REMARK    8  A    between atoms: S_12  and  C_15
REMARK    9  A    between atoms: C_27  and  O_28
REMARK   10  A    between atoms: O_28  and  C_29
REMARK                            x       y       z     vdW  Elec       q    Type
REMARK                         _______ _______ _______ _____ _____    ______ ____
ROOT
ATOM      1  N   UNL     1       7.319   6.007  16.880  0.00  0.00    +0.000 NA
ATOM      2  H   UNL     1       7.394   5.444  17.745  0.00  0.00    +0.000 HD
ENDROOT
BRANCH   1   3
ATOM      3  S   UNL     1       6.004   5.479  15.930  0.00  0.00    +0.000 S 
ATOM      4  O   UNL     1       5.591   6.563  15.065  0.00  0.00    +0.000 OA
ATOM      5  O   UNL     1       6.320   4.163  15.431  0.00  0.00    +0.000 OA
BRANCH   3   6
ATOM      6  C   UNL     1       4.790   5.290  17.205  0.00  0.00    +0.000 A 
ATOM      7  C   UNL     1       4.698   6.114  18.328  0.00  0.00    +0.000 A 
ATOM      8  C   UNL     1       3.825   5.747  19.369  0.00  0.00    +0.000 A 
ATOM      9  C   UNL     1       3.093   4.552  19.284  0.00  0.00    +0.000 A 
ATOM     10  C   UNL     1       3.187   3.765  18.144  0.00  0.00    +0.000 A 
ATOM     11  C   UNL     1       3.994   4.161  17.091  0.00  0.00    +0.000 A 
ATOM     12  C   UNL     1       2.483   2.461  17.988  0.00  0.00    +0.000 C 
ATOM     13  C   UNL     1       1.741   1.973  19.206  0.00  0.00    +0.000 C 
ATOM     14  C   UNL     1       1.590   2.944  20.357  0.00  0.00    +0.000 C 
ATOM     15  O   UNL     1       0.897   2.655  21.331  0.00  0.00    +0.000 OA
ATOM     16  N   UNL     1       2.279   4.123  20.337  0.00  0.00    +0.000 N 
ATOM     17  H   UNL     1       2.167   4.693  21.163  0.00  0.00    +0.000 HD
ENDBRANCH   3   6
ENDBRANCH   1   3
BRANCH   1  18
ATOM     18  C   UNL     1       7.364   7.455  17.131  0.00  0.00    +0.000 C 
BRANCH  18  19
ATOM     19  C   UNL     1       8.241   7.813  18.318  0.00  0.00    +0.000 C 
BRANCH  19  21
ATOM     20  N   UNL     1       9.370   9.630  19.485  0.00  0.00    +0.000 N 
ATOM     21  C   UNL     1       8.522   9.293  18.444  0.00  0.00    +0.000 C 
ATOM     22  O   UNL     1       8.043  10.067  17.618  0.00  0.00    +0.000 OA
ATOM     23  H   UNL     1       9.863   8.884  19.961  0.00  0.00    +0.000 HD
BRANCH  20  26
ATOM     24  C   UNL     1      10.618  13.147  19.682  0.00  0.00    +0.000 A 
ATOM     25  C   UNL     1      10.395  11.855  19.207  0.00  0.00    +0.000 A 
ATOM     26  C   UNL     1       9.646  10.937  19.944  0.00  0.00    +0.000 A 
ATOM     27  C   UNL     1       9.104  11.342  21.168  0.00  0.00    +0.000 A 
ATOM     28  C   UNL     1       9.324  12.635  21.659  0.00  0.00    +0.000 A 
ATOM     29  C   UNL     1      10.091  13.534  20.914  0.00  0.00    +0.000 A 
BRANCH  24  31
ATOM     30  C   UNL     1      10.729  14.334  17.622  0.00  0.00    +0.000 C 
ATOM     31  O   UNL     1      11.348  13.938  18.837  0.00  0.00    +0.000 OA
ENDBRANCH  24  31
BRANCH  28  32
ATOM     32  O   UNL     1       8.738  12.907  22.868  0.00  0.00    +0.000 OA
ATOM     33  C   UNL     1       8.180  11.802  23.572  0.00  0.00    +0.000 C 
ENDBRANCH  28  32
ENDBRANCH  20  26
ENDBRANCH  19  21
ENDBRANCH  18  19
ENDBRANCH   1  18
TORSDOF 8
ENDMDL
MODEL 5
REMARK VINA RESULT:      -7.5      2.537      7.489
REMARK  Name = 
REMARK  10 active torsions:
REMARK  status: ('A' for Active; 'I' for Inactive)
REMARK    1  A    between atoms: C_1  and  O_2
REMARK    2  A    between atoms: O_2  and  C_3
REMARK    3  A    between atoms: C_5  and  N_6
REMARK    4  A    between atoms: C_7  and  C_9
REMARK    5  A    between atoms: C_9  and  C_10
REMARK    6  A    between atoms: C_10  and  N_11
REMARK    7  A    between atoms: N_11  and  S_12
REMARK    8  A    between atoms: S_12  and  C_15
REMARK    9  A    between atoms: C_27  and  O_28
REMARK   10  A    between atoms: O_28  and  C_29
REMARK                            x       y       z     vdW  Elec       q    Type
REMARK                         _______ _______ _______ _____ _____    ______ ____
ROOT
ATOM      1  N   UNL     1       2.316   2.584  19.758  0.00  0.00    +0.000 NA
ATOM      2  H   UNL     1       1.586   1.891  19.518  0.00  0.00    +0.000 HD
ENDROOT
BRANCH   1   3
ATOM      3  S   UNL     1       3.829   2.102  19.133  0.00  0.00    +0.000 S 
ATOM      4  O   UNL     1       4.692   1.738  20.236  0.00  0.00    +0.000 OA
ATOM      5  O   UNL     1       3.585   1.223  18.014  0.00  0.00    +0.000 OA
BRANCH   3   6
ATOM      6  C   UNL     1       4.377   3.655  18.484  0.00  0.00    +0.000 A 
ATOM      7  C   UNL     1       3.940   4.196  17.274  0.00  0.00    +0.000 A 
ATOM      8  C   UNL     1       4.592   5.335  16.765  0.00  0.00    +0.000 A 
ATOM      9  C   UNL     1       5.687   5.884  17.451  0.00  0.00    +0.000 A 
ATOM     10  C   UNL     1       6.084   5.337  18.665  0.00  0.00    +0.000 A 
ATOM     11  C   UNL     1       5.400   4.259  19.198  0.00  0.00    +0.000 A 
ATOM     12  C   UNL     1       7.261   5.825  19.436  0.00  0.00    +0.000 C 
ATOM     13  C   UNL     1       8.087   6.891  18.760  0.00  0.00    +0.000 C 
ATOM     14  C   UNL     1       7.516   7.510  17.503  0.00  0.00    +0.000 C 
ATOM     15  O   UNL     1       8.077   8.465  16.967  0.00  0.00    +0.000 OA
ATOM     16  N   UNL     1       6.403   6.965  16.929  0.00  0.00    +0.000 N 
ATOM     17  H   UNL     1       6.113   7.402  16.066  0.00  0.00    +0.000 HD
ENDBRANCH   3   6
ENDBRANCH   1   3
BRANCH   1  18
ATOM     18  C   UNL     1       1.924   3.966  19.442  0.00  0.00    +0.000 C 
BRANCH  18  19
ATOM     19  C   UNL     1       2.041   4.891  20.640  0.00  0.00    +0.000 C 
BRANCH  19  21
ATOM     20  N   UNL     1       1.403   7.160  21.263  0.00  0.00    +0.000 N 
ATOM     21  C   UNL     1       1.970   6.359  20.285  0.00  0.00    +0.000 C 
ATOM     22  O   UNL     1       2.446   6.742  19.219  0.00  0.00    +0.000 OA
ATOM     23  H   UNL     1       1.243   6.755  22.178  0.00  0.00    +0.000 HD
BRANCH  20  26
ATOM     24  C   UNL     1       0.819  10.558  19.823  0.00  0.00    +0.000 A 
ATOM     25  C   UNL     1       1.219   9.226  19.932  0.00  0.00    +0.000 A 
ATOM     26  C   UNL     1       1.041   8.518  21.120  0.00  0.00    +0.000 A 
ATOM     27  C   UNL     1       0.435   9.163  22.204  0.00  0.00    +0.000 A 
ATOM     28  C   UNL     1       0.034  10.501  22.108  0.00  0.00    +0.000 A 
ATOM     29  C   UNL     1       0.236  11.200  20.915  0.00  0.00    +0.000 A 
BRANCH  24  31
ATOM     30  C   UNL     1       1.896  12.237  18.525  0.00  0.00    +0.000 C 
ATOM     31  O   UNL     1       1.035  11.110  18.589  0.00  0.00    +0.000 OA
ENDBRANCH  24  31
BRANCH  28  32
ATOM     32  O   UNL     1      -0.547  11.016  23.238  0.00  0.00    +0.000 OA
ATOM     33  C   UNL     1      -1.676  11.863  23.049  0.00  0.00    +0.000 C 
ENDBRANCH  28  32
ENDBRANCH  20  26
ENDBRANCH  19  21
ENDBRANCH  18  19
ENDBRANCH   1  18
TORSDOF 8
ENDMDL
MODEL 6
REMARK VINA RESULT:      -7.4      4.723      8.314
REMARK  Name = 
REMARK  10 active torsions:
REMARK  status: ('A' for Active; 'I' for Inactive)
REMARK    1  A    between atoms: C_1  and  O_2
REMARK    2  A    between atoms: O_2  and  C_3
REMARK    3  A    between atoms: C_5  and  N_6
REMARK    4  A    between atoms: C_7  and  C_9
REMARK    5  A    between atoms: C_9  and  C_10
REMARK    6  A    between atoms: C_10  and  N_11
REMARK    7  A    between atoms: N_11  and  S_12
REMARK    8  A    between atoms: S_12  and  C_15
REMARK    9  A    between atoms: C_27  and  O_28
REMARK   10  A    between atoms: O_28  and  C_29
REMARK                            x       y       z     vdW  Elec       q    Type
REMARK                         _______ _______ _______ _____ _____    ______ ____
ROOT
ATOM      1  N   UNL     1       6.628   6.890  16.128  0.00  0.00    +0.000 NA
ATOM      2  H   UNL     1       7.441   7.248  15.596  0.00  0.00    +0.000 HD
ENDROOT
BRANCH   1   3
ATOM      3  S   UNL     1       6.469   5.204  15.917  0.00  0.00    +0.000 S 
ATOM      4  O   UNL     1       5.669   4.957  14.739  0.00  0.00    +0.000 OA
ATOM      5  O   UNL     1       7.770   4.610  16.112  0.00  0.00    +0.000 OA
BRANCH   3   6
ATOM      6  C   UNL     1       5.492   4.829  17.345  0.00  0.00    +0.000 A 
ATOM      7  C   UNL     1       6.021   4.453  18.580  0.00  0.00    +0.000 A 
ATOM      8  C   UNL     1       5.147   3.987  19.580  0.00  0.00    +0.000 A 
ATOM      9  C   UNL     1       3.773   3.871  19.313  0.00  0.00    +0.000 A 
ATOM     10  C   UNL     1       3.272   4.275  18.083  0.00  0.00    +0.000 A 
ATOM     11  C   UNL     1       4.123   4.797  17.124  0.00  0.00    +0.000 A 
ATOM     12  C   UNL     1       1.839   4.145  17.699  0.00  0.00    +0.000 C 
ATOM     13  C   UNL     1       0.961   3.427  18.693  0.00  0.00    +0.000 C 
ATOM     14  C   UNL     1       1.559   3.131  20.051  0.00  0.00    +0.000 C 
ATOM     15  O   UNL     1       0.864   2.656  20.949  0.00  0.00    +0.000 OA
ATOM     16  N   UNL     1       2.893   3.337  20.260  0.00  0.00    +0.000 N 
ATOM     17  H   UNL     1       3.226   3.067  21.174  0.00  0.00    +0.000 HD
ENDBRANCH   3   6
ENDBRANCH   1   3
BRANCH   1  18
ATOM     18  C   UNL     1       6.608   7.347  17.525  0.00  0.00    +0.000 C 
BRANCH  18  19
ATOM     19  C   UNL     1       8.000   7.612  18.071  0.00  0.00    +0.000 C 
BRANCH  19  21
ATOM     20  N   UNL     1       9.301   9.363  19.156  0.00  0.00    +0.000 N 
ATOM     21  C   UNL     1       8.329   9.081  18.211  0.00  0.00    +0.000 C 
ATOM     22  O   UNL     1       7.776   9.893  17.474  0.00  0.00    +0.000 OA
ATOM     23  H   UNL     1       9.828   8.590  19.546  0.00  0.00    +0.000 HD
BRANCH  20  26
ATOM     24  C   UNL     1      10.720  12.815  19.351  0.00  0.00    +0.000 A 
ATOM     25  C   UNL     1      10.414  11.543  18.866  0.00  0.00    +0.000 A 
ATOM     26  C   UNL     1       9.660  10.647  19.623  0.00  0.00    +0.000 A 
ATOM     27  C   UNL     1       9.197  11.053  20.880  0.00  0.00    +0.000 A 
ATOM     28  C   UNL     1       9.502  12.324  21.380  0.00  0.00    +0.000 A 
ATOM     29  C   UNL     1      10.273  13.202  20.614  0.00  0.00    +0.000 A 
BRANCH  24  31
ATOM     30  C   UNL     1      10.986  14.911  18.257  0.00  0.00    +0.000 C 
ATOM     31  O   UNL     1      11.445  13.587  18.484  0.00  0.00    +0.000 OA
ENDBRANCH  24  31
BRANCH  28  32
ATOM     32  O   UNL     1       8.988  12.600  22.621  0.00  0.00    +0.000 OA
ATOM     33  C   UNL     1       8.055  11.664  23.151  0.00  0.00    +0.000 C 
ENDBRANCH  28  32
ENDBRANCH  20  26
ENDBRANCH  19  21
ENDBRANCH  18  19
ENDBRANCH   1  18
TORSDOF 8
ENDMDL
MODEL 7
REMARK VINA RESULT:      -7.4      2.360      8.192
REMARK  Name = 
REMARK  10 active torsions:
REMARK  status: ('A' for Active; 'I' for Inactive)
REMARK    1  A    between atoms: C_1  and  O_2
REMARK    2  A    between atoms: O_2  and  C_3
REMARK    3  A    between atoms: C_5  and  N_6
REMARK    4  A    between atoms: C_7  and  C_9
REMARK    5  A    between atoms: C_9  and  C_10
REMARK    6  A    between atoms: C_10  and  N_11
REMARK    7  A    between atoms: N_11  and  S_12
REMARK    8  A    between atoms: S_12  and  C_15
REMARK    9  A    between atoms: C_27  and  O_28
REMARK   10  A    between atoms: O_28  and  C_29
REMARK                            x       y       z     vdW  Elec       q    Type
REMARK                         _______ _______ _______ _____ _____    ______ ____
ROOT
ATOM      1  N   UNL     1       2.780   5.640  20.620  0.00  0.00    +0.000 NA
ATOM      2  H   UNL     1       2.535   5.531  21.619  0.00  0.00    +0.000 HD
ENDROOT
BRANCH   1   3
ATOM      3  S   UNL     1       2.842   4.119  19.848  0.00  0.00    +0.000 S 
ATOM      4  O   UNL     1       3.090   3.102  20.846  0.00  0.00    +0.000 OA
ATOM      5  O   UNL     1       1.736   4.047  18.924  0.00  0.00    +0.000 OA
BRANCH   3   6
ATOM      6  C   UNL     1       4.320   4.341  18.899  0.00  0.00    +0.000 A 
ATOM      7  C   UNL     1       5.463   4.991  19.368  0.00  0.00    +0.000 A 
ATOM      8  C   UNL     1       6.498   5.283  18.461  0.00  0.00    +0.000 A 
ATOM      9  C   UNL     1       6.355   4.957  17.103  0.00  0.00    +0.000 A 
ATOM     10  C   UNL     1       5.217   4.290  16.670  0.00  0.00    +0.000 A 
ATOM     11  C   UNL     1       4.229   3.942  17.574  0.00  0.00    +0.000 A 
ATOM     12  C   UNL     1       4.962   3.947  15.242  0.00  0.00    +0.000 C 
ATOM     13  C   UNL     1       5.971   4.476  14.255  0.00  0.00    +0.000 C 
ATOM     14  C   UNL     1       7.236   5.084  14.822  0.00  0.00    +0.000 C 
ATOM     15  O   UNL     1       8.152   5.426  14.076  0.00  0.00    +0.000 OA
ATOM     16  N   UNL     1       7.332   5.306  16.166  0.00  0.00    +0.000 N 
ATOM     17  H   UNL     1       8.184   5.761  16.460  0.00  0.00    +0.000 HD
ENDBRANCH   3   6
ENDBRANCH   1   3
BRANCH   1  18
ATOM     18  C   UNL     1       1.964   6.653  19.933  0.00  0.00    +0.000 C 
BRANCH  18  19
ATOM     19  C   UNL     1       2.691   7.285  18.759  0.00  0.00    +0.000 C 
BRANCH  19  21
ATOM     20  N   UNL     1       1.276   9.214  19.226  0.00  0.00    +0.000 N 
ATOM     21  C   UNL     1       2.069   8.579  18.285  0.00  0.00    +0.000 C 
ATOM     22  O   UNL     1       2.336   8.996  17.160  0.00  0.00    +0.000 OA
ATOM     23  H   UNL     1       1.306   8.877  20.181  0.00  0.00    +0.000 HD
BRANCH  20  26
ATOM     24  C   UNL     1       0.035  12.704  18.732  0.00  0.00    +0.000 A 
ATOM     25  C   UNL     1       0.895  11.639  18.999  0.00  0.00    +0.000 A 
ATOM     26  C   UNL     1       0.433  10.323  18.993  0.00  0.00    +0.000 A 
ATOM     27  C   UNL     1      -0.914  10.085  18.695  0.00  0.00    +0.000 A 
ATOM     28  C   UNL     1      -1.788  11.146  18.430  0.00  0.00    +0.000 A 
ATOM     29  C   UNL     1      -1.310  12.458  18.458  0.00  0.00    +0.000 A 
BRANCH  24  31
ATOM     30  C   UNL     1       0.368  14.773  19.860  0.00  0.00    +0.000 C 
ATOM     31  O   UNL     1       0.639  13.932  18.750  0.00  0.00    +0.000 OA
ENDBRANCH  24  31
BRANCH  28  32
ATOM     32  O   UNL     1      -3.080  10.780  18.151  0.00  0.00    +0.000 OA
ATOM     33  C   UNL     1      -4.099  11.715  18.492  0.00  0.00    +0.000 C 
ENDBRANCH  28  32
ENDBRANCH  20  26
ENDBRANCH  19  21
ENDBRANCH  18  19
ENDBRANCH   1  18
TORSDOF 8
ENDMDL
MODEL 8
REMARK VINA RESULT:      -7.4      2.189      8.132
REMARK  Name = 
REMARK  10 active torsions:
REMARK  status: ('A' for Active; 'I' for Inactive)
REMARK    1  A    between atoms: C_1  and  O_2
REMARK    2  A    between atoms: O_2  and  C_3
REMARK    3  A    between atoms: C_5  and  N_6
REMARK    4  A    between atoms: C_7  and  C_9
REMARK    5  A    between atoms: C_9  and  C_10
REMARK    6  A    between atoms: C_10  and  N_11
REMARK    7  A    between atoms: N_11  and  S_12
REMARK    8  A    between atoms: S_12  and  C_15
REMARK    9  A    between atoms: C_27  and  O_28
REMARK   10  A    between atoms: O_28  and  C_29
REMARK                            x       y       z     vdW  Elec       q    Type
REMARK                         _______ _______ _______ _____ _____    ______ ____
ROOT
ATOM      1  N   UNL     1       2.922   5.009  20.588  0.00  0.00    +0.000 NA
ATOM      2  H   UNL     1       2.935   4.601  21.539  0.00  0.00    +0.000 HD
ENDROOT
BRANCH   1   3
ATOM      3  S   UNL     1       2.937   3.779  19.406  0.00  0.00    +0.000 S 
ATOM      4  O   UNL     1       3.204   2.515  20.055  0.00  0.00    +0.000 OA
ATOM      5  O   UNL     1       1.800   3.984  18.540  0.00  0.00    +0.000 OA
BRANCH   3   6
ATOM      6  C   UNL     1       4.385   4.263  18.510  0.00  0.00    +0.000 A 
ATOM      7  C   UNL     1       5.278   5.248  18.936  0.00  0.00    +0.000 A 
ATOM      8  C   UNL     1       6.279   5.686  18.049  0.00  0.00    +0.000 A 
ATOM      9  C   UNL     1       6.344   5.162  16.748  0.00  0.00    +0.000 A 
ATOM     10  C   UNL     1       5.457   4.166  16.361  0.00  0.00    +0.000 A 
ATOM     11  C   UNL     1       4.516   3.687  17.255  0.00  0.00    +0.000 A 
ATOM     12  C   UNL     1       5.424   3.587  14.988  0.00  0.00    +0.000 C 
ATOM     13  C   UNL     1       6.346   4.234  13.986  0.00  0.00    +0.000 C 
ATOM     14  C   UNL     1       7.359   5.224  14.521  0.00  0.00    +0.000 C 
ATOM     15  O   UNL     1       8.218   5.700  13.780  0.00  0.00    +0.000 OA
ATOM     16  N   UNL     1       7.277   5.635  15.821  0.00  0.00    +0.000 N 
ATOM     17  H   UNL     1       7.954   6.334  16.088  0.00  0.00    +0.000 HD
ENDBRANCH   3   6
ENDBRANCH   1   3
BRANCH   1  18
ATOM     18  C   UNL     1       1.874   6.027  20.413  0.00  0.00    +0.000 C 
BRANCH  18  19
ATOM     19  C   UNL     1       2.377   7.258  19.680  0.00  0.00    +0.000 C 
BRANCH  19  21
ATOM     20  N   UNL     1       1.284   9.208  18.709  0.00  0.00    +0.000 N 
ATOM     21  C   UNL     1       1.500   8.477  19.865  0.00  0.00    +0.000 C 
ATOM     22  O   UNL     1       1.012   8.703  20.970  0.00  0.00    +0.000 OA
ATOM     23  H   UNL     1       1.568   8.801  17.826  0.00  0.00    +0.000 HD
BRANCH  20  26
ATOM     24  C   UNL     1       0.750  12.905  18.603  0.00  0.00    +0.000 A 
ATOM     25  C   UNL     1       1.390  11.671  18.717  0.00  0.00    +0.000 A 
ATOM     26  C   UNL     1       0.671  10.478  18.631  0.00  0.00    +0.000 A 
ATOM     27  C   UNL     1      -0.709  10.540  18.410  0.00  0.00    +0.000 A 
ATOM     28  C   UNL     1      -1.364  11.773  18.299  0.00  0.00    +0.000 A 
ATOM     29  C   UNL     1      -0.629  12.957  18.405  0.00  0.00    +0.000 A 
BRANCH  24  31
ATOM     30  C   UNL     1       1.538  14.760  19.869  0.00  0.00    +0.000 C 
ATOM     31  O   UNL     1       1.590  13.983  18.683  0.00  0.00    +0.000 OA
ENDBRANCH  24  31
BRANCH  28  32
ATOM     32  O   UNL     1      -2.715  11.697  18.082  0.00  0.00    +0.000 OA
ATOM     33  C   UNL     1      -3.198  10.513  17.454  0.00  0.00    +0.000 C 
ENDBRANCH  28  32
ENDBRANCH  20  26
ENDBRANCH  19  21
ENDBRANCH  18  19
ENDBRANCH   1  18
TORSDOF 8
ENDMDL
MODEL 9
REMARK VINA RESULT:      -7.4      4.700      8.349
REMARK  Name = 
REMARK  10 active torsions:
REMARK  status: ('A' for Active; 'I' for Inactive)
REMARK    1  A    between atoms: C_1  and  O_2
REMARK    2  A    between atoms: O_2  and  C_3
REMARK    3  A    between atoms: C_5  and  N_6
REMARK    4  A    between atoms: C_7  and  C_9
REMARK    5  A    between atoms: C_9  and  C_10
REMARK    6  A    between atoms: C_10  and  N_11
REMARK    7  A    between atoms: N_11  and  S_12
REMARK    8  A    between atoms: S_12  and  C_15
REMARK    9  A    between atoms: C_27  and  O_28
REMARK   10  A    between atoms: O_28  and  C_29
REMARK                            x       y       z     vdW  Elec       q    Type
REMARK                         _______ _______ _______ _____ _____    ______ ____
ROOT
ATOM      1  N   UNL     1       7.253   6.073  16.488  0.00  0.00    +0.000 NA
ATOM      2  H   UNL     1       7.835   5.303  16.861  0.00  0.00    +0.000 HD
ENDROOT
BRANCH   1   3
ATOM      3  S   UNL     1       5.948   5.455  15.580  0.00  0.00    +0.000 S 
ATOM      4  O   UNL     1       5.462   6.494  14.699  0.00  0.00    +0.000 OA
ATOM      5  O   UNL     1       6.322   4.145  15.104  0.00  0.00    +0.000 OA
BRANCH   3   6
ATOM      6  C   UNL     1       4.772   5.234  16.884  0.00  0.00    +0.000 A 
ATOM      7  C   UNL     1       3.975   6.256  17.403  0.00  0.00    +0.000 A 
ATOM      8  C   UNL     1       3.225   6.008  18.567  0.00  0.00    +0.000 A 
ATOM      9  C   UNL     1       3.316   4.763  19.209  0.00  0.00    +0.000 A 
ATOM     10  C   UNL     1       4.098   3.757  18.657  0.00  0.00    +0.000 A 
ATOM     11  C   UNL     1       4.782   3.980  17.474  0.00  0.00    +0.000 A 
ATOM     12  C   UNL     1       4.288   2.424  19.293  0.00  0.00    +0.000 C 
ATOM     13  C   UNL     1       3.667   2.259  20.658  0.00  0.00    +0.000 C 
ATOM     14  C   UNL     1       2.735   3.356  21.127  0.00  0.00    +0.000 C 
ATOM     15  O   UNL     1       2.103   3.231  22.175  0.00  0.00    +0.000 OA
ATOM     16  N   UNL     1       2.644   4.515  20.410  0.00  0.00    +0.000 N 
ATOM     17  H   UNL     1       2.042   5.217  20.815  0.00  0.00    +0.000 HD
ENDBRANCH   3   6
ENDBRANCH   1   3
BRANCH   1  18
ATOM     18  C   UNL     1       6.885   7.064  17.511  0.00  0.00    +0.000 C 
BRANCH  18  19
ATOM     19  C   UNL     1       8.066   7.473  18.375  0.00  0.00    +0.000 C 
BRANCH  19  21
ATOM     20  N   UNL     1       9.327   9.368  19.245  0.00  0.00    +0.000 N 
ATOM     21  C   UNL     1       8.344   8.959  18.359  0.00  0.00    +0.000 C 
ATOM     22  O   UNL     1       7.745   9.674  17.560  0.00  0.00    +0.000 OA
ATOM     23  H   UNL     1       9.890   8.657  19.696  0.00  0.00    +0.000 HD
BRANCH  20  26
ATOM     24  C   UNL     1      10.486  12.913  19.008  0.00  0.00    +0.000 A 
ATOM     25  C   UNL     1      10.212  11.592  18.655  0.00  0.00    +0.000 A 
ATOM     26  C   UNL     1       9.650  10.704  19.572  0.00  0.00    +0.000 A 
ATOM     27  C   UNL     1       9.347  11.168  20.857  0.00  0.00    +0.000 A 
ATOM     28  C   UNL     1       9.622  12.490  21.226  0.00  0.00    +0.000 A 
ATOM     29  C   UNL     1      10.201  13.360  20.298  0.00  0.00    +0.000 A 
BRANCH  24  31
ATOM     30  C   UNL     1      12.194  13.185  17.373  0.00  0.00    +0.000 C 
ATOM     31  O   UNL     1      11.013  13.668  17.996  0.00  0.00    +0.000 OA
ENDBRANCH  24  31
BRANCH  28  32
ATOM     32  O   UNL     1       9.276  12.819  22.511  0.00  0.00    +0.000 OA
ATOM     33  C   UNL     1       8.879  14.167  22.742  0.00  0.00    +0.000 C 
ENDBRANCH  28  32
ENDBRANCH  20  26
ENDBRANCH  19  21
ENDBRANCH  18  19
ENDBRANCH   1  18
TORSDOF 8
ENDMDL
