MODEL 1
REMARK VINA RESULT:      -8.4      0.000      0.000
REMARK  Name = 
REMARK  3 active torsions:
REMARK  status: ('A' for Active; 'I' for Inactive)
REMARK    1  A    between atoms: C_4  and  C_5
REMARK    2  A    between atoms: N_14  and  C_15
REMARK    3  A    between atoms: C_15  and  C_16
REMARK                            x       y       z     vdW  Elec       q    Type
REMARK                         _______ _______ _______ _____ _____    ______ ____
ROOT
ATOM      1  O   UNL     1       8.150   4.506  18.390  0.00  0.00    +0.000 OA
ATOM      2  C   UNL     1       7.259   4.649  17.558  0.00  0.00    +0.000 C 
ATOM      3  C   UNL     1       7.403   4.191  16.129  0.00  0.00    +0.000 C 
ATOM      4  C   UNL     1       6.655   5.125  15.176  0.00  0.00    +0.000 C 
ATOM      5  C   UNL     1       5.177   5.257  15.572  0.00  0.00    +0.000 C 
ATOM      6  C   UNL     1       4.984   5.518  17.042  0.00  0.00    +0.000 A 
ATOM      7  N   UNL     1       3.764   5.967  17.420  0.00  0.00    +0.000 NA
ATOM      8  C   UNL     1       3.489   6.012  18.733  0.00  0.00    +0.000 A 
ATOM      9  N   UNL     1       2.173   6.255  19.066  0.00  0.00    +0.000 N 
ATOM     10  N   UNL     1       4.391   5.738  19.686  0.00  0.00    +0.000 NA
ATOM     11  C   UNL     1       5.622   5.361  19.282  0.00  0.00    +0.000 A 
ATOM     12  C   UNL     1       5.960   5.199  17.961  0.00  0.00    +0.000 A 
ATOM     13  H   UNL     1       1.865   7.128  18.655  0.00  0.00    +0.000 HD
ENDROOT
BRANCH   4  14
ATOM     14  C   UNL     1       6.786   4.642  13.765  0.00  0.00    +0.000 A 
ATOM     15  C   UNL     1       7.585   5.013  12.706  0.00  0.00    +0.000 A 
ATOM     16  C   UNL     1       7.235   4.160  11.630  0.00  0.00    +0.000 A 
ATOM     17  C   UNL     1       6.244   3.334  12.097  0.00  0.00    +0.000 A 
ATOM     18  O   UNL     1       5.965   3.618  13.395  0.00  0.00    +0.000 OA
ENDBRANCH   4  14
BRANCH   9  19
ATOM     19  C   UNL     1       1.782   6.038  20.448  0.00  0.00    +0.000 C 
BRANCH  19  20
ATOM     20  C   UNL     1       1.240   4.615  20.651  0.00  0.00    +0.000 C 
ATOM     21  C   UNL     1       2.089   3.707  21.532  0.00  0.00    +0.000 C 
ATOM     22  C   UNL     1       1.616   2.343  21.088  0.00  0.00    +0.000 C 
ATOM     23  C   UNL     1       1.422   2.542  19.600  0.00  0.00    +0.000 C 
ATOM     24  O   UNL     1       1.092   3.923  19.394  0.00  0.00    +0.000 OA
ENDBRANCH  19  20
ENDBRANCH   9  19
TORSDOF 3
ENDMDL
MODEL 2
REMARK VINA RESULT:      -8.0      2.320      7.461
REMARK  Name = 
REMARK  3 active torsions:
REMARK  status: ('A' for Active; 'I' for Inactive)
REMARK    1  A    between atoms: C_4  and  C_5
REMARK    2  A    between atoms: N_14  and  C_15
REMARK    3  A    between atoms: C_15  and  C_16
REMARK                            x       y       z     vdW  Elec       q    Type
REMARK                         _______ _______ _______ _____ _____    ______ ____
ROOT
ATOM      1  O   UNL     1       3.369   7.943  17.753  0.00  0.00    +0.000 OA
ATOM      2  C   UNL     1       3.530   6.732  17.864  0.00  0.00    +0.000 C 
ATOM      3  C   UNL     1       2.686   5.882  18.780  0.00  0.00    +0.000 C 
ATOM      4  C   UNL     1       3.503   4.730  19.366  0.00  0.00    +0.000 C 
ATOM      5  C   UNL     1       4.145   3.883  18.258  0.00  0.00    +0.000 C 
ATOM      6  C   UNL     1       4.832   4.715  17.208  0.00  0.00    +0.000 A 
ATOM      7  N   UNL     1       5.690   4.062  16.388  0.00  0.00    +0.000 NA
ATOM      8  C   UNL     1       6.160   4.720  15.316  0.00  0.00    +0.000 A 
ATOM      9  N   UNL     1       6.842   3.958  14.391  0.00  0.00    +0.000 N 
ATOM     10  N   UNL     1       5.907   6.015  15.075  0.00  0.00    +0.000 NA
ATOM     11  C   UNL     1       5.106   6.661  15.948  0.00  0.00    +0.000 A 
ATOM     12  C   UNL     1       4.509   6.040  17.018  0.00  0.00    +0.000 A 
ATOM     13  H   UNL     1       7.624   3.490  14.834  0.00  0.00    +0.000 HD
ENDROOT
BRANCH   4  14
ATOM     14  C   UNL     1       2.644   3.882  20.252  0.00  0.00    +0.000 A 
ATOM     15  C   UNL     1       1.330   3.962  20.656  0.00  0.00    +0.000 A 
ATOM     16  C   UNL     1       1.107   2.844  21.497  0.00  0.00    +0.000 A 
ATOM     17  C   UNL     1       2.296   2.162  21.558  0.00  0.00    +0.000 A 
ATOM     18  O   UNL     1       3.237   2.785  20.802  0.00  0.00    +0.000 OA
ENDBRANCH   4  14
BRANCH   9  19
ATOM     19  C   UNL     1       7.120   4.564  13.100  0.00  0.00    +0.000 C 
BRANCH  19  20
ATOM     20  C   UNL     1       6.373   3.832  11.975  0.00  0.00    +0.000 C 
ATOM     21  C   UNL     1       4.878   3.646  12.191  0.00  0.00    +0.000 C 
ATOM     22  C   UNL     1       4.589   2.492  11.261  0.00  0.00    +0.000 C 
ATOM     23  C   UNL     1       5.826   1.635  11.423  0.00  0.00    +0.000 C 
ATOM     24  O   UNL     1       6.911   2.512  11.757  0.00  0.00    +0.000 OA
ENDBRANCH  19  20
ENDBRANCH   9  19
TORSDOF 3
ENDMDL
MODEL 3
REMARK VINA RESULT:      -7.6      4.084      5.505
REMARK  Name = 
REMARK  3 active torsions:
REMARK  status: ('A' for Active; 'I' for Inactive)
REMARK    1  A    between atoms: C_4  and  C_5
REMARK    2  A    between atoms: N_14  and  C_15
REMARK    3  A    between atoms: C_15  and  C_16
REMARK                            x       y       z     vdW  Elec       q    Type
REMARK                         _______ _______ _______ _____ _____    ______ ____
ROOT
ATOM      1  O   UNL     1       2.911   5.194  20.656  0.00  0.00    +0.000 OA
ATOM      2  C   UNL     1       3.092   5.729  19.567  0.00  0.00    +0.000 C 
ATOM      3  C   UNL     1       3.766   5.022  18.418  0.00  0.00    +0.000 C 
ATOM      4  C   UNL     1       4.582   6.002  17.573  0.00  0.00    +0.000 C 
ATOM      5  C   UNL     1       3.712   7.165  17.076  0.00  0.00    +0.000 C 
ATOM      6  C   UNL     1       2.867   7.773  18.164  0.00  0.00    +0.000 A 
ATOM      7  N   UNL     1       2.328   8.987  17.903  0.00  0.00    +0.000 NA
ATOM      8  C   UNL     1       1.408   9.465  18.755  0.00  0.00    +0.000 A 
ATOM      9  N   UNL     1       0.723  10.587  18.339  0.00  0.00    +0.000 N 
ATOM     10  N   UNL     1       1.075   8.852  19.901  0.00  0.00    +0.000 NA
ATOM     11  C   UNL     1       1.680   7.677  20.172  0.00  0.00    +0.000 A 
ATOM     12  C   UNL     1       2.563   7.073  19.311  0.00  0.00    +0.000 A 
ATOM     13  H   UNL     1       1.374  11.336  18.135  0.00  0.00    +0.000 HD
ENDROOT
BRANCH   4  14
ATOM     14  C   UNL     1       5.222   5.289  16.423  0.00  0.00    +0.000 A 
ATOM     15  C   UNL     1       5.084   4.023  15.897  0.00  0.00    +0.000 A 
ATOM     16  C   UNL     1       5.971   3.956  14.794  0.00  0.00    +0.000 A 
ATOM     17  C   UNL     1       6.595   5.176  14.723  0.00  0.00    +0.000 A 
ATOM     18  O   UNL     1       6.145   5.994  15.709  0.00  0.00    +0.000 OA
ENDBRANCH   4  14
BRANCH   9  19
ATOM     19  C   UNL     1      -0.458  10.968  19.093  0.00  0.00    +0.000 C 
BRANCH  19  20
ATOM     20  C   UNL     1      -1.726  10.356  18.480  0.00  0.00    +0.000 C 
ATOM     21  C   UNL     1      -1.614   9.935  17.020  0.00  0.00    +0.000 C 
ATOM     22  C   UNL     1      -3.067   9.916  16.608  0.00  0.00    +0.000 C 
ATOM     23  C   UNL     1      -3.626  11.107  17.357  0.00  0.00    +0.000 C 
ATOM     24  O   UNL     1      -2.838  11.272  18.545  0.00  0.00    +0.000 OA
ENDBRANCH  19  20
ENDBRANCH   9  19
TORSDOF 3
ENDMDL
MODEL 4
REMARK VINA RESULT:      -7.5      3.385      4.448
REMARK  Name = 
REMARK  3 active torsions:
REMARK  status: ('A' for Active; 'I' for Inactive)
REMARK    1  A    between atoms: C_4  and  C_5
REMARK    2  A    between atoms: N_14  and  C_15
REMARK    3  A    between atoms: C_15  and  C_16
REMARK                            x       y       z     vdW  Elec       q    Type
REMARK                         _______ _______ _______ _____ _____    ______ ____
ROOT
ATOM      1  O   UNL     1       4.012   3.355  18.746  0.00  0.00    +0.000 OA
ATOM      2  C   UNL     1       4.216   4.214  17.894  0.00  0.00    +0.000 C 
ATOM      3  C   UNL     1       4.879   3.906  16.575  0.00  0.00    +0.000 C 
ATOM      4  C   UNL     1       5.728   5.086  16.099  0.00  0.00    +0.000 C 
ATOM      5  C   UNL     1       4.894   6.372  16.015  0.00  0.00    +0.000 C 
ATOM      6  C   UNL     1       4.057   6.611  17.243  0.00  0.00    +0.000 A 
ATOM      7  N   UNL     1       3.554   7.858  17.397  0.00  0.00    +0.000 NA
ATOM      8  C   UNL     1       2.640   8.055  18.361  0.00  0.00    +0.000 A 
ATOM      9  N   UNL     1       1.990   9.270  18.338  0.00  0.00    +0.000 N 
ATOM     10  N   UNL     1       2.282   7.109  19.242  0.00  0.00    +0.000 NA
ATOM     11  C   UNL     1       2.853   5.893  19.110  0.00  0.00    +0.000 A 
ATOM     12  C   UNL     1       3.726   5.582  18.096  0.00  0.00    +0.000 A 
ATOM     13  H   UNL     1       2.662  10.026  18.391  0.00  0.00    +0.000 HD
ENDROOT
BRANCH   4  14
ATOM     14  C   UNL     1       6.357   4.773  14.777  0.00  0.00    +0.000 A 
ATOM     15  C   UNL     1       6.060   3.877  13.774  0.00  0.00    +0.000 A 
ATOM     16  C   UNL     1       7.038   4.075  12.767  0.00  0.00    +0.000 A 
ATOM     17  C   UNL     1       7.868   5.067  13.223  0.00  0.00    +0.000 A 
ATOM     18  O   UNL     1       7.462   5.499  14.444  0.00  0.00    +0.000 OA
ENDBRANCH   4  14
BRANCH   9  19
ATOM     19  C   UNL     1       0.813   9.415  19.178  0.00  0.00    +0.000 C 
BRANCH  19  20
ATOM     20  C   UNL     1      -0.139  10.481  18.616  0.00  0.00    +0.000 C 
ATOM     21  C   UNL     1      -1.019  11.184  19.641  0.00  0.00    +0.000 C 
ATOM     22  C   UNL     1      -2.134  11.702  18.764  0.00  0.00    +0.000 C 
ATOM     23  C   UNL     1      -2.309  10.572  17.772  0.00  0.00    +0.000 C 
ATOM     24  O   UNL     1      -1.037   9.921  17.637  0.00  0.00    +0.000 OA
ENDBRANCH  19  20
ENDBRANCH   9  19
TORSDOF 3
ENDMDL
MODEL 5
REMARK VINA RESULT:      -7.5      3.099      4.648
REMARK  Name = 
REMARK  3 active torsions:
REMARK  status: ('A' for Active; 'I' for Inactive)
REMARK    1  A    between atoms: C_4  and  C_5
REMARK    2  A    between atoms: N_14  and  C_15
REMARK    3  A    between atoms: C_15  and  C_16
REMARK                            x       y       z     vdW  Elec       q    Type
REMARK                         _______ _______ _______ _____ _____    ______ ____
ROOT
ATOM      1  O   UNL     1       2.042   2.137  18.391  0.00  0.00    +0.000 OA
ATOM      2  C   UNL     1       2.652   3.154  18.076  0.00  0.00    +0.000 C 
ATOM      3  C   UNL     1       3.482   3.246  16.821  0.00  0.00    +0.000 C 
ATOM      4  C   UNL     1       4.700   4.147  17.033  0.00  0.00    +0.000 C 
ATOM      5  C   UNL     1       4.282   5.539  17.527  0.00  0.00    +0.000 C 
ATOM      6  C   UNL     1       3.291   5.488  18.659  0.00  0.00    +0.000 A 
ATOM      7  N   UNL     1       3.120   6.631  19.364  0.00  0.00    +0.000 NA
ATOM      8  C   UNL     1       2.104   6.686  20.239  0.00  0.00    +0.000 A 
ATOM      9  N   UNL     1       1.826   7.929  20.765  0.00  0.00    +0.000 N 
ATOM     10  N   UNL     1       1.319   5.636  20.526  0.00  0.00    +0.000 NA
ATOM     11  C   UNL     1       1.557   4.487  19.859  0.00  0.00    +0.000 A 
ATOM     12  C   UNL     1       2.515   4.372  18.882  0.00  0.00    +0.000 A 
ATOM     13  H   UNL     1       2.647   8.306  21.222  0.00  0.00    +0.000 HD
ENDROOT
BRANCH   4  14
ATOM     14  C   UNL     1       5.498   4.249  15.771  0.00  0.00    +0.000 A 
ATOM     15  C   UNL     1       5.342   3.725  14.506  0.00  0.00    +0.000 A 
ATOM     16  C   UNL     1       6.439   4.199  13.745  0.00  0.00    +0.000 A 
ATOM     17  C   UNL     1       7.193   4.971  14.592  0.00  0.00    +0.000 A 
ATOM     18  O   UNL     1       6.628   5.009  15.826  0.00  0.00    +0.000 OA
ENDBRANCH   4  14
BRANCH   9  19
ATOM     19  C   UNL     1       0.576   8.085  21.490  0.00  0.00    +0.000 C 
BRANCH  19  20
ATOM     20  C   UNL     1       0.395   9.531  21.974  0.00  0.00    +0.000 C 
ATOM     21  C   UNL     1      -0.617   9.728  23.095  0.00  0.00    +0.000 C 
ATOM     22  C   UNL     1      -0.941  11.195  22.942  0.00  0.00    +0.000 C 
ATOM     23  C   UNL     1      -0.938  11.367  21.439  0.00  0.00    +0.000 C 
ATOM     24  O   UNL     1      -0.028  10.397  20.900  0.00  0.00    +0.000 OA
ENDBRANCH  19  20
ENDBRANCH   9  19
TORSDOF 3
ENDMDL
MODEL 6
REMARK VINA RESULT:      -7.4      3.065      4.733
REMARK  Name = 
REMARK  3 active torsions:
REMARK  status: ('A' for Active; 'I' for Inactive)
REMARK    1  A    between atoms: C_4  and  C_5
REMARK    2  A    between atoms: N_14  and  C_15
REMARK    3  A    between atoms: C_15  and  C_16
REMARK                            x       y       z     vdW  Elec       q    Type
REMARK                         _______ _______ _______ _____ _____    ______ ____
ROOT
ATOM      1  O   UNL     1       2.238   2.177  18.813  0.00  0.00    +0.000 OA
ATOM      2  C   UNL     1       2.779   3.202  18.411  0.00  0.00    +0.000 C 
ATOM      3  C   UNL     1       3.577   3.250  17.133  0.00  0.00    +0.000 C 
ATOM      4  C   UNL     1       4.743   4.234  17.250  0.00  0.00    +0.000 C 
ATOM      5  C   UNL     1       4.252   5.632  17.652  0.00  0.00    +0.000 C 
ATOM      6  C   UNL     1       3.288   5.606  18.808  0.00  0.00    +0.000 A 
ATOM      7  N   UNL     1       3.063   6.786  19.432  0.00  0.00    +0.000 NA
ATOM      8  C   UNL     1       2.062   6.846  20.325  0.00  0.00    +0.000 A 
ATOM      9  N   UNL     1       1.720   8.107  20.766  0.00  0.00    +0.000 N 
ATOM     10  N   UNL     1       1.348   5.776  20.705  0.00  0.00    +0.000 NA
ATOM     11  C   UNL     1       1.641   4.597  20.119  0.00  0.00    +0.000 A 
ATOM     12  C   UNL     1       2.585   4.466  19.130  0.00  0.00    +0.000 A 
ATOM     13  H   UNL     1       2.526   8.564  21.174  0.00  0.00    +0.000 HD
ENDROOT
BRANCH   4  14
ATOM     14  C   UNL     1       5.508   4.289  15.965  0.00  0.00    +0.000 A 
ATOM     15  C   UNL     1       5.293   3.762  14.710  0.00  0.00    +0.000 A 
ATOM     16  C   UNL     1       6.388   4.180  13.914  0.00  0.00    +0.000 A 
ATOM     17  C   UNL     1       7.200   4.923  14.732  0.00  0.00    +0.000 A 
ATOM     18  O   UNL     1       6.673   4.997  15.981  0.00  0.00    +0.000 OA
ENDBRANCH   4  14
BRANCH   9  19
ATOM     19  C   UNL     1       0.478   8.242  21.507  0.00  0.00    +0.000 C 
BRANCH  19  20
ATOM     20  C   UNL     1      -0.116   9.648  21.337  0.00  0.00    +0.000 C 
ATOM     21  C   UNL     1      -0.478  10.042  19.911  0.00  0.00    +0.000 C 
ATOM     22  C   UNL     1      -0.488  11.548  20.017  0.00  0.00    +0.000 C 
ATOM     23  C   UNL     1       0.669  11.810  20.956  0.00  0.00    +0.000 C 
ATOM     24  O   UNL     1       0.791  10.664  21.812  0.00  0.00    +0.000 OA
ENDBRANCH  19  20
ENDBRANCH   9  19
TORSDOF 3
ENDMDL
MODEL 7
REMARK VINA RESULT:      -7.4      3.302      4.747
REMARK  Name = 
REMARK  3 active torsions:
REMARK  status: ('A' for Active; 'I' for Inactive)
REMARK    1  A    between atoms: C_4  and  C_5
REMARK    2  A    between atoms: N_14  and  C_15
REMARK    3  A    between atoms: C_15  and  C_16
REMARK                            x       y       z     vdW  Elec       q    Type
REMARK                         _______ _______ _______ _____ _____    ______ ____
ROOT
ATOM      1  O   UNL     1       2.950   2.613  19.502  0.00  0.00    +0.000 OA
ATOM      2  C   UNL     1       3.282   3.623  18.890  0.00  0.00    +0.000 C 
ATOM      3  C   UNL     1       4.008   3.569  17.570  0.00  0.00    +0.000 C 
ATOM      4  C   UNL     1       4.981   4.741  17.431  0.00  0.00    +0.000 C 
ATOM      5  C   UNL     1       4.262   6.085  17.615  0.00  0.00    +0.000 C 
ATOM      6  C   UNL     1       3.363   6.110  18.823  0.00  0.00    +0.000 A 
ATOM      7  N   UNL     1       2.953   7.329  19.245  0.00  0.00    +0.000 NA
ATOM      8  C   UNL     1       1.993   7.381  20.182  0.00  0.00    +0.000 A 
ATOM      9  N   UNL     1       1.446   8.625  20.418  0.00  0.00    +0.000 N 
ATOM     10  N   UNL     1       1.499   6.294  20.793  0.00  0.00    +0.000 NA
ATOM     11  C   UNL     1       1.977   5.094  20.403  0.00  0.00    +0.000 A 
ATOM     12  C   UNL     1       2.890   4.946  19.388  0.00  0.00    +0.000 A 
ATOM     13  H   UNL     1       2.172   9.280  20.682  0.00  0.00    +0.000 HD
ENDROOT
BRANCH   4  14
ATOM     14  C   UNL     1       5.674   4.687  16.105  0.00  0.00    +0.000 A 
ATOM     15  C   UNL     1       6.848   5.226  15.627  0.00  0.00    +0.000 A 
ATOM     16  C   UNL     1       6.956   4.801  14.279  0.00  0.00    +0.000 A 
ATOM     17  C   UNL     1       5.844   4.041  14.022  0.00  0.00    +0.000 A 
ATOM     18  O   UNL     1       5.059   3.964  15.127  0.00  0.00    +0.000 OA
ENDBRANCH   4  14
BRANCH   9  19
ATOM     19  C   UNL     1       0.229   8.681  21.210  0.00  0.00    +0.000 C 
BRANCH  19  20
ATOM     20  C   UNL     1       0.013  10.086  21.790  0.00  0.00    +0.000 C 
ATOM     21  C   UNL     1      -0.846  10.154  23.045  0.00  0.00    +0.000 C 
ATOM     22  C   UNL     1      -1.294  11.597  23.016  0.00  0.00    +0.000 C 
ATOM     23  C   UNL     1      -1.509  11.833  21.537  0.00  0.00    +0.000 C 
ATOM     24  O   UNL     1      -0.615  10.961  20.830  0.00  0.00    +0.000 OA
ENDBRANCH  19  20
ENDBRANCH   9  19
TORSDOF 3
ENDMDL
MODEL 8
REMARK VINA RESULT:      -7.4      3.601      4.870
REMARK  Name = 
REMARK  3 active torsions:
REMARK  status: ('A' for Active; 'I' for Inactive)
REMARK    1  A    between atoms: C_4  and  C_5
REMARK    2  A    between atoms: N_14  and  C_15
REMARK    3  A    between atoms: C_15  and  C_16
REMARK                            x       y       z     vdW  Elec       q    Type
REMARK                         _______ _______ _______ _____ _____    ______ ____
ROOT
ATOM      1  O   UNL     1       3.838   3.668  19.792  0.00  0.00    +0.000 OA
ATOM      2  C   UNL     1       3.927   4.465  18.863  0.00  0.00    +0.000 C 
ATOM      3  C   UNL     1       4.541   4.099  17.536  0.00  0.00    +0.000 C 
ATOM      4  C   UNL     1       5.265   5.296  16.918  0.00  0.00    +0.000 C 
ATOM      5  C   UNL     1       4.327   6.503  16.782  0.00  0.00    +0.000 C 
ATOM      6  C   UNL     1       3.540   6.780  18.036  0.00  0.00    +0.000 A 
ATOM      7  N   UNL     1       2.947   7.994  18.120  0.00  0.00    +0.000 NA
ATOM      8  C   UNL     1       2.074   8.201  19.118  0.00  0.00    +0.000 A 
ATOM      9  N   UNL     1       1.327   9.357  19.038  0.00  0.00    +0.000 N 
ATOM     10  N   UNL     1       1.840   7.307  20.091  0.00  0.00    +0.000 NA
ATOM     11  C   UNL     1       2.499   6.132  20.022  0.00  0.00    +0.000 A 
ATOM     12  C   UNL     1       3.339   5.803  18.985  0.00  0.00    +0.000 A 
ATOM     13  H   UNL     1       1.938  10.163  18.991  0.00  0.00    +0.000 HD
ENDROOT
BRANCH   4  14
ATOM     14  C   UNL     1       5.846   4.922  15.590  0.00  0.00    +0.000 A 
ATOM     15  C   UNL     1       5.433   4.086  14.576  0.00  0.00    +0.000 A 
ATOM     16  C   UNL     1       6.426   4.169  13.568  0.00  0.00    +0.000 A 
ATOM     17  C   UNL     1       7.378   5.039  14.033  0.00  0.00    +0.000 A 
ATOM     18  O   UNL     1       7.034   5.504  15.261  0.00  0.00    +0.000 OA
ENDBRANCH   4  14
BRANCH   9  19
ATOM     19  C   UNL     1       0.189   9.482  19.933  0.00  0.00    +0.000 C 
BRANCH  19  20
ATOM     20  C   UNL     1      -0.847  10.468  19.374  0.00  0.00    +0.000 C 
ATOM     21  C   UNL     1      -1.251  10.245  17.923  0.00  0.00    +0.000 C 
ATOM     22  C   UNL     1      -1.790  11.608  17.557  0.00  0.00    +0.000 C 
ATOM     23  C   UNL     1      -0.843  12.532  18.292  0.00  0.00    +0.000 C 
ATOM     24  O   UNL     1      -0.374  11.828  19.451  0.00  0.00    +0.000 OA
ENDBRANCH  19  20
ENDBRANCH   9  19
TORSDOF 3
ENDMDL
MODEL 9
REMARK VINA RESULT:      -7.3      3.369      4.422
REMARK  Name = 
REMARK  3 active torsions:
REMARK  status: ('A' for Active; 'I' for Inactive)
REMARK    1  A    between atoms: C_4  and  C_5
REMARK    2  A    between atoms: N_14  and  C_15
REMARK    3  A    between atoms: C_15  and  C_16
REMARK                            x       y       z     vdW  Elec       q    Type
REMARK                         _______ _______ _______ _____ _____    ______ ____
ROOT
ATOM      1  O   UNL     1       4.797   3.336  18.733  0.00  0.00    +0.000 OA
ATOM      2  C   UNL     1       4.816   4.171  17.834  0.00  0.00    +0.000 C 
ATOM      3  C   UNL     1       5.380   3.878  16.467  0.00  0.00    +0.000 C 
ATOM      4  C   UNL     1       6.035   5.122  15.865  0.00  0.00    +0.000 C 
ATOM      5  C   UNL     1       5.052   6.301  15.820  0.00  0.00    +0.000 C 
ATOM      6  C   UNL     1       4.317   6.502  17.118  0.00  0.00    +0.000 A 
ATOM      7  N   UNL     1       3.688   7.690  17.278  0.00  0.00    +0.000 NA
ATOM      8  C   UNL     1       2.856   7.828  18.321  0.00  0.00    +0.000 A 
ATOM      9  N   UNL     1       2.069   8.960  18.322  0.00  0.00    +0.000 N 
ATOM     10  N   UNL     1       2.697   6.890  19.267  0.00  0.00    +0.000 NA
ATOM     11  C   UNL     1       3.391   5.742  19.121  0.00  0.00    +0.000 A 
ATOM     12  C   UNL     1       4.191   5.483  18.036  0.00  0.00    +0.000 A 
ATOM     13  H   UNL     1       2.650   9.788  18.279  0.00  0.00    +0.000 HD
ENDROOT
BRANCH   4  14
ATOM     14  C   UNL     1       6.565   4.820  14.498  0.00  0.00    +0.000 A 
ATOM     15  C   UNL     1       6.177   3.954  13.500  0.00  0.00    +0.000 A 
ATOM     16  C   UNL     1       7.090   4.146  12.434  0.00  0.00    +0.000 A 
ATOM     17  C   UNL     1       7.976   5.105  12.851  0.00  0.00    +0.000 A 
ATOM     18  O   UNL     1       7.665   5.524  14.105  0.00  0.00    +0.000 OA
ENDBRANCH   4  14
BRANCH   9  19
ATOM     19  C   UNL     1       0.970   9.011  19.271  0.00  0.00    +0.000 C 
BRANCH  19  20
ATOM     20  C   UNL     1       0.676  10.456  19.698  0.00  0.00    +0.000 C 
ATOM     21  C   UNL     1      -0.774  10.901  19.562  0.00  0.00    +0.000 C 
ATOM     22  C   UNL     1      -0.617  12.403  19.520  0.00  0.00    +0.000 C 
ATOM     23  C   UNL     1       0.651  12.568  18.710  0.00  0.00    +0.000 C 
ATOM     24  O   UNL     1       1.455  11.400  18.934  0.00  0.00    +0.000 OA
ENDBRANCH  19  20
ENDBRANCH   9  19
TORSDOF 3
ENDMDL
