MODEL 1
REMARK VINA RESULT:      -6.8      0.000      0.000
REMARK  Name = 
REMARK  8 active torsions:
REMARK  status: ('A' for Active; 'I' for Inactive)
REMARK    1  A    between atoms: C_1  and  O_2
REMARK    2  A    between atoms: O_2  and  C_3
REMARK    3  A    between atoms: C_6  and  C_7
REMARK    4  A    between atoms: C_7  and  S_8
REMARK    5  A    between atoms: S_8  and  C_9
REMARK    6  A    between atoms: C_14  and  C_15
REMARK    7  A    between atoms: N_20  and  C_21
REMARK    8  A    between atoms: C_24  and  C_25
REMARK                            x       y       z     vdW  Elec       q    Type
REMARK                         _______ _______ _______ _____ _____    ______ ____
ROOT
ATOM      1  C   UNL     1       0.601   8.664  20.487  0.00  0.00    +0.000 A 
ATOM      2  N   UNL     1       1.492   7.751  20.717  0.00  0.00    +0.000 NA
ATOM      3  C   UNL     1       2.357   7.382  19.685  0.00  0.00    +0.000 A 
ATOM      4  C   UNL     1       3.108   6.215  19.814  0.00  0.00    +0.000 A 
ATOM      5  C   UNL     1       3.927   5.773  18.768  0.00  0.00    +0.000 A 
ATOM      6  C   UNL     1       4.023   6.505  17.580  0.00  0.00    +0.000 A 
ATOM      7  C   UNL     1       4.858   6.020  16.433  0.00  0.00    +0.000 C 
ATOM      8  C   UNL     1       3.295   7.694  17.463  0.00  0.00    +0.000 A 
ATOM      9  C   UNL     1       2.453   8.104  18.504  0.00  0.00    +0.000 A 
ATOM     10  C   UNL     1       1.555   9.255  18.343  0.00  0.00    +0.000 A 
ATOM     11  O   UNL     1       1.774  10.032  17.413  0.00  0.00    +0.000 OA
ATOM     12  N   UNL     1       0.517   9.371  19.275  0.00  0.00    +0.000 N 
ENDROOT
BRANCH  12  13
ATOM     13  C   UNL     1      -0.620  10.141  18.853  0.00  0.00    +0.000 A 
ATOM     14  C   UNL     1      -1.594   9.527  18.042  0.00  0.00    +0.000 A 
ATOM     15  C   UNL     1      -2.788  10.181  17.721  0.00  0.00    +0.000 A 
ATOM     16  C   UNL     1      -3.023  11.475  18.186  0.00  0.00    +0.000 A 
ATOM     17  C   UNL     1      -4.347  12.145  17.976  0.00  0.00    +0.000 C 
ATOM     18  C   UNL     1      -2.024  12.120  18.923  0.00  0.00    +0.000 A 
ATOM     19  C   UNL     1      -0.827  11.466  19.237  0.00  0.00    +0.000 A 
ENDBRANCH  12  13
BRANCH   1  20
ATOM     20  S   UNL     1      -0.575   8.937  21.774  0.00  0.00    +0.000 S 
BRANCH  20  21
ATOM     21  C   UNL     1       0.125  10.370  22.649  0.00  0.00    +0.000 C 
BRANCH  21  25
ATOM     22  C   UNL     1      -2.615  13.740  22.850  0.00  0.00    +0.000 A 
ATOM     23  C   UNL     1      -3.019  12.466  23.254  0.00  0.00    +0.000 A 
ATOM     24  C   UNL     1      -2.138  11.384  23.198  0.00  0.00    +0.000 A 
ATOM     25  C   UNL     1      -0.835  11.545  22.707  0.00  0.00    +0.000 A 
ATOM     26  C   UNL     1      -0.436  12.829  22.300  0.00  0.00    +0.000 A 
ATOM     27  C   UNL     1      -1.319  13.920  22.372  0.00  0.00    +0.000 A 
BRANCH  22  29
ATOM     28  C   UNL     1      -4.633  14.471  23.864  0.00  0.00    +0.000 C 
ATOM     29  O   UNL     1      -3.581  14.705  22.937  0.00  0.00    +0.000 OA
ENDBRANCH  22  29
ENDBRANCH  21  25
ENDBRANCH  20  21
ENDBRANCH   1  20
TORSDOF 5
ENDMDL
MODEL 2
REMARK VINA RESULT:      -6.7      3.564      6.134
REMARK  Name = 
REMARK  8 active torsions:
REMARK  status: ('A' for Active; 'I' for Inactive)
REMARK    1  A    between atoms: C_1  and  O_2
REMARK    2  A    between atoms: O_2  and  C_3
REMARK    3  A    between atoms: C_6  and  C_7
REMARK    4  A    between atoms: C_7  and  S_8
REMARK    5  A    between atoms: S_8  and  C_9
REMARK    6  A    between atoms: C_14  and  C_15
REMARK    7  A    between atoms: N_20  and  C_21
REMARK    8  A    between atoms: C_24  and  C_25
REMARK                            x       y       z     vdW  Elec       q    Type
REMARK                         _______ _______ _______ _____ _____    ______ ____
ROOT
ATOM      1  C   UNL     1       0.508  11.760  20.057  0.00  0.00    +0.000 A 
ATOM      2  N   UNL     1       1.482  11.881  19.209  0.00  0.00    +0.000 NA
ATOM      3  C   UNL     1       2.229  13.061  19.208  0.00  0.00    +0.000 A 
ATOM      4  C   UNL     1       3.067  13.331  18.128  0.00  0.00    +0.000 A 
ATOM      5  C   UNL     1       3.771  14.539  18.055  0.00  0.00    +0.000 A 
ATOM      6  C   UNL     1       3.661  15.491  19.073  0.00  0.00    +0.000 A 
ATOM      7  C   UNL     1       4.370  16.809  18.986  0.00  0.00    +0.000 C 
ATOM      8  C   UNL     1       2.845  15.206  20.173  0.00  0.00    +0.000 A 
ATOM      9  C   UNL     1       2.120  14.009  20.215  0.00  0.00    +0.000 A 
ATOM     10  C   UNL     1       1.132  13.758  21.272  0.00  0.00    +0.000 A 
ATOM     11  O   UNL     1       1.174  14.464  22.280  0.00  0.00    +0.000 OA
ATOM     12  N   UNL     1       0.219  12.723  21.040  0.00  0.00    +0.000 N 
ENDROOT
BRANCH  12  13
ATOM     13  C   UNL     1      -1.013  12.798  21.775  0.00  0.00    +0.000 A 
ATOM     14  C   UNL     1      -2.007  13.698  21.344  0.00  0.00    +0.000 A 
ATOM     15  C   UNL     1      -3.278  13.712  21.931  0.00  0.00    +0.000 A 
ATOM     16  C   UNL     1      -3.572  12.839  22.980  0.00  0.00    +0.000 A 
ATOM     17  C   UNL     1      -4.961  12.734  23.533  0.00  0.00    +0.000 C 
ATOM     18  C   UNL     1      -2.562  12.002  23.465  0.00  0.00    +0.000 A 
ATOM     19  C   UNL     1      -1.291  11.995  22.881  0.00  0.00    +0.000 A 
ENDBRANCH  12  13
BRANCH   1  20
ATOM     20  S   UNL     1      -0.506  10.328  19.870  0.00  0.00    +0.000 S 
BRANCH  20  21
ATOM     21  C   UNL     1      -0.839  10.314  18.082  0.00  0.00    +0.000 C 
BRANCH  21  25
ATOM     22  C   UNL     1      -4.840  11.711  17.111  0.00  0.00    +0.000 A 
ATOM     23  C   UNL     1      -4.290  11.943  18.372  0.00  0.00    +0.000 A 
ATOM     24  C   UNL     1      -3.002  11.502  18.684  0.00  0.00    +0.000 A 
ATOM     25  C   UNL     1      -2.241  10.790  17.746  0.00  0.00    +0.000 A 
ATOM     26  C   UNL     1      -2.802  10.558  16.479  0.00  0.00    +0.000 A 
ATOM     27  C   UNL     1      -4.092  11.016  16.162  0.00  0.00    +0.000 A 
BRANCH  22  29
ATOM     28  C   UNL     1      -7.016  11.967  18.025  0.00  0.00    +0.000 C 
ATOM     29  O   UNL     1      -6.116  12.176  16.945  0.00  0.00    +0.000 OA
ENDBRANCH  22  29
ENDBRANCH  21  25
ENDBRANCH  20  21
ENDBRANCH   1  20
TORSDOF 5
ENDMDL
MODEL 3
REMARK VINA RESULT:      -6.6      3.227      7.378
REMARK  Name = 
REMARK  8 active torsions:
REMARK  status: ('A' for Active; 'I' for Inactive)
REMARK    1  A    between atoms: C_1  and  O_2
REMARK    2  A    between atoms: O_2  and  C_3
REMARK    3  A    between atoms: C_6  and  C_7
REMARK    4  A    between atoms: C_7  and  S_8
REMARK    5  A    between atoms: S_8  and  C_9
REMARK    6  A    between atoms: C_14  and  C_15
REMARK    7  A    between atoms: N_20  and  C_21
REMARK    8  A    between atoms: C_24  and  C_25
REMARK                            x       y       z     vdW  Elec       q    Type
REMARK                         _______ _______ _______ _____ _____    ______ ____
ROOT
ATOM      1  C   UNL     1       0.894  11.796  19.700  0.00  0.00    +0.000 A 
ATOM      2  N   UNL     1       1.887  12.068  18.912  0.00  0.00    +0.000 NA
ATOM      3  C   UNL     1       2.556  13.284  19.069  0.00  0.00    +0.000 A 
ATOM      4  C   UNL     1       3.413  13.722  18.061  0.00  0.00    +0.000 A 
ATOM      5  C   UNL     1       4.039  14.971  18.148  0.00  0.00    +0.000 A 
ATOM      6  C   UNL     1       3.834  15.795  19.258  0.00  0.00    +0.000 A 
ATOM      7  C   UNL     1       4.459  17.155  19.343  0.00  0.00    +0.000 C 
ATOM      8  C   UNL     1       3.000  15.343  20.286  0.00  0.00    +0.000 A 
ATOM      9  C   UNL     1       2.352  14.107  20.167  0.00  0.00    +0.000 A 
ATOM     10  C   UNL     1       1.346  13.682  21.149  0.00  0.00    +0.000 A 
ATOM     11  O   UNL     1       1.308  14.273  22.229  0.00  0.00    +0.000 OA
ATOM     12  N   UNL     1       0.511  12.625  20.769  0.00  0.00    +0.000 N 
ENDROOT
BRANCH  12  13
ATOM     13  C   UNL     1      -0.749  12.545  21.455  0.00  0.00    +0.000 A 
ATOM     14  C   UNL     1      -0.861  11.692  22.571  0.00  0.00    +0.000 A 
ATOM     15  C   UNL     1      -2.015  11.681  23.363  0.00  0.00    +0.000 A 
ATOM     16  C   UNL     1      -3.092  12.507  23.039  0.00  0.00    +0.000 A 
ATOM     17  C   UNL     1      -4.281  12.618  23.945  0.00  0.00    +0.000 C 
ATOM     18  C   UNL     1      -3.017  13.293  21.885  0.00  0.00    +0.000 A 
ATOM     19  C   UNL     1      -1.865  13.298  21.091  0.00  0.00    +0.000 A 
ENDBRANCH  12  13
BRANCH   1  20
ATOM     20  S   UNL     1      -0.018  10.336  19.318  0.00  0.00    +0.000 S 
BRANCH  20  21
ATOM     21  C   UNL     1       0.771   9.090  20.382  0.00  0.00    +0.000 C 
BRANCH  21  25
ATOM     22  C   UNL     1       3.427   6.452  18.171  0.00  0.00    +0.000 A 
ATOM     23  C   UNL     1       2.956   6.094  19.436  0.00  0.00    +0.000 A 
ATOM     24  C   UNL     1       2.096   6.936  20.144  0.00  0.00    +0.000 A 
ATOM     25  C   UNL     1       1.709   8.175  19.614  0.00  0.00    +0.000 A 
ATOM     26  C   UNL     1       2.188   8.529  18.342  0.00  0.00    +0.000 A 
ATOM     27  C   UNL     1       3.040   7.674  17.625  0.00  0.00    +0.000 A 
BRANCH  22  29
ATOM     28  C   UNL     1       4.243   4.223  18.113  0.00  0.00    +0.000 C 
ATOM     29  O   UNL     1       4.278   5.547  17.597  0.00  0.00    +0.000 OA
ENDBRANCH  22  29
ENDBRANCH  21  25
ENDBRANCH  20  21
ENDBRANCH   1  20
TORSDOF 5
ENDMDL
MODEL 4
REMARK VINA RESULT:      -6.6      1.603      2.086
REMARK  Name = 
REMARK  8 active torsions:
REMARK  status: ('A' for Active; 'I' for Inactive)
REMARK    1  A    between atoms: C_1  and  O_2
REMARK    2  A    between atoms: O_2  and  C_3
REMARK    3  A    between atoms: C_6  and  C_7
REMARK    4  A    between atoms: C_7  and  S_8
REMARK    5  A    between atoms: S_8  and  C_9
REMARK    6  A    between atoms: C_14  and  C_15
REMARK    7  A    between atoms: N_20  and  C_21
REMARK    8  A    between atoms: C_24  and  C_25
REMARK                            x       y       z     vdW  Elec       q    Type
REMARK                         _______ _______ _______ _____ _____    ______ ____
ROOT
ATOM      1  C   UNL     1       1.544   8.505  21.002  0.00  0.00    +0.000 A 
ATOM      2  N   UNL     1       1.706   7.262  21.332  0.00  0.00    +0.000 NA
ATOM      3  C   UNL     1       1.873   6.314  20.319  0.00  0.00    +0.000 A 
ATOM      4  C   UNL     1       1.748   4.962  20.628  0.00  0.00    +0.000 A 
ATOM      5  C   UNL     1       1.831   3.988  19.626  0.00  0.00    +0.000 A 
ATOM      6  C   UNL     1       2.060   4.353  18.296  0.00  0.00    +0.000 A 
ATOM      7  C   UNL     1       2.104   3.327  17.204  0.00  0.00    +0.000 C 
ATOM      8  C   UNL     1       2.219   5.709  17.989  0.00  0.00    +0.000 A 
ATOM      9  C   UNL     1       2.097   6.672  18.998  0.00  0.00    +0.000 A 
ATOM     10  C   UNL     1       2.093   8.106  18.679  0.00  0.00    +0.000 A 
ATOM     11  O   UNL     1       2.506   8.452  17.571  0.00  0.00    +0.000 OA
ATOM     12  N   UNL     1       1.618   8.966  19.676  0.00  0.00    +0.000 N 
ENDROOT
BRANCH  12  13
ATOM     13  C   UNL     1       1.137  10.242  19.225  0.00  0.00    +0.000 A 
ATOM     14  C   UNL     1      -0.210  10.359  18.828  0.00  0.00    +0.000 A 
ATOM     15  C   UNL     1      -0.770  11.604  18.518  0.00  0.00    +0.000 A 
ATOM     16  C   UNL     1       0.015  12.756  18.576  0.00  0.00    +0.000 A 
ATOM     17  C   UNL     1      -0.590  14.114  18.386  0.00  0.00    +0.000 C 
ATOM     18  C   UNL     1       1.373  12.634  18.889  0.00  0.00    +0.000 A 
ATOM     19  C   UNL     1       1.931  11.388  19.192  0.00  0.00    +0.000 A 
ENDBRANCH  12  13
BRANCH   1  20
ATOM     20  S   UNL     1       1.149   9.609  22.320  0.00  0.00    +0.000 S 
BRANCH  20  21
ATOM     21  C   UNL     1      -0.647   9.823  22.128  0.00  0.00    +0.000 C 
BRANCH  21  25
ATOM     22  C   UNL     1      -1.952  13.840  23.160  0.00  0.00    +0.000 A 
ATOM     23  C   UNL     1      -2.708  12.726  23.530  0.00  0.00    +0.000 A 
ATOM     24  C   UNL     1      -2.286  11.435  23.207  0.00  0.00    +0.000 A 
ATOM     25  C   UNL     1      -1.108  11.227  22.477  0.00  0.00    +0.000 A 
ATOM     26  C   UNL     1      -0.353  12.353  22.105  0.00  0.00    +0.000 A 
ATOM     27  C   UNL     1      -0.771  13.650  22.445  0.00  0.00    +0.000 A 
BRANCH  22  29
ATOM     28  C   UNL     1      -3.616  15.009  24.385  0.00  0.00    +0.000 C 
ATOM     29  O   UNL     1      -2.489  15.046  23.520  0.00  0.00    +0.000 OA
ENDBRANCH  22  29
ENDBRANCH  21  25
ENDBRANCH  20  21
ENDBRANCH   1  20
TORSDOF 5
ENDMDL
MODEL 5
REMARK VINA RESULT:      -6.5      2.940      7.254
REMARK  Name = 
REMARK  8 active torsions:
REMARK  status: ('A' for Active; 'I' for Inactive)
REMARK    1  A    between atoms: C_1  and  O_2
REMARK    2  A    between atoms: O_2  and  C_3
REMARK    3  A    between atoms: C_6  and  C_7
REMARK    4  A    between atoms: C_7  and  S_8
REMARK    5  A    between atoms: S_8  and  C_9
REMARK    6  A    between atoms: C_14  and  C_15
REMARK    7  A    between atoms: N_20  and  C_21
REMARK    8  A    between atoms: C_24  and  C_25
REMARK                            x       y       z     vdW  Elec       q    Type
REMARK                         _______ _______ _______ _____ _____    ______ ____
ROOT
ATOM      1  C   UNL     1       0.343  11.434  20.344  0.00  0.00    +0.000 A 
ATOM      2  N   UNL     1       1.372  11.552  19.563  0.00  0.00    +0.000 NA
ATOM      3  C   UNL     1       1.834  12.833  19.252  0.00  0.00    +0.000 A 
ATOM      4  C   UNL     1       2.731  12.992  18.198  0.00  0.00    +0.000 A 
ATOM      5  C   UNL     1       3.155  14.268  17.807  0.00  0.00    +0.000 A 
ATOM      6  C   UNL     1       2.702  15.407  18.479  0.00  0.00    +0.000 A 
ATOM      7  C   UNL     1       3.109  16.781  18.042  0.00  0.00    +0.000 C 
ATOM      8  C   UNL     1       1.827  15.246  19.559  0.00  0.00    +0.000 A 
ATOM      9  C   UNL     1       1.384  13.966  19.914  0.00  0.00    +0.000 A 
ATOM     10  C   UNL     1       0.342  13.781  20.932  0.00  0.00    +0.000 A 
ATOM     11  O   UNL     1       0.090  14.728  21.679  0.00  0.00    +0.000 OA
ATOM     12  N   UNL     1      -0.281  12.528  20.967  0.00  0.00    +0.000 N 
ENDROOT
BRANCH  12  13
ATOM     13  C   UNL     1      -1.588  12.494  21.564  0.00  0.00    +0.000 A 
ATOM     14  C   UNL     1      -1.702  12.182  22.932  0.00  0.00    +0.000 A 
ATOM     15  C   UNL     1      -2.930  12.274  23.598  0.00  0.00    +0.000 A 
ATOM     16  C   UNL     1      -4.075  12.659  22.900  0.00  0.00    +0.000 A 
ATOM     17  C   UNL     1      -5.371  12.901  23.613  0.00  0.00    +0.000 C 
ATOM     18  C   UNL     1      -3.982  12.890  21.524  0.00  0.00    +0.000 A 
ATOM     19  C   UNL     1      -2.755  12.791  20.859  0.00  0.00    +0.000 A 
ENDBRANCH  12  13
BRANCH   1  20
ATOM     20  S   UNL     1      -0.297   9.800  20.535  0.00  0.00    +0.000 S 
BRANCH  20  21
ATOM     21  C   UNL     1       1.126   8.900  21.224  0.00  0.00    +0.000 C 
BRANCH  21  25
ATOM     22  C   UNL     1       2.638   5.817  18.557  0.00  0.00    +0.000 A 
ATOM     23  C   UNL     1       2.575   7.150  18.145  0.00  0.00    +0.000 A 
ATOM     24  C   UNL     1       2.098   8.143  19.003  0.00  0.00    +0.000 A 
ATOM     25  C   UNL     1       1.642   7.821  20.289  0.00  0.00    +0.000 A 
ATOM     26  C   UNL     1       1.706   6.478  20.696  0.00  0.00    +0.000 A 
ATOM     27  C   UNL     1       2.202   5.482  19.837  0.00  0.00    +0.000 A 
BRANCH  22  29
ATOM     28  C   UNL     1       4.352   4.317  17.888  0.00  0.00    +0.000 C 
ATOM     29  O   UNL     1       3.106   4.944  17.613  0.00  0.00    +0.000 OA
ENDBRANCH  22  29
ENDBRANCH  21  25
ENDBRANCH  20  21
ENDBRANCH   1  20
TORSDOF 5
ENDMDL
MODEL 6
REMARK VINA RESULT:      -6.5      3.577      7.353
REMARK  Name = 
REMARK  8 active torsions:
REMARK  status: ('A' for Active; 'I' for Inactive)
REMARK    1  A    between atoms: C_1  and  O_2
REMARK    2  A    between atoms: O_2  and  C_3
REMARK    3  A    between atoms: C_6  and  C_7
REMARK    4  A    between atoms: C_7  and  S_8
REMARK    5  A    between atoms: S_8  and  C_9
REMARK    6  A    between atoms: C_14  and  C_15
REMARK    7  A    between atoms: N_20  and  C_21
REMARK    8  A    between atoms: C_24  and  C_25
REMARK                            x       y       z     vdW  Elec       q    Type
REMARK                         _______ _______ _______ _____ _____    ______ ____
ROOT
ATOM      1  C   UNL     1       1.299  12.175  19.490  0.00  0.00    +0.000 A 
ATOM      2  N   UNL     1       2.295  12.537  18.743  0.00  0.00    +0.000 NA
ATOM      3  C   UNL     1       2.960  13.729  19.042  0.00  0.00    +0.000 A 
ATOM      4  C   UNL     1       3.821  14.280  18.095  0.00  0.00    +0.000 A 
ATOM      5  C   UNL     1       4.444  15.512  18.328  0.00  0.00    +0.000 A 
ATOM      6  C   UNL     1       4.230  16.204  19.523  0.00  0.00    +0.000 A 
ATOM      7  C   UNL     1       4.851  17.546  19.767  0.00  0.00    +0.000 C 
ATOM      8  C   UNL     1       3.391  15.635  20.488  0.00  0.00    +0.000 A 
ATOM      9  C   UNL     1       2.748  14.420  20.225  0.00  0.00    +0.000 A 
ATOM     10  C   UNL     1       1.738  13.883  21.147  0.00  0.00    +0.000 A 
ATOM     11  O   UNL     1       1.692  14.347  22.287  0.00  0.00    +0.000 OA
ATOM     12  N   UNL     1       0.907  12.876  20.643  0.00  0.00    +0.000 N 
ENDROOT
BRANCH  12  13
ATOM     13  C   UNL     1      -0.356  12.714  21.309  0.00  0.00    +0.000 A 
ATOM     14  C   UNL     1      -0.501  11.676  22.250  0.00  0.00    +0.000 A 
ATOM     15  C   UNL     1      -1.656  11.560  23.031  0.00  0.00    +0.000 A 
ATOM     16  C   UNL     1      -2.703  12.468  22.869  0.00  0.00    +0.000 A 
ATOM     17  C   UNL     1      -3.889  12.453  23.785  0.00  0.00    +0.000 C 
ATOM     18  C   UNL     1      -2.598  13.450  21.878  0.00  0.00    +0.000 A 
ATOM     19  C   UNL     1      -1.444  13.560  21.094  0.00  0.00    +0.000 A 
ENDBRANCH  12  13
BRANCH   1  20
ATOM     20  S   UNL     1       0.392  10.766  18.937  0.00  0.00    +0.000 S 
BRANCH  20  21
ATOM     21  C   UNL     1       1.637   9.849  17.980  0.00  0.00    +0.000 C 
BRANCH  21  25
ATOM     22  C   UNL     1       2.560   5.963  19.700  0.00  0.00    +0.000 A 
ATOM     23  C   UNL     1       2.913   6.264  18.383  0.00  0.00    +0.000 A 
ATOM     24  C   UNL     1       2.626   7.514  17.832  0.00  0.00    +0.000 A 
ATOM     25  C   UNL     1       1.948   8.488  18.578  0.00  0.00    +0.000 A 
ATOM     26  C   UNL     1       1.593   8.178  19.901  0.00  0.00    +0.000 A 
ATOM     27  C   UNL     1       1.898   6.925  20.460  0.00  0.00    +0.000 A 
BRANCH  22  29
ATOM     28  C   UNL     1       2.204   4.209  21.259  0.00  0.00    +0.000 C 
ATOM     29  O   UNL     1       2.881   4.698  20.109  0.00  0.00    +0.000 OA
ENDBRANCH  22  29
ENDBRANCH  21  25
ENDBRANCH  20  21
ENDBRANCH   1  20
TORSDOF 5
ENDMDL
MODEL 7
REMARK VINA RESULT:      -6.5      2.957      6.749
REMARK  Name = 
REMARK  8 active torsions:
REMARK  status: ('A' for Active; 'I' for Inactive)
REMARK    1  A    between atoms: C_1  and  O_2
REMARK    2  A    between atoms: O_2  and  C_3
REMARK    3  A    between atoms: C_6  and  C_7
REMARK    4  A    between atoms: C_7  and  S_8
REMARK    5  A    between atoms: S_8  and  C_9
REMARK    6  A    between atoms: C_14  and  C_15
REMARK    7  A    between atoms: N_20  and  C_21
REMARK    8  A    between atoms: C_24  and  C_25
REMARK                            x       y       z     vdW  Elec       q    Type
REMARK                         _______ _______ _______ _____ _____    ______ ____
ROOT
ATOM      1  C   UNL     1       0.239  11.476  20.533  0.00  0.00    +0.000 A 
ATOM      2  N   UNL     1       1.247  12.009  21.150  0.00  0.00    +0.000 NA
ATOM      3  C   UNL     1       1.821  13.168  20.622  0.00  0.00    +0.000 A 
ATOM      4  C   UNL     1       3.068  13.580  21.089  0.00  0.00    +0.000 A 
ATOM      5  C   UNL     1       3.709  14.690  20.528  0.00  0.00    +0.000 A 
ATOM      6  C   UNL     1       3.104  15.420  19.501  0.00  0.00    +0.000 A 
ATOM      7  C   UNL     1       3.799  16.582  18.857  0.00  0.00    +0.000 C 
ATOM      8  C   UNL     1       1.838  15.026  19.053  0.00  0.00    +0.000 A 
ATOM      9  C   UNL     1       1.225  13.892  19.600  0.00  0.00    +0.000 A 
ATOM     10  C   UNL     1      -0.024  13.360  19.038  0.00  0.00    +0.000 A 
ATOM     11  O   UNL     1      -0.679  14.092  18.295  0.00  0.00    +0.000 OA
ATOM     12  N   UNL     1      -0.366  12.054  19.403  0.00  0.00    +0.000 N 
ENDROOT
BRANCH  12  13
ATOM     13  C   UNL     1      -1.250  11.363  18.506  0.00  0.00    +0.000 A 
ATOM     14  C   UNL     1      -2.581  11.808  18.388  0.00  0.00    +0.000 A 
ATOM     15  C   UNL     1      -3.445  11.269  17.428  0.00  0.00    +0.000 A 
ATOM     16  C   UNL     1      -3.000  10.254  16.580  0.00  0.00    +0.000 A 
ATOM     17  C   UNL     1      -3.854   9.755  15.454  0.00  0.00    +0.000 C 
ATOM     18  C   UNL     1      -1.705   9.751  16.749  0.00  0.00    +0.000 A 
ATOM     19  C   UNL     1      -0.846  10.288  17.714  0.00  0.00    +0.000 A 
ENDBRANCH  12  13
BRANCH   1  20
ATOM     20  S   UNL     1      -0.307   9.916  21.151  0.00  0.00    +0.000 S 
BRANCH  20  21
ATOM     21  C   UNL     1       1.258   9.088  21.566  0.00  0.00    +0.000 C 
BRANCH  21  25
ATOM     22  C   UNL     1       2.388   6.040  18.679  0.00  0.00    +0.000 A 
ATOM     23  C   UNL     1       2.303   7.382  18.304  0.00  0.00    +0.000 A 
ATOM     24  C   UNL     1       1.948   8.364  19.232  0.00  0.00    +0.000 A 
ATOM     25  C   UNL     1       1.641   8.021  20.556  0.00  0.00    +0.000 A 
ATOM     26  C   UNL     1       1.726   6.668  20.926  0.00  0.00    +0.000 A 
ATOM     27  C   UNL     1       2.098   5.684  19.995  0.00  0.00    +0.000 A 
BRANCH  22  29
ATOM     28  C   UNL     1       2.027   3.942  17.628  0.00  0.00    +0.000 C 
ATOM     29  O   UNL     1       2.725   5.180  17.669  0.00  0.00    +0.000 OA
ENDBRANCH  22  29
ENDBRANCH  21  25
ENDBRANCH  20  21
ENDBRANCH   1  20
TORSDOF 5
ENDMDL
MODEL 8
REMARK VINA RESULT:      -6.5      2.205      4.579
REMARK  Name = 
REMARK  8 active torsions:
REMARK  status: ('A' for Active; 'I' for Inactive)
REMARK    1  A    between atoms: C_1  and  O_2
REMARK    2  A    between atoms: O_2  and  C_3
REMARK    3  A    between atoms: C_6  and  C_7
REMARK    4  A    between atoms: C_7  and  S_8
REMARK    5  A    between atoms: S_8  and  C_9
REMARK    6  A    between atoms: C_14  and  C_15
REMARK    7  A    between atoms: N_20  and  C_21
REMARK    8  A    between atoms: C_24  and  C_25
REMARK                            x       y       z     vdW  Elec       q    Type
REMARK                         _______ _______ _______ _____ _____    ______ ____
ROOT
ATOM      1  C   UNL     1      -0.315  10.815  18.969  0.00  0.00    +0.000 A 
ATOM      2  N   UNL     1       0.231  10.052  18.074  0.00  0.00    +0.000 NA
ATOM      3  C   UNL     1       1.037   8.992  18.498  0.00  0.00    +0.000 A 
ATOM      4  C   UNL     1       1.861   8.356  17.572  0.00  0.00    +0.000 A 
ATOM      5  C   UNL     1       2.739   7.342  17.975  0.00  0.00    +0.000 A 
ATOM      6  C   UNL     1       2.792   6.935  19.311  0.00  0.00    +0.000 A 
ATOM      7  C   UNL     1       3.760   5.885  19.766  0.00  0.00    +0.000 C 
ATOM      8  C   UNL     1       1.941   7.551  20.235  0.00  0.00    +0.000 A 
ATOM      9  C   UNL     1       1.094   8.587  19.823  0.00  0.00    +0.000 A 
ATOM     10  C   UNL     1       0.314   9.361  20.798  0.00  0.00    +0.000 A 
ATOM     11  O   UNL     1       0.175   8.891  21.928  0.00  0.00    +0.000 OA
ATOM     12  N   UNL     1      -0.212  10.578  20.351  0.00  0.00    +0.000 N 
ENDROOT
BRANCH  12  13
ATOM     13  C   UNL     1      -0.512  11.543  21.371  0.00  0.00    +0.000 A 
ATOM     14  C   UNL     1       0.276  12.708  21.458  0.00  0.00    +0.000 A 
ATOM     15  C   UNL     1      -0.056  13.746  22.335  0.00  0.00    +0.000 A 
ATOM     16  C   UNL     1      -1.174  13.630  23.163  0.00  0.00    +0.000 A 
ATOM     17  C   UNL     1      -1.633  14.779  24.008  0.00  0.00    +0.000 C 
ATOM     18  C   UNL     1      -1.911  12.441  23.140  0.00  0.00    +0.000 A 
ATOM     19  C   UNL     1      -1.572  11.402  22.266  0.00  0.00    +0.000 A 
ENDBRANCH  12  13
BRANCH   1  20
ATOM     20  S   UNL     1      -1.157  12.240  18.358  0.00  0.00    +0.000 S 
BRANCH  20  21
ATOM     21  C   UNL     1      -2.486  11.510  17.354  0.00  0.00    +0.000 C 
BRANCH  21  25
ATOM     22  C   UNL     1      -6.398  11.947  19.201  0.00  0.00    +0.000 A 
ATOM     23  C   UNL     1      -5.235  12.253  19.910  0.00  0.00    +0.000 A 
ATOM     24  C   UNL     1      -3.978  12.121  19.316  0.00  0.00    +0.000 A 
ATOM     25  C   UNL     1      -3.852  11.651  18.002  0.00  0.00    +0.000 A 
ATOM     26  C   UNL     1      -5.027  11.343  17.295  0.00  0.00    +0.000 A 
ATOM     27  C   UNL     1      -6.291  11.491  17.889  0.00  0.00    +0.000 A 
BRANCH  22  29
ATOM     28  C   UNL     1      -7.662  11.382  21.129  0.00  0.00    +0.000 C 
ATOM     29  O   UNL     1      -7.560  12.100  19.907  0.00  0.00    +0.000 OA
ENDBRANCH  22  29
ENDBRANCH  21  25
ENDBRANCH  20  21
ENDBRANCH   1  20
TORSDOF 5
ENDMDL
MODEL 9
REMARK VINA RESULT:      -6.4      2.954      6.451
REMARK  Name = 
REMARK  8 active torsions:
REMARK  status: ('A' for Active; 'I' for Inactive)
REMARK    1  A    between atoms: C_1  and  O_2
REMARK    2  A    between atoms: O_2  and  C_3
REMARK    3  A    between atoms: C_6  and  C_7
REMARK    4  A    between atoms: C_7  and  S_8
REMARK    5  A    between atoms: S_8  and  C_9
REMARK    6  A    between atoms: C_14  and  C_15
REMARK    7  A    between atoms: N_20  and  C_21
REMARK    8  A    between atoms: C_24  and  C_25
REMARK                            x       y       z     vdW  Elec       q    Type
REMARK                         _______ _______ _______ _____ _____    ______ ____
ROOT
ATOM      1  C   UNL     1      -0.519  11.676  18.474  0.00  0.00    +0.000 A 
ATOM      2  N   UNL     1      -0.946  12.901  18.485  0.00  0.00    +0.000 NA
ATOM      3  C   UNL     1      -0.021  13.933  18.658  0.00  0.00    +0.000 A 
ATOM      4  C   UNL     1      -0.482  15.211  18.970  0.00  0.00    +0.000 A 
ATOM      5  C   UNL     1       0.418  16.252  19.227  0.00  0.00    +0.000 A 
ATOM      6  C   UNL     1       1.797  16.036  19.157  0.00  0.00    +0.000 A 
ATOM      7  C   UNL     1       2.773  17.127  19.477  0.00  0.00    +0.000 C 
ATOM      8  C   UNL     1       2.260  14.761  18.812  0.00  0.00    +0.000 A 
ATOM      9  C   UNL     1       1.348  13.722  18.593  0.00  0.00    +0.000 A 
ATOM     10  C   UNL     1       1.807  12.341  18.392  0.00  0.00    +0.000 A 
ATOM     11  O   UNL     1       2.993  12.162  18.112  0.00  0.00    +0.000 OA
ATOM     12  N   UNL     1       0.844  11.336  18.537  0.00  0.00    +0.000 N 
ENDROOT
BRANCH  12  13
ATOM     13  C   UNL     1       1.346  10.027  18.850  0.00  0.00    +0.000 A 
ATOM     14  C   UNL     1       1.225   9.550  20.170  0.00  0.00    +0.000 A 
ATOM     15  C   UNL     1       1.564   8.233  20.500  0.00  0.00    +0.000 A 
ATOM     16  C   UNL     1       2.055   7.371  19.518  0.00  0.00    +0.000 A 
ATOM     17  C   UNL     1       2.295   5.921  19.810  0.00  0.00    +0.000 C 
ATOM     18  C   UNL     1       2.256   7.866  18.225  0.00  0.00    +0.000 A 
ATOM     19  C   UNL     1       1.922   9.185  17.899  0.00  0.00    +0.000 A 
ENDBRANCH  12  13
BRANCH   1  20
ATOM     20  S   UNL     1      -1.762  10.425  18.445  0.00  0.00    +0.000 S 
BRANCH  20  21
ATOM     21  C   UNL     1      -2.916  11.048  17.184  0.00  0.00    +0.000 C 
BRANCH  21  25
ATOM     22  C   UNL     1      -6.567  12.666  18.904  0.00  0.00    +0.000 A 
ATOM     23  C   UNL     1      -5.426  12.487  19.689  0.00  0.00    +0.000 A 
ATOM     24  C   UNL     1      -4.250  11.975  19.136  0.00  0.00    +0.000 A 
ATOM     25  C   UNL     1      -4.196  11.601  17.787  0.00  0.00    +0.000 A 
ATOM     26  C   UNL     1      -5.348  11.781  17.004  0.00  0.00    +0.000 A 
ATOM     27  C   UNL     1      -6.525  12.311  17.557  0.00  0.00    +0.000 A 
BRANCH  22  29
ATOM     28  C   UNL     1      -7.676  12.964  20.982  0.00  0.00    +0.000 C 
ATOM     29  O   UNL     1      -7.656  13.155  19.574  0.00  0.00    +0.000 OA
ENDBRANCH  22  29
ENDBRANCH  21  25
ENDBRANCH  20  21
ENDBRANCH   1  20
TORSDOF 5
ENDMDL
