MODEL 1
REMARK VINA RESULT:      -8.8      0.000      0.000
REMARK  Name = 
REMARK  1 active torsions:
REMARK  status: ('A' for Active; 'I' for Inactive)
REMARK    1  A    between atoms: C_2  and  C_4
REMARK                            x       y       z     vdW  Elec       q    Type
REMARK                         _______ _______ _______ _____ _____    ______ ____
ROOT
ATOM      1  C   UNL     1       3.672   2.605  20.239  0.00  0.00    +0.000 A 
ATOM      2  C   UNL     1       2.836   2.706  21.349  0.00  0.00    +0.000 A 
ATOM      3  C   UNL     1       2.087   3.880  21.578  0.00  0.00    +0.000 A 
ATOM      4  C   UNL     1       2.246   4.954  20.684  0.00  0.00    +0.000 A 
ATOM      5  N   UNL     1       1.686   6.211  20.652  0.00  0.00    +0.000 N 
ATOM      6  C   UNL     1       2.182   6.935  19.598  0.00  0.00    +0.000 A 
ATOM      7  N   UNL     1       1.826   8.192  19.298  0.00  0.00    +0.000 NA
ATOM      8  C   UNL     1       2.483   8.632  18.206  0.00  0.00    +0.000 A 
ATOM      9  N   UNL     1       3.417   7.992  17.467  0.00  0.00    +0.000 NA
ATOM     10  C   UNL     1       3.783   6.731  17.819  0.00  0.00    +0.000 A 
ATOM     11  N   UNL     1       4.756   6.041  17.097  0.00  0.00    +0.000 N 
ATOM     12  C   UNL     1       5.108   6.518  15.758  0.00  0.00    +0.000 C 
ATOM     13  C   UNL     1       5.739   5.341  14.988  0.00  0.00    +0.000 C 
ATOM     14  C   UNL     1       6.869   4.637  15.754  0.00  0.00    +0.000 C 
ATOM     15  C   UNL     1       6.491   4.370  17.204  0.00  0.00    +0.000 C 
ATOM     16  C   UNL     1       5.939   5.634  17.866  0.00  0.00    +0.000 C 
ATOM     17  C   UNL     1       3.096   6.148  18.917  0.00  0.00    +0.000 A 
ATOM     18  C   UNL     1       3.086   4.877  19.575  0.00  0.00    +0.000 A 
ATOM     19  C   UNL     1       3.744   3.661  19.339  0.00  0.00    +0.000 A 
ATOM     20  H   UNL     1       1.015   6.577  21.306  0.00  0.00    +0.000 HD
ENDROOT
BRANCH   1  22
ATOM     21  N   UNL     1       4.354   0.781  18.779  0.00  0.00    +0.000 N 
ATOM     22  C   UNL     1       4.558   1.444  19.948  0.00  0.00    +0.000 C 
ATOM     23  O   UNL     1       5.456   1.111  20.715  0.00  0.00    +0.000 OA
ATOM     24  H   UNL     1       5.070   0.108  18.528  0.00  0.00    +0.000 HD
ATOM     25  H   UNL     1       3.822   1.191  18.027  0.00  0.00    +0.000 HD
ENDBRANCH   1  22
TORSDOF 1
ENDMDL
MODEL 2
REMARK VINA RESULT:      -7.1      7.689     11.026
REMARK  Name = 
REMARK  1 active torsions:
REMARK  status: ('A' for Active; 'I' for Inactive)
REMARK    1  A    between atoms: C_2  and  C_4
REMARK                            x       y       z     vdW  Elec       q    Type
REMARK                         _______ _______ _______ _____ _____    ______ ____
ROOT
ATOM      1  C   UNL     1      -4.577  11.479  17.325  0.00  0.00    +0.000 A 
ATOM      2  C   UNL     1      -4.085  10.952  16.133  0.00  0.00    +0.000 A 
ATOM      3  C   UNL     1      -2.775  10.435  16.066  0.00  0.00    +0.000 A 
ATOM      4  C   UNL     1      -1.970  10.510  17.216  0.00  0.00    +0.000 A 
ATOM      5  N   UNL     1      -0.670  10.123  17.455  0.00  0.00    +0.000 N 
ATOM      6  C   UNL     1      -0.299  10.441  18.736  0.00  0.00    +0.000 A 
ATOM      7  N   UNL     1       0.906  10.186  19.269  0.00  0.00    +0.000 NA
ATOM      8  C   UNL     1       0.968  10.614  20.546  0.00  0.00    +0.000 A 
ATOM      9  N   UNL     1       0.023  11.256  21.269  0.00  0.00    +0.000 NA
ATOM     10  C   UNL     1      -1.174  11.532  20.688  0.00  0.00    +0.000 A 
ATOM     11  N   UNL     1      -2.170  12.210  21.391  0.00  0.00    +0.000 N 
ATOM     12  C   UNL     1      -2.071  12.289  22.849  0.00  0.00    +0.000 C 
ATOM     13  C   UNL     1      -3.482  12.564  23.404  0.00  0.00    +0.000 C 
ATOM     14  C   UNL     1      -4.193  13.745  22.728  0.00  0.00    +0.000 C 
ATOM     15  C   UNL     1      -4.062  13.693  21.212  0.00  0.00    +0.000 C 
ATOM     16  C   UNL     1      -2.605  13.481  20.797  0.00  0.00    +0.000 C 
ATOM     17  C   UNL     1      -1.368  11.059  19.363  0.00  0.00    +0.000 A 
ATOM     18  C   UNL     1      -2.440  11.045  18.415  0.00  0.00    +0.000 A 
ATOM     19  C   UNL     1      -3.775  11.468  18.460  0.00  0.00    +0.000 A 
ATOM     20  H   UNL     1      -0.055   9.679  16.795  0.00  0.00    +0.000 HD
ENDROOT
BRANCH   1  22
ATOM     21  N   UNL     1      -6.045  13.405  17.075  0.00  0.00    +0.000 N 
ATOM     22  C   UNL     1      -5.915  12.116  17.483  0.00  0.00    +0.000 C 
ATOM     23  O   UNL     1      -6.872  11.496  17.938  0.00  0.00    +0.000 OA
ATOM     24  H   UNL     1      -6.996  13.756  17.036  0.00  0.00    +0.000 HD
ATOM     25  H   UNL     1      -5.369  13.834  16.461  0.00  0.00    +0.000 HD
ENDBRANCH   1  22
TORSDOF 1
ENDMDL
MODEL 3
REMARK VINA RESULT:      -6.7      8.527     11.556
REMARK  Name = 
REMARK  1 active torsions:
REMARK  status: ('A' for Active; 'I' for Inactive)
REMARK    1  A    between atoms: C_2  and  C_4
REMARK                            x       y       z     vdW  Elec       q    Type
REMARK                         _______ _______ _______ _____ _____    ______ ____
ROOT
ATOM      1  C   UNL     1      -6.307  12.712  20.933  0.00  0.00    +0.000 A 
ATOM      2  C   UNL     1      -7.448  12.901  20.156  0.00  0.00    +0.000 A 
ATOM      3  C   UNL     1      -7.436  12.593  18.780  0.00  0.00    +0.000 A 
ATOM      4  C   UNL     1      -6.233  12.137  18.211  0.00  0.00    +0.000 A 
ATOM      5  N   UNL     1      -5.903  11.784  16.922  0.00  0.00    +0.000 N 
ATOM      6  C   UNL     1      -4.579  11.436  16.840  0.00  0.00    +0.000 A 
ATOM      7  N   UNL     1      -3.960  11.040  15.717  0.00  0.00    +0.000 NA
ATOM      8  C   UNL     1      -2.662  10.765  15.954  0.00  0.00    +0.000 A 
ATOM      9  N   UNL     1      -1.972  10.877  17.112  0.00  0.00    +0.000 NA
ATOM     10  C   UNL     1      -2.620  11.316  18.223  0.00  0.00    +0.000 A 
ATOM     11  N   UNL     1      -1.943  11.464  19.433  0.00  0.00    +0.000 N 
ATOM     12  C   UNL     1      -0.649  10.801  19.601  0.00  0.00    +0.000 C 
ATOM     13  C   UNL     1      -0.389  10.646  21.111  0.00  0.00    +0.000 C 
ATOM     14  C   UNL     1      -0.568  11.948  21.906  0.00  0.00    +0.000 C 
ATOM     15  C   UNL     1      -1.842  12.682  21.512  0.00  0.00    +0.000 C 
ATOM     16  C   UNL     1      -1.943  12.822  19.992  0.00  0.00    +0.000 C 
ATOM     17  C   UNL     1      -4.012  11.566  18.096  0.00  0.00    +0.000 A 
ATOM     18  C   UNL     1      -5.079  11.952  18.969  0.00  0.00    +0.000 A 
ATOM     19  C   UNL     1      -5.161  12.188  20.349  0.00  0.00    +0.000 A 
ATOM     20  H   UNL     1      -6.524  11.785  16.131  0.00  0.00    +0.000 HD
ENDROOT
BRANCH   1  22
ATOM     21  N   UNL     1      -6.918  14.138  22.809  0.00  0.00    +0.000 N 
ATOM     22  C   UNL     1      -6.193  13.074  22.374  0.00  0.00    +0.000 C 
ATOM     23  O   UNL     1      -5.495  12.425  23.147  0.00  0.00    +0.000 OA
ATOM     24  H   UNL     1      -6.954  14.258  23.816  0.00  0.00    +0.000 HD
ATOM     25  H   UNL     1      -7.688  14.505  22.273  0.00  0.00    +0.000 HD
ENDBRANCH   1  22
TORSDOF 1
ENDMDL
MODEL 4
REMARK VINA RESULT:      -6.6      9.120     11.571
REMARK  Name = 
REMARK  1 active torsions:
REMARK  status: ('A' for Active; 'I' for Inactive)
REMARK    1  A    between atoms: C_2  and  C_4
REMARK                            x       y       z     vdW  Elec       q    Type
REMARK                         _______ _______ _______ _____ _____    ______ ____
ROOT
ATOM      1  C   UNL     1      -5.221  11.415  17.823  0.00  0.00    +0.000 A 
ATOM      2  C   UNL     1      -4.715  11.212  16.541  0.00  0.00    +0.000 A 
ATOM      3  C   UNL     1      -3.323  11.217  16.311  0.00  0.00    +0.000 A 
ATOM      4  C   UNL     1      -2.471  11.477  17.399  0.00  0.00    +0.000 A 
ATOM      5  N   UNL     1      -1.100  11.571  17.489  0.00  0.00    +0.000 N 
ATOM      6  C   UNL     1      -0.720  11.887  18.768  0.00  0.00    +0.000 A 
ATOM      7  N   UNL     1       0.549  12.041  19.173  0.00  0.00    +0.000 NA
ATOM      8  C   UNL     1       0.603  12.347  20.485  0.00  0.00    +0.000 A 
ATOM      9  N   UNL     1      -0.418  12.532  21.351  0.00  0.00    +0.000 NA
ATOM     10  C   UNL     1      -1.694  12.404  20.901  0.00  0.00    +0.000 A 
ATOM     11  N   UNL     1      -2.777  12.606  21.756  0.00  0.00    +0.000 N 
ATOM     12  C   UNL     1      -2.545  12.585  23.201  0.00  0.00    +0.000 C 
ATOM     13  C   UNL     1      -3.888  12.276  23.891  0.00  0.00    +0.000 C 
ATOM     14  C   UNL     1      -5.045  13.172  23.423  0.00  0.00    +0.000 C 
ATOM     15  C   UNL     1      -5.079  13.307  21.907  0.00  0.00    +0.000 C 
ATOM     16  C   UNL     1      -3.699  13.678  21.361  0.00  0.00    +0.000 C 
ATOM     17  C   UNL     1      -1.859  12.013  19.546  0.00  0.00    +0.000 A 
ATOM     18  C   UNL     1      -2.958  11.695  18.686  0.00  0.00    +0.000 A 
ATOM     19  C   UNL     1      -4.342  11.595  18.884  0.00  0.00    +0.000 A 
ATOM     20  H   UNL     1      -0.448  11.442  16.734  0.00  0.00    +0.000 HD
ENDROOT
BRANCH   1  22
ATOM     21  N   UNL     1      -7.199  10.497  18.904  0.00  0.00    +0.000 N 
ATOM     22  C   UNL     1      -6.670  11.503  18.160  0.00  0.00    +0.000 C 
ATOM     23  O   UNL     1      -7.356  12.457  17.804  0.00  0.00    +0.000 OA
ATOM     24  H   UNL     1      -8.135  10.663  19.258  0.00  0.00    +0.000 HD
ATOM     25  H   UNL     1      -6.614   9.864  19.426  0.00  0.00    +0.000 HD
ENDBRANCH   1  22
TORSDOF 1
ENDMDL
MODEL 5
REMARK VINA RESULT:      -6.5      9.723     12.229
REMARK  Name = 
REMARK  1 active torsions:
REMARK  status: ('A' for Active; 'I' for Inactive)
REMARK    1  A    between atoms: C_2  and  C_4
REMARK                            x       y       z     vdW  Elec       q    Type
REMARK                         _______ _______ _______ _____ _____    ______ ____
ROOT
ATOM      1  C   UNL     1      -3.807  11.639  18.462  0.00  0.00    +0.000 A 
ATOM      2  C   UNL     1      -4.880  11.049  17.796  0.00  0.00    +0.000 A 
ATOM      3  C   UNL     1      -6.165  11.040  18.378  0.00  0.00    +0.000 A 
ATOM      4  C   UNL     1      -6.319  11.599  19.659  0.00  0.00    +0.000 A 
ATOM      5  N   UNL     1      -7.416  11.718  20.483  0.00  0.00    +0.000 N 
ATOM      6  C   UNL     1      -7.067  12.306  21.671  0.00  0.00    +0.000 A 
ATOM      7  N   UNL     1      -7.917  12.564  22.677  0.00  0.00    +0.000 NA
ATOM      8  C   UNL     1      -7.278  13.148  23.710  0.00  0.00    +0.000 A 
ATOM      9  N   UNL     1      -5.964  13.441  23.834  0.00  0.00    +0.000 NA
ATOM     10  C   UNL     1      -5.123  13.135  22.811  0.00  0.00    +0.000 A 
ATOM     11  N   UNL     1      -3.757  13.403  22.905  0.00  0.00    +0.000 N 
ATOM     12  C   UNL     1      -3.293  14.340  23.928  0.00  0.00    +0.000 C 
ATOM     13  C   UNL     1      -1.917  14.877  23.489  0.00  0.00    +0.000 C 
ATOM     14  C   UNL     1      -0.918  13.775  23.104  0.00  0.00    +0.000 C 
ATOM     15  C   UNL     1      -1.552  12.724  22.204  0.00  0.00    +0.000 C 
ATOM     16  C   UNL     1      -2.877  12.232  22.790  0.00  0.00    +0.000 C 
ATOM     17  C   UNL     1      -5.709  12.579  21.644  0.00  0.00    +0.000 A 
ATOM     18  C   UNL     1      -5.256  12.183  20.345  0.00  0.00    +0.000 A 
ATOM     19  C   UNL     1      -4.017  12.246  19.693  0.00  0.00    +0.000 A 
ATOM     20  H   UNL     1      -8.351  11.413  20.271  0.00  0.00    +0.000 HD
ENDROOT
BRANCH   1  22
ATOM     21  N   UNL     1      -2.208  11.685  16.627  0.00  0.00    +0.000 N 
ATOM     22  C   UNL     1      -2.400  11.636  17.971  0.00  0.00    +0.000 C 
ATOM     23  O   UNL     1      -1.449  11.619  18.746  0.00  0.00    +0.000 OA
ATOM     24  H   UNL     1      -1.253  11.852  16.329  0.00  0.00    +0.000 HD
ATOM     25  H   UNL     1      -2.944  11.971  15.999  0.00  0.00    +0.000 HD
ENDBRANCH   1  22
TORSDOF 1
ENDMDL
MODEL 6
REMARK VINA RESULT:      -6.5      9.778     12.080
REMARK  Name = 
REMARK  1 active torsions:
REMARK  status: ('A' for Active; 'I' for Inactive)
REMARK    1  A    between atoms: C_2  and  C_4
REMARK                            x       y       z     vdW  Elec       q    Type
REMARK                         _______ _______ _______ _____ _____    ______ ____
ROOT
ATOM      1  C   UNL     1      10.209  12.051  18.907  0.00  0.00    +0.000 A 
ATOM      2  C   UNL     1      10.911  11.802  17.730  0.00  0.00    +0.000 A 
ATOM      3  C   UNL     1      11.292  12.866  16.885  0.00  0.00    +0.000 A 
ATOM      4  C   UNL     1      10.904  14.170  17.242  0.00  0.00    +0.000 A 
ATOM      5  N   UNL     1      11.100  15.386  16.627  0.00  0.00    +0.000 N 
ATOM      6  C   UNL     1      10.494  16.390  17.339  0.00  0.00    +0.000 A 
ATOM      7  N   UNL     1      10.512  17.687  16.998  0.00  0.00    +0.000 NA
ATOM      8  C   UNL     1       9.833  18.431  17.895  0.00  0.00    +0.000 A 
ATOM      9  N   UNL     1       9.160  18.022  18.994  0.00  0.00    +0.000 NA
ATOM     10  C   UNL     1       9.132  16.696  19.292  0.00  0.00    +0.000 A 
ATOM     11  N   UNL     1       8.433  16.229  20.406  0.00  0.00    +0.000 N 
ATOM     12  C   UNL     1       8.054  17.183  21.448  0.00  0.00    +0.000 C 
ATOM     13  C   UNL     1       7.821  16.393  22.751  0.00  0.00    +0.000 C 
ATOM     14  C   UNL     1       6.879  15.191  22.584  0.00  0.00    +0.000 C 
ATOM     15  C   UNL     1       7.220  14.371  21.348  0.00  0.00    +0.000 C 
ATOM     16  C   UNL     1       7.359  15.270  20.118  0.00  0.00    +0.000 C 
ATOM     17  C   UNL     1       9.878  15.833  18.447  0.00  0.00    +0.000 A 
ATOM     18  C   UNL     1      10.192  14.437  18.410  0.00  0.00    +0.000 A 
ATOM     19  C   UNL     1       9.910  13.360  19.262  0.00  0.00    +0.000 A 
ATOM     20  H   UNL     1      11.601  15.542  15.769  0.00  0.00    +0.000 HD
ENDROOT
BRANCH   1  22
ATOM     21  N   UNL     1       9.680  11.282  21.155  0.00  0.00    +0.000 N 
ATOM     22  C   UNL     1       9.696  10.997  19.827  0.00  0.00    +0.000 C 
ATOM     23  O   UNL     1       9.278   9.923  19.405  0.00  0.00    +0.000 OA
ATOM     24  H   UNL     1       9.175  10.622  21.737  0.00  0.00    +0.000 HD
ATOM     25  H   UNL     1       9.755  12.230  21.492  0.00  0.00    +0.000 HD
ENDBRANCH   1  22
TORSDOF 1
ENDMDL
MODEL 7
REMARK VINA RESULT:      -6.4      8.453     11.343
REMARK  Name = 
REMARK  1 active torsions:
REMARK  status: ('A' for Active; 'I' for Inactive)
REMARK    1  A    between atoms: C_2  and  C_4
REMARK                            x       y       z     vdW  Elec       q    Type
REMARK                         _______ _______ _______ _____ _____    ______ ____
ROOT
ATOM      1  C   UNL     1      -1.982  12.304  21.453  0.00  0.00    +0.000 A 
ATOM      2  C   UNL     1      -0.710  11.741  21.382  0.00  0.00    +0.000 A 
ATOM      3  C   UNL     1      -0.252  11.156  20.182  0.00  0.00    +0.000 A 
ATOM      4  C   UNL     1      -1.130  11.116  19.084  0.00  0.00    +0.000 A 
ATOM      5  N   UNL     1      -0.988  10.604  17.814  0.00  0.00    +0.000 N 
ATOM      6  C   UNL     1      -2.146  10.766  17.096  0.00  0.00    +0.000 A 
ATOM      7  N   UNL     1      -2.319  10.374  15.825  0.00  0.00    +0.000 NA
ATOM      8  C   UNL     1      -3.561  10.672  15.393  0.00  0.00    +0.000 A 
ATOM      9  N   UNL     1      -4.577  11.247  16.076  0.00  0.00    +0.000 NA
ATOM     10  C   UNL     1      -4.380  11.600  17.373  0.00  0.00    +0.000 A 
ATOM     11  N   UNL     1      -5.407  12.178  18.120  0.00  0.00    +0.000 N 
ATOM     12  C   UNL     1      -6.558  12.743  17.413  0.00  0.00    +0.000 C 
ATOM     13  C   UNL     1      -7.232  13.764  18.349  0.00  0.00    +0.000 C 
ATOM     14  C   UNL     1      -7.527  13.216  19.753  0.00  0.00    +0.000 C 
ATOM     15  C   UNL     1      -6.339  12.456  20.326  0.00  0.00    +0.000 C 
ATOM     16  C   UNL     1      -5.809  11.433  19.320  0.00  0.00    +0.000 C 
ATOM     17  C   UNL     1      -3.080  11.392  17.904  0.00  0.00    +0.000 A 
ATOM     18  C   UNL     1      -2.410  11.664  19.140  0.00  0.00    +0.000 A 
ATOM     19  C   UNL     1      -2.791  12.311  20.323  0.00  0.00    +0.000 A 
ATOM     20  H   UNL     1      -0.167  10.157  17.445  0.00  0.00    +0.000 HD
ENDROOT
BRANCH   1  22
ATOM     21  N   UNL     1      -3.771  12.356  23.103  0.00  0.00    +0.000 N 
ATOM     22  C   UNL     1      -2.588  12.878  22.687  0.00  0.00    +0.000 C 
ATOM     23  O   UNL     1      -2.030  13.768  23.322  0.00  0.00    +0.000 OA
ATOM     24  H   UNL     1      -4.074  12.644  24.027  0.00  0.00    +0.000 HD
ATOM     25  H   UNL     1      -4.101  11.465  22.766  0.00  0.00    +0.000 HD
ENDBRANCH   1  22
TORSDOF 1
ENDMDL
MODEL 8
REMARK VINA RESULT:      -6.4     10.219     12.103
REMARK  Name = 
REMARK  1 active torsions:
REMARK  status: ('A' for Active; 'I' for Inactive)
REMARK    1  A    between atoms: C_2  and  C_4
REMARK                            x       y       z     vdW  Elec       q    Type
REMARK                         _______ _______ _______ _____ _____    ______ ____
ROOT
ATOM      1  C   UNL     1      10.766  12.989  17.961  0.00  0.00    +0.000 A 
ATOM      2  C   UNL     1      10.706  11.597  17.959  0.00  0.00    +0.000 A 
ATOM      3  C   UNL     1      10.183  10.901  19.069  0.00  0.00    +0.000 A 
ATOM      4  C   UNL     1       9.770  11.647  20.187  0.00  0.00    +0.000 A 
ATOM      5  N   UNL     1       9.250  11.266  21.404  0.00  0.00    +0.000 N 
ATOM      6  C   UNL     1       9.035  12.361  22.202  0.00  0.00    +0.000 A 
ATOM      7  N   UNL     1       8.531  12.315  23.444  0.00  0.00    +0.000 NA
ATOM      8  C   UNL     1       8.435  13.552  23.971  0.00  0.00    +0.000 A 
ATOM      9  N   UNL     1       8.804  14.733  23.427  0.00  0.00    +0.000 NA
ATOM     10  C   UNL     1       9.346  14.742  22.180  0.00  0.00    +0.000 A 
ATOM     11  N   UNL     1       9.758  15.936  21.588  0.00  0.00    +0.000 N 
ATOM     12  C   UNL     1       9.271  17.200  22.142  0.00  0.00    +0.000 C 
ATOM     13  C   UNL     1       9.390  18.274  21.044  0.00  0.00    +0.000 C 
ATOM     14  C   UNL     1      10.777  18.335  20.387  0.00  0.00    +0.000 C 
ATOM     15  C   UNL     1      11.300  16.949  20.035  0.00  0.00    +0.000 C 
ATOM     16  C   UNL     1      11.181  16.002  21.231  0.00  0.00    +0.000 C 
ATOM     17  C   UNL     1       9.425  13.494  21.507  0.00  0.00    +0.000 A 
ATOM     18  C   UNL     1       9.833  13.039  20.213  0.00  0.00    +0.000 A 
ATOM     19  C   UNL     1      10.279  13.692  19.055  0.00  0.00    +0.000 A 
ATOM     20  H   UNL     1       9.058  10.323  21.696  0.00  0.00    +0.000 HD
ENDROOT
BRANCH   1  22
ATOM     21  N   UNL     1      12.132  13.171  15.955  0.00  0.00    +0.000 N 
ATOM     22  C   UNL     1      11.366  13.813  16.875  0.00  0.00    +0.000 C 
ATOM     23  O   UNL     1      11.158  15.020  16.794  0.00  0.00    +0.000 OA
ATOM     24  H   UNL     1      12.387  13.720  15.141  0.00  0.00    +0.000 HD
ATOM     25  H   UNL     1      12.093  12.170  15.843  0.00  0.00    +0.000 HD
ENDBRANCH   1  22
TORSDOF 1
ENDMDL
MODEL 9
REMARK VINA RESULT:      -6.4      9.771     11.458
REMARK  Name = 
REMARK  1 active torsions:
REMARK  status: ('A' for Active; 'I' for Inactive)
REMARK    1  A    between atoms: C_2  and  C_4
REMARK                            x       y       z     vdW  Elec       q    Type
REMARK                         _______ _______ _______ _____ _____    ______ ____
ROOT
ATOM      1  C   UNL     1      10.887  13.377  18.179  0.00  0.00    +0.000 A 
ATOM      2  C   UNL     1      11.704  12.308  18.541  0.00  0.00    +0.000 A 
ATOM      3  C   UNL     1      11.395  11.522  19.671  0.00  0.00    +0.000 A 
ATOM      4  C   UNL     1      10.273  11.876  20.441  0.00  0.00    +0.000 A 
ATOM      5  N   UNL     1       9.737  11.332  21.587  0.00  0.00    +0.000 N 
ATOM      6  C   UNL     1       8.646  12.054  22.000  0.00  0.00    +0.000 A 
ATOM      7  N   UNL     1       7.907  11.770  23.082  0.00  0.00    +0.000 NA
ATOM      8  C   UNL     1       6.902  12.657  23.226  0.00  0.00    +0.000 A 
ATOM      9  N   UNL     1       6.616  13.739  22.467  0.00  0.00    +0.000 NA
ATOM     10  C   UNL     1       7.407  14.020  21.398  0.00  0.00    +0.000 A 
ATOM     11  N   UNL     1       7.159  15.137  20.600  0.00  0.00    +0.000 N 
ATOM     12  C   UNL     1       5.848  15.783  20.683  0.00  0.00    +0.000 C 
ATOM     13  C   UNL     1       5.631  16.579  19.382  0.00  0.00    +0.000 C 
ATOM     14  C   UNL     1       6.801  17.507  19.022  0.00  0.00    +0.000 C 
ATOM     15  C   UNL     1       8.145  16.808  19.169  0.00  0.00    +0.000 C 
ATOM     16  C   UNL     1       8.252  16.114  20.528  0.00  0.00    +0.000 C 
ATOM     17  C   UNL     1       8.454  13.103  21.117  0.00  0.00    +0.000 A 
ATOM     18  C   UNL     1       9.450  12.948  20.101  0.00  0.00    +0.000 A 
ATOM     19  C   UNL     1       9.746  13.648  18.923  0.00  0.00    +0.000 A 
ATOM     20  H   UNL     1      10.086  10.527  22.079  0.00  0.00    +0.000 HD
ENDROOT
BRANCH   1  22
ATOM     21  N   UNL     1      11.443  13.764  15.841  0.00  0.00    +0.000 N 
ATOM     22  C   UNL     1      11.164  14.312  17.052  0.00  0.00    +0.000 C 
ATOM     23  O   UNL     1      11.115  15.529  17.200  0.00  0.00    +0.000 OA
ATOM     24  H   UNL     1      11.460  14.413  15.062  0.00  0.00    +0.000 HD
ATOM     25  H   UNL     1      11.223  12.801  15.635  0.00  0.00    +0.000 HD
ENDBRANCH   1  22
TORSDOF 1
ENDMDL
