MODEL 1
REMARK VINA RESULT:      -6.7      0.000      0.000
REMARK  Name = 
REMARK  8 active torsions:
REMARK  status: ('A' for Active; 'I' for Inactive)
REMARK    1  A    between atoms: C_1  and  C_2
REMARK    2  A    between atoms: C_2  and  C_4
REMARK    3  A    between atoms: C_7  and  O_8
REMARK    4  A    between atoms: O_8  and  C_9
REMARK    5  A    between atoms: C_9  and  C_10
REMARK    6  A    between atoms: C_10  and  C_11
REMARK    7  A    between atoms: C_11  and  C_12
REMARK    8  A    between atoms: C_12  and  C_13
REMARK                            x       y       z     vdW  Elec       q    Type
REMARK                         _______ _______ _______ _____ _____    ______ ____
ROOT
ATOM      1  O   UNL     1       3.800   5.713  19.940  0.00  0.00    +0.000 OA
ENDROOT
BRANCH   1   5
ATOM      2  C   UNL     1       5.975   5.103  16.428  0.00  0.00    +0.000 A 
ATOM      3  C   UNL     1       6.595   5.205  17.677  0.00  0.00    +0.000 A 
ATOM      4  C   UNL     1       5.828   5.410  18.827  0.00  0.00    +0.000 A 
ATOM      5  C   UNL     1       4.442   5.535  18.745  0.00  0.00    +0.000 A 
ATOM      6  C   UNL     1       3.819   5.424  17.501  0.00  0.00    +0.000 A 
ATOM      7  C   UNL     1       4.582   5.211  16.347  0.00  0.00    +0.000 A 
BRANCH   2   9
ATOM      8  C   UNL     1       6.239   3.855  14.186  0.00  0.00    +0.000 C 
ATOM      9  C   UNL     1       6.754   4.868  15.175  0.00  0.00    +0.000 C 
ATOM     10  O   UNL     1       7.783   5.502  14.963  0.00  0.00    +0.000 OA
ENDBRANCH   2   9
ENDBRANCH   1   5
BRANCH   1  11
ATOM     11  C   UNL     1       2.454   6.182  19.850  0.00  0.00    +0.000 C 
BRANCH  11  12
ATOM     12  C   UNL     1       1.523   5.076  20.342  0.00  0.00    +0.000 C 
BRANCH  12  13
ATOM     13  C   UNL     1       2.207   4.216  21.405  0.00  0.00    +0.000 C 
BRANCH  13  14
ATOM     14  C   UNL     1       2.069   2.728  21.089  0.00  0.00    +0.000 C 
BRANCH  14  15
ATOM     15  C   UNL     1       2.651   2.358  19.768  0.00  0.00    +0.000 A 
ATOM     16  C   UNL     1       3.964   2.089  19.447  0.00  0.00    +0.000 A 
ATOM     17  N   UNL     1       3.966   1.853  18.100  0.00  0.00    +0.000 N 
ATOM     18  C   UNL     1       2.680   1.983  17.658  0.00  0.00    +0.000 A 
ATOM     19  N   UNL     1       1.864   2.283  18.640  0.00  0.00    +0.000 NA
ATOM     20  H   UNL     1       4.771   1.637  17.528  0.00  0.00    +0.000 HD
ENDBRANCH  14  15
ENDBRANCH  13  14
ENDBRANCH  12  13
ENDBRANCH  11  12
ENDBRANCH   1  11
TORSDOF 7
ENDMDL
MODEL 2
REMARK VINA RESULT:      -6.7      0.812      1.575
REMARK  Name = 
REMARK  8 active torsions:
REMARK  status: ('A' for Active; 'I' for Inactive)
REMARK    1  A    between atoms: C_1  and  C_2
REMARK    2  A    between atoms: C_2  and  C_4
REMARK    3  A    between atoms: C_7  and  O_8
REMARK    4  A    between atoms: O_8  and  C_9
REMARK    5  A    between atoms: C_9  and  C_10
REMARK    6  A    between atoms: C_10  and  C_11
REMARK    7  A    between atoms: C_11  and  C_12
REMARK    8  A    between atoms: C_12  and  C_13
REMARK                            x       y       z     vdW  Elec       q    Type
REMARK                         _______ _______ _______ _____ _____    ______ ____
ROOT
ATOM      1  O   UNL     1       3.985   5.575  19.786  0.00  0.00    +0.000 OA
ENDROOT
BRANCH   1   5
ATOM      2  C   UNL     1       6.043   5.002  16.197  0.00  0.00    +0.000 A 
ATOM      3  C   UNL     1       4.724   5.465  16.231  0.00  0.00    +0.000 A 
ATOM      4  C   UNL     1       4.072   5.641  17.455  0.00  0.00    +0.000 A 
ATOM      5  C   UNL     1       4.718   5.342  18.654  0.00  0.00    +0.000 A 
ATOM      6  C   UNL     1       6.038   4.890  18.625  0.00  0.00    +0.000 A 
ATOM      7  C   UNL     1       6.697   4.718  17.401  0.00  0.00    +0.000 A 
BRANCH   2   9
ATOM      8  C   UNL     1       6.183   3.913  13.864  0.00  0.00    +0.000 C 
ATOM      9  C   UNL     1       6.781   4.813  14.913  0.00  0.00    +0.000 C 
ATOM     10  O   UNL     1       7.846   5.394  14.723  0.00  0.00    +0.000 OA
ENDBRANCH   2   9
ENDBRANCH   1   5
BRANCH   1  11
ATOM     11  C   UNL     1       2.732   6.230  19.582  0.00  0.00    +0.000 C 
BRANCH  11  12
ATOM     12  C   UNL     1       1.756   5.749  20.652  0.00  0.00    +0.000 C 
BRANCH  12  13
ATOM     13  C   UNL     1       1.045   4.469  20.211  0.00  0.00    +0.000 C 
BRANCH  13  14
ATOM     14  C   UNL     1       1.620   3.243  20.920  0.00  0.00    +0.000 C 
BRANCH  14  15
ATOM     15  C   UNL     1       2.702   2.576  20.141  0.00  0.00    +0.000 A 
ATOM     16  C   UNL     1       2.679   2.126  18.839  0.00  0.00    +0.000 A 
ATOM     17  N   UNL     1       3.904   1.555  18.632  0.00  0.00    +0.000 N 
ATOM     18  C   UNL     1       4.616   1.676  19.791  0.00  0.00    +0.000 A 
ATOM     19  N   UNL     1       3.920   2.290  20.718  0.00  0.00    +0.000 NA
ATOM     20  H   UNL     1       4.225   1.109  17.784  0.00  0.00    +0.000 HD
ENDBRANCH  14  15
ENDBRANCH  13  14
ENDBRANCH  12  13
ENDBRANCH  11  12
ENDBRANCH   1  11
TORSDOF 7
ENDMDL
MODEL 3
REMARK VINA RESULT:      -6.7      1.044      1.277
REMARK  Name = 
REMARK  8 active torsions:
REMARK  status: ('A' for Active; 'I' for Inactive)
REMARK    1  A    between atoms: C_1  and  C_2
REMARK    2  A    between atoms: C_2  and  C_4
REMARK    3  A    between atoms: C_7  and  O_8
REMARK    4  A    between atoms: O_8  and  C_9
REMARK    5  A    between atoms: C_9  and  C_10
REMARK    6  A    between atoms: C_10  and  C_11
REMARK    7  A    between atoms: C_11  and  C_12
REMARK    8  A    between atoms: C_12  and  C_13
REMARK                            x       y       z     vdW  Elec       q    Type
REMARK                         _______ _______ _______ _____ _____    ______ ____
ROOT
ATOM      1  O   UNL     1       3.893   5.875  19.164  0.00  0.00    +0.000 OA
ENDROOT
BRANCH   1   5
ATOM      2  C   UNL     1       5.989   5.105  15.635  0.00  0.00    +0.000 A 
ATOM      3  C   UNL     1       5.194   4.135  16.252  0.00  0.00    +0.000 A 
ATOM      4  C   UNL     1       4.509   4.436  17.434  0.00  0.00    +0.000 A 
ATOM      5  C   UNL     1       4.626   5.695  18.022  0.00  0.00    +0.000 A 
ATOM      6  C   UNL     1       5.412   6.668  17.404  0.00  0.00    +0.000 A 
ATOM      7  C   UNL     1       6.093   6.374  16.216  0.00  0.00    +0.000 A 
BRANCH   2   9
ATOM      8  C   UNL     1       6.121   3.869  13.375  0.00  0.00    +0.000 C 
ATOM      9  C   UNL     1       6.725   4.831  14.365  0.00  0.00    +0.000 C 
ATOM     10  O   UNL     1       7.793   5.393  14.138  0.00  0.00    +0.000 OA
ENDBRANCH   2   9
ENDBRANCH   1   5
BRANCH   1  11
ATOM     11  C   UNL     1       2.476   5.892  18.988  0.00  0.00    +0.000 C 
BRANCH  11  12
ATOM     12  C   UNL     1       1.818   5.766  20.360  0.00  0.00    +0.000 C 
BRANCH  12  13
ATOM     13  C   UNL     1       1.225   4.371  20.558  0.00  0.00    +0.000 C 
BRANCH  13  14
ATOM     14  C   UNL     1       2.206   3.448  21.280  0.00  0.00    +0.000 C 
BRANCH  14  15
ATOM     15  C   UNL     1       3.003   2.603  20.346  0.00  0.00    +0.000 A 
ATOM     16  C   UNL     1       4.340   2.276  20.403  0.00  0.00    +0.000 A 
ATOM     17  N   UNL     1       4.576   1.522  19.287  0.00  0.00    +0.000 N 
ATOM     18  C   UNL     1       3.398   1.417  18.604  0.00  0.00    +0.000 A 
ATOM     19  N   UNL     1       2.430   2.055  19.220  0.00  0.00    +0.000 NA
ATOM     20  H   UNL     1       5.462   1.125  19.005  0.00  0.00    +0.000 HD
ENDBRANCH  14  15
ENDBRANCH  13  14
ENDBRANCH  12  13
ENDBRANCH  11  12
ENDBRANCH   1  11
TORSDOF 7
ENDMDL
MODEL 4
REMARK VINA RESULT:      -6.5      1.158      1.455
REMARK  Name = 
REMARK  8 active torsions:
REMARK  status: ('A' for Active; 'I' for Inactive)
REMARK    1  A    between atoms: C_1  and  C_2
REMARK    2  A    between atoms: C_2  and  C_4
REMARK    3  A    between atoms: C_7  and  O_8
REMARK    4  A    between atoms: O_8  and  C_9
REMARK    5  A    between atoms: C_9  and  C_10
REMARK    6  A    between atoms: C_10  and  C_11
REMARK    7  A    between atoms: C_11  and  C_12
REMARK    8  A    between atoms: C_12  and  C_13
REMARK                            x       y       z     vdW  Elec       q    Type
REMARK                         _______ _______ _______ _____ _____    ______ ____
ROOT
ATOM      1  O   UNL     1       3.757   6.071  18.949  0.00  0.00    +0.000 OA
ENDROOT
BRANCH   1   5
ATOM      2  C   UNL     1       5.958   5.194  15.511  0.00  0.00    +0.000 A 
ATOM      3  C   UNL     1       5.262   6.397  15.659  0.00  0.00    +0.000 A 
ATOM      4  C   UNL     1       4.536   6.649  16.827  0.00  0.00    +0.000 A 
ATOM      5  C   UNL     1       4.481   5.701  17.848  0.00  0.00    +0.000 A 
ATOM      6  C   UNL     1       5.184   4.504  17.708  0.00  0.00    +0.000 A 
ATOM      7  C   UNL     1       5.918   4.249  16.542  0.00  0.00    +0.000 A 
BRANCH   2   9
ATOM      8  C   UNL     1       6.269   3.809  13.357  0.00  0.00    +0.000 C 
ATOM      9  C   UNL     1       6.758   4.890  14.286  0.00  0.00    +0.000 C 
ATOM     10  O   UNL     1       7.783   5.521  14.047  0.00  0.00    +0.000 OA
ENDBRANCH   2   9
ENDBRANCH   1   5
BRANCH   1  11
ATOM     11  C   UNL     1       2.378   5.698  18.929  0.00  0.00    +0.000 C 
BRANCH  11  12
ATOM     12  C   UNL     1       1.861   5.684  20.366  0.00  0.00    +0.000 C 
BRANCH  12  13
ATOM     13  C   UNL     1       1.529   4.261  20.816  0.00  0.00    +0.000 C 
BRANCH  13  14
ATOM     14  C   UNL     1       1.506   3.295  19.632  0.00  0.00    +0.000 C 
BRANCH  14  15
ATOM     15  C   UNL     1       2.750   2.483  19.520  0.00  0.00    +0.000 A 
ATOM     16  C   UNL     1       3.863   2.490  20.333  0.00  0.00    +0.000 A 
ATOM     17  N   UNL     1       4.731   1.599  19.766  0.00  0.00    +0.000 N 
ATOM     18  C   UNL     1       4.128   1.089  18.652  0.00  0.00    +0.000 A 
ATOM     19  N   UNL     1       2.931   1.599  18.479  0.00  0.00    +0.000 NA
ATOM     20  H   UNL     1       5.657   1.366  20.097  0.00  0.00    +0.000 HD
ENDBRANCH  14  15
ENDBRANCH  13  14
ENDBRANCH  12  13
ENDBRANCH  11  12
ENDBRANCH   1  11
TORSDOF 7
ENDMDL
MODEL 5
REMARK VINA RESULT:      -6.5      1.262      1.329
REMARK  Name = 
REMARK  8 active torsions:
REMARK  status: ('A' for Active; 'I' for Inactive)
REMARK    1  A    between atoms: C_1  and  C_2
REMARK    2  A    between atoms: C_2  and  C_4
REMARK    3  A    between atoms: C_7  and  O_8
REMARK    4  A    between atoms: O_8  and  C_9
REMARK    5  A    between atoms: C_9  and  C_10
REMARK    6  A    between atoms: C_10  and  C_11
REMARK    7  A    between atoms: C_11  and  C_12
REMARK    8  A    between atoms: C_12  and  C_13
REMARK                            x       y       z     vdW  Elec       q    Type
REMARK                         _______ _______ _______ _____ _____    ______ ____
ROOT
ATOM      1  O   UNL     1       2.423   7.095  18.473  0.00  0.00    +0.000 OA
ENDROOT
BRANCH   1   5
ATOM      2  C   UNL     1       5.562   5.270  16.411  0.00  0.00    +0.000 A 
ATOM      3  C   UNL     1       5.525   6.649  16.635  0.00  0.00    +0.000 A 
ATOM      4  C   UNL     1       4.453   7.219  17.330  0.00  0.00    +0.000 A 
ATOM      5  C   UNL     1       3.403   6.426  17.791  0.00  0.00    +0.000 A 
ATOM      6  C   UNL     1       3.442   5.048  17.577  0.00  0.00    +0.000 A 
ATOM      7  C   UNL     1       4.516   4.471  16.888  0.00  0.00    +0.000 A 
BRANCH   2   9
ATOM      8  C   UNL     1       6.450   4.088  14.298  0.00  0.00    +0.000 C 
ATOM      9  C   UNL     1       6.694   4.617  15.687  0.00  0.00    +0.000 C 
ATOM     10  O   UNL     1       7.797   4.531  16.218  0.00  0.00    +0.000 OA
ENDBRANCH   2   9
ENDBRANCH   1   5
BRANCH   1  11
ATOM     11  C   UNL     1       2.444   6.932  19.892  0.00  0.00    +0.000 C 
BRANCH  11  12
ATOM     12  C   UNL     1       1.484   5.804  20.263  0.00  0.00    +0.000 C 
BRANCH  12  13
ATOM     13  C   UNL     1       2.181   4.750  21.123  0.00  0.00    +0.000 C 
BRANCH  13  14
ATOM     14  C   UNL     1       1.748   3.338  20.732  0.00  0.00    +0.000 C 
BRANCH  14  15
ATOM     15  C   UNL     1       2.828   2.565  20.056  0.00  0.00    +0.000 A 
ATOM     16  C   UNL     1       4.167   2.492  20.374  0.00  0.00    +0.000 A 
ATOM     17  N   UNL     1       4.723   1.690  19.416  0.00  0.00    +0.000 N 
ATOM     18  C   UNL     1       3.723   1.309  18.567  0.00  0.00    +0.000 A 
ATOM     19  N   UNL     1       2.569   1.817  18.929  0.00  0.00    +0.000 NA
ATOM     20  H   UNL     1       5.698   1.434  19.337  0.00  0.00    +0.000 HD
ENDBRANCH  14  15
ENDBRANCH  13  14
ENDBRANCH  12  13
ENDBRANCH  11  12
ENDBRANCH   1  11
TORSDOF 7
ENDMDL
MODEL 6
REMARK VINA RESULT:      -6.4      1.373      1.604
REMARK  Name = 
REMARK  8 active torsions:
REMARK  status: ('A' for Active; 'I' for Inactive)
REMARK    1  A    between atoms: C_1  and  C_2
REMARK    2  A    between atoms: C_2  and  C_4
REMARK    3  A    between atoms: C_7  and  O_8
REMARK    4  A    between atoms: O_8  and  C_9
REMARK    5  A    between atoms: C_9  and  C_10
REMARK    6  A    between atoms: C_10  and  C_11
REMARK    7  A    between atoms: C_11  and  C_12
REMARK    8  A    between atoms: C_12  and  C_13
REMARK                            x       y       z     vdW  Elec       q    Type
REMARK                         _______ _______ _______ _____ _____    ______ ____
ROOT
ATOM      1  O   UNL     1       2.820   5.781  18.248  0.00  0.00    +0.000 OA
ENDROOT
BRANCH   1   5
ATOM      2  C   UNL     1       5.763   5.142  15.355  0.00  0.00    +0.000 A 
ATOM      3  C   UNL     1       5.403   6.426  15.776  0.00  0.00    +0.000 A 
ATOM      4  C   UNL     1       4.411   6.594  16.747  0.00  0.00    +0.000 A 
ATOM      5  C   UNL     1       3.756   5.490  17.293  0.00  0.00    +0.000 A 
ATOM      6  C   UNL     1       4.120   4.207  16.882  0.00  0.00    +0.000 A 
ATOM      7  C   UNL     1       5.118   4.034  15.914  0.00  0.00    +0.000 A 
BRANCH   2   9
ATOM      8  C   UNL     1       6.543   3.969  13.194  0.00  0.00    +0.000 C 
ATOM      9  C   UNL     1       6.827   4.916  14.331  0.00  0.00    +0.000 C 
ATOM     10  O   UNL     1       7.901   5.504  14.419  0.00  0.00    +0.000 OA
ENDBRANCH   2   9
ENDBRANCH   1   5
BRANCH   1  11
ATOM     11  C   UNL     1       3.335   6.026  19.558  0.00  0.00    +0.000 C 
BRANCH  11  12
ATOM     12  C   UNL     1       2.170   6.009  20.545  0.00  0.00    +0.000 C 
BRANCH  12  13
ATOM     13  C   UNL     1       2.102   4.676  21.290  0.00  0.00    +0.000 C 
BRANCH  13  14
ATOM     14  C   UNL     1       1.145   3.703  20.602  0.00  0.00    +0.000 C 
BRANCH  14  15
ATOM     15  C   UNL     1       1.829   2.812  19.622  0.00  0.00    +0.000 A 
ATOM     16  C   UNL     1       1.374   2.357  18.403  0.00  0.00    +0.000 A 
ATOM     17  N   UNL     1       2.362   1.537  17.933  0.00  0.00    +0.000 N 
ATOM     18  C   UNL     1       3.363   1.522  18.861  0.00  0.00    +0.000 A 
ATOM     19  N   UNL     1       3.073   2.284  19.889  0.00  0.00    +0.000 NA
ATOM     20  H   UNL     1       2.352   1.020  17.063  0.00  0.00    +0.000 HD
ENDBRANCH  14  15
ENDBRANCH  13  14
ENDBRANCH  12  13
ENDBRANCH  11  12
ENDBRANCH   1  11
TORSDOF 7
ENDMDL
MODEL 7
REMARK VINA RESULT:      -6.3      1.162      1.483
REMARK  Name = 
REMARK  8 active torsions:
REMARK  status: ('A' for Active; 'I' for Inactive)
REMARK    1  A    between atoms: C_1  and  C_2
REMARK    2  A    between atoms: C_2  and  C_4
REMARK    3  A    between atoms: C_7  and  O_8
REMARK    4  A    between atoms: O_8  and  C_9
REMARK    5  A    between atoms: C_9  and  C_10
REMARK    6  A    between atoms: C_10  and  C_11
REMARK    7  A    between atoms: C_11  and  C_12
REMARK    8  A    between atoms: C_12  and  C_13
REMARK                            x       y       z     vdW  Elec       q    Type
REMARK                         _______ _______ _______ _____ _____    ______ ____
ROOT
ATOM      1  O   UNL     1       3.356   6.535  18.896  0.00  0.00    +0.000 OA
ENDROOT
BRANCH   1   5
ATOM      2  C   UNL     1       5.713   5.276  15.688  0.00  0.00    +0.000 A 
ATOM      3  C   UNL     1       4.812   4.420  16.327  0.00  0.00    +0.000 A 
ATOM      4  C   UNL     1       4.042   4.883  17.398  0.00  0.00    +0.000 A 
ATOM      5  C   UNL     1       4.176   6.194  17.855  0.00  0.00    +0.000 A 
ATOM      6  C   UNL     1       5.068   7.054  17.214  0.00  0.00    +0.000 A 
ATOM      7  C   UNL     1       5.836   6.597  16.135  0.00  0.00    +0.000 A 
BRANCH   2   9
ATOM      8  C   UNL     1       5.977   3.790  13.597  0.00  0.00    +0.000 C 
ATOM      9  C   UNL     1       6.544   4.828  14.530  0.00  0.00    +0.000 C 
ATOM     10  O   UNL     1       7.657   5.310  14.347  0.00  0.00    +0.000 OA
ENDBRANCH   2   9
ENDBRANCH   1   5
BRANCH   1  11
ATOM     11  C   UNL     1       3.189   5.533  19.901  0.00  0.00    +0.000 C 
BRANCH  11  12
ATOM     12  C   UNL     1       1.769   5.632  20.450  0.00  0.00    +0.000 C 
BRANCH  12  13
ATOM     13  C   UNL     1       1.242   4.257  20.862  0.00  0.00    +0.000 C 
BRANCH  13  14
ATOM     14  C   UNL     1       2.378   3.243  20.991  0.00  0.00    +0.000 C 
BRANCH  14  15
ATOM     15  C   UNL     1       2.642   2.502  19.725  0.00  0.00    +0.000 A 
ATOM     16  C   UNL     1       1.791   2.269  18.667  0.00  0.00    +0.000 A 
ATOM     17  N   UNL     1       2.508   1.505  17.788  0.00  0.00    +0.000 N 
ATOM     18  C   UNL     1       3.745   1.305  18.331  0.00  0.00    +0.000 A 
ATOM     19  N   UNL     1       3.858   1.897  19.496  0.00  0.00    +0.000 NA
ATOM     20  H   UNL     1       2.182   1.138  16.904  0.00  0.00    +0.000 HD
ENDBRANCH  14  15
ENDBRANCH  13  14
ENDBRANCH  12  13
ENDBRANCH  11  12
ENDBRANCH   1  11
TORSDOF 7
ENDMDL
MODEL 8
REMARK VINA RESULT:      -6.2      2.170      4.265
REMARK  Name = 
REMARK  8 active torsions:
REMARK  status: ('A' for Active; 'I' for Inactive)
REMARK    1  A    between atoms: C_1  and  C_2
REMARK    2  A    between atoms: C_2  and  C_4
REMARK    3  A    between atoms: C_7  and  O_8
REMARK    4  A    between atoms: O_8  and  C_9
REMARK    5  A    between atoms: C_9  and  C_10
REMARK    6  A    between atoms: C_10  and  C_11
REMARK    7  A    between atoms: C_11  and  C_12
REMARK    8  A    between atoms: C_12  and  C_13
REMARK                            x       y       z     vdW  Elec       q    Type
REMARK                         _______ _______ _______ _____ _____    ______ ____
ROOT
ATOM      1  O   UNL     1       7.543   5.789  15.782  0.00  0.00    +0.000 OA
ENDROOT
BRANCH   1   5
ATOM      2  C   UNL     1       5.949   3.445  12.716  0.00  0.00    +0.000 A 
ATOM      3  C   UNL     1       5.402   3.456  14.002  0.00  0.00    +0.000 A 
ATOM      4  C   UNL     1       5.968   4.255  14.999  0.00  0.00    +0.000 A 
ATOM      5  C   UNL     1       7.093   5.035  14.732  0.00  0.00    +0.000 A 
ATOM      6  C   UNL     1       7.636   5.034  13.447  0.00  0.00    +0.000 A 
ATOM      7  C   UNL     1       7.068   4.240  12.443  0.00  0.00    +0.000 A 
BRANCH   2   9
ATOM      8  C   UNL     1       6.154   1.437  11.111  0.00  0.00    +0.000 C 
ATOM      9  C   UNL     1       5.367   2.618  11.616  0.00  0.00    +0.000 C 
ATOM     10  O   UNL     1       4.267   2.897  11.151  0.00  0.00    +0.000 OA
ENDBRANCH   2   9
ENDBRANCH   1   5
BRANCH   1  11
ATOM     11  C   UNL     1       7.219   5.289  17.081  0.00  0.00    +0.000 C 
BRANCH  11  12
ATOM     12  C   UNL     1       6.498   6.389  17.856  0.00  0.00    +0.000 C 
BRANCH  12  13
ATOM     13  C   UNL     1       4.993   6.126  17.912  0.00  0.00    +0.000 C 
BRANCH  13  14
ATOM     14  C   UNL     1       4.611   5.349  19.171  0.00  0.00    +0.000 C 
BRANCH  14  15
ATOM     15  C   UNL     1       4.262   3.927  18.894  0.00  0.00    +0.000 A 
ATOM     16  C   UNL     1       4.503   2.811  19.666  0.00  0.00    +0.000 A 
ATOM     17  N   UNL     1       4.027   1.758  18.937  0.00  0.00    +0.000 N 
ATOM     18  C   UNL     1       3.522   2.258  17.771  0.00  0.00    +0.000 A 
ATOM     19  N   UNL     1       3.646   3.563  17.717  0.00  0.00    +0.000 NA
ATOM     20  H   UNL     1       4.055   0.782  19.200  0.00  0.00    +0.000 HD
ENDBRANCH  14  15
ENDBRANCH  13  14
ENDBRANCH  12  13
ENDBRANCH  11  12
ENDBRANCH   1  11
TORSDOF 7
ENDMDL
MODEL 9
REMARK VINA RESULT:      -6.2      2.132      4.299
REMARK  Name = 
REMARK  8 active torsions:
REMARK  status: ('A' for Active; 'I' for Inactive)
REMARK    1  A    between atoms: C_1  and  C_2
REMARK    2  A    between atoms: C_2  and  C_4
REMARK    3  A    between atoms: C_7  and  O_8
REMARK    4  A    between atoms: O_8  and  C_9
REMARK    5  A    between atoms: C_9  and  C_10
REMARK    6  A    between atoms: C_10  and  C_11
REMARK    7  A    between atoms: C_11  and  C_12
REMARK    8  A    between atoms: C_12  and  C_13
REMARK                            x       y       z     vdW  Elec       q    Type
REMARK                         _______ _______ _______ _____ _____    ______ ____
ROOT
ATOM      1  O   UNL     1       7.676   5.883  15.727  0.00  0.00    +0.000 OA
ENDROOT
BRANCH   1   5
ATOM      2  C   UNL     1       5.846   3.586  12.759  0.00  0.00    +0.000 A 
ATOM      3  C   UNL     1       7.086   4.202  12.562  0.00  0.00    +0.000 A 
ATOM      4  C   UNL     1       7.662   4.963  13.583  0.00  0.00    +0.000 A 
ATOM      5  C   UNL     1       7.003   5.135  14.800  0.00  0.00    +0.000 A 
ATOM      6  C   UNL     1       5.770   4.514  15.004  0.00  0.00    +0.000 A 
ATOM      7  C   UNL     1       5.192   3.744  13.986  0.00  0.00    +0.000 A 
BRANCH   2   9
ATOM      8  C   UNL     1       3.947   3.267  11.043  0.00  0.00    +0.000 C 
ATOM      9  C   UNL     1       5.201   2.752  11.701  0.00  0.00    +0.000 C 
ATOM     10  O   UNL     1       5.698   1.678  11.375  0.00  0.00    +0.000 OA
ENDBRANCH   2   9
ENDBRANCH   1   5
BRANCH   1  11
ATOM     11  C   UNL     1       6.922   6.252  16.883  0.00  0.00    +0.000 C 
BRANCH  11  12
ATOM     12  C   UNL     1       7.414   5.422  18.066  0.00  0.00    +0.000 C 
BRANCH  12  13
ATOM     13  C   UNL     1       6.283   5.157  19.060  0.00  0.00    +0.000 C 
BRANCH  13  14
ATOM     14  C   UNL     1       4.929   5.570  18.484  0.00  0.00    +0.000 C 
BRANCH  14  15
ATOM     15  C   UNL     1       3.901   4.497  18.590  0.00  0.00    +0.000 A 
ATOM     16  C   UNL     1       4.064   3.176  18.950  0.00  0.00    +0.000 A 
ATOM     17  N   UNL     1       2.821   2.616  18.840  0.00  0.00    +0.000 N 
ATOM     18  C   UNL     1       1.963   3.595  18.427  0.00  0.00    +0.000 A 
ATOM     19  N   UNL     1       2.584   4.741  18.271  0.00  0.00    +0.000 NA
ATOM     20  H   UNL     1       2.579   1.651  19.016  0.00  0.00    +0.000 HD
ENDBRANCH  14  15
ENDBRANCH  13  14
ENDBRANCH  12  13
ENDBRANCH  11  12
ENDBRANCH   1  11
TORSDOF 7
ENDMDL
