MODEL 1
REMARK VINA RESULT:      -9.2      0.000      0.000
REMARK  Name = 
REMARK  4 active torsions:
REMARK  status: ('A' for Active; 'I' for Inactive)
REMARK    1  A    between atoms: C_1  and  O_2
REMARK    2  A    between atoms: O_2  and  C_3
REMARK    3  A    between atoms: C_10  and  C_11
REMARK    4  A    between atoms: C_16  and  C_17
REMARK                            x       y       z     vdW  Elec       q    Type
REMARK                         _______ _______ _______ _____ _____    ______ ____
ROOT
ATOM      1  C   UNL     1       1.916   8.003  19.678  0.00  0.00    +0.000 A 
ATOM      2  N   UNL     1       1.479   7.941  20.894  0.00  0.00    +0.000 NA
ATOM      3  C   UNL     1       0.701   8.999  21.379  0.00  0.00    +0.000 A 
ATOM      4  C   UNL     1       0.259   8.958  22.700  0.00  0.00    +0.000 A 
ATOM      5  C   UNL     1      -0.511  10.002  23.223  0.00  0.00    +0.000 A 
ATOM      6  C   UNL     1      -0.845  11.108  22.428  0.00  0.00    +0.000 A 
ATOM      7  C   UNL     1      -0.401  11.150  21.101  0.00  0.00    +0.000 A 
ATOM      8  C   UNL     1       0.366  10.101  20.593  0.00  0.00    +0.000 A 
ATOM      9  C   UNL     1       0.867  10.125  19.210  0.00  0.00    +0.000 A 
ATOM     10  O   UNL     1       0.622  11.046  18.441  0.00  0.00    +0.000 OA
ATOM     11  N   UNL     1       1.636   9.051  18.840  0.00  0.00    +0.000 N 
ATOM     12  H   UNL     1       1.994   9.085  17.896  0.00  0.00    +0.000 HD
ENDROOT
BRANCH   1  20
ATOM     13  C   UNL     1       5.727   5.228  15.565  0.00  0.00    +0.000 A 
ATOM     14  C   UNL     1       5.392   3.938  15.979  0.00  0.00    +0.000 A 
ATOM     15  C   UNL     1       4.428   3.751  16.967  0.00  0.00    +0.000 A 
ATOM     16  C   UNL     1       3.795   4.847  17.545  0.00  0.00    +0.000 A 
ATOM     17  C   UNL     1       4.132   6.148  17.160  0.00  0.00    +0.000 A 
ATOM     18  C   UNL     1       5.090   6.327  16.153  0.00  0.00    +0.000 A 
ATOM     19  C   UNL     1       3.480   7.336  17.812  0.00  0.00    +0.000 C 
ATOM     20  C   UNL     1       2.804   6.916  19.117  0.00  0.00    +0.000 C 
ATOM     21  C   UNL     1       2.015   5.639  18.851  0.00  0.00    +0.000 C 
ATOM     22  O   UNL     1       2.878   4.551  18.516  0.00  0.00    +0.000 OA
BRANCH  13  24
ATOM     23  C   UNL     1       6.959   4.517  13.667  0.00  0.00    +0.000 C 
ATOM     24  O   UNL     1       6.658   5.540  14.610  0.00  0.00    +0.000 OA
ENDBRANCH  13  24
ENDBRANCH   1  20
BRANCH   6  25
ATOM     25  C   UNL     1      -1.636  12.192  22.975  0.00  0.00    +0.000 A 
ATOM     26  C   UNL     1      -1.312  13.545  23.232  0.00  0.00    +0.000 A 
ATOM     27  N   UNL     1      -2.337  14.234  23.738  0.00  0.00    +0.000 NA
ATOM     28  N   UNL     1      -3.322  13.325  23.810  0.00  0.00    +0.000 N 
ATOM     29  C   UNL     1      -2.956  12.089  23.362  0.00  0.00    +0.000 A 
ATOM     30  H   UNL     1      -4.224  13.617  24.173  0.00  0.00    +0.000 HD
ENDBRANCH   6  25
TORSDOF 3
ENDMDL
MODEL 2
REMARK VINA RESULT:      -8.5      1.590      2.221
REMARK  Name = 
REMARK  4 active torsions:
REMARK  status: ('A' for Active; 'I' for Inactive)
REMARK    1  A    between atoms: C_1  and  O_2
REMARK    2  A    between atoms: O_2  and  C_3
REMARK    3  A    between atoms: C_10  and  C_11
REMARK    4  A    between atoms: C_16  and  C_17
REMARK                            x       y       z     vdW  Elec       q    Type
REMARK                         _______ _______ _______ _____ _____    ______ ____
ROOT
ATOM      1  C   UNL     1       2.153   7.784  19.255  0.00  0.00    +0.000 A 
ATOM      2  N   UNL     1       1.556   8.597  18.446  0.00  0.00    +0.000 NA
ATOM      3  C   UNL     1       0.687   9.554  18.982  0.00  0.00    +0.000 A 
ATOM      4  C   UNL     1       0.012  10.409  18.113  0.00  0.00    +0.000 A 
ATOM      5  C   UNL     1      -0.874  11.372  18.610  0.00  0.00    +0.000 A 
ATOM      6  C   UNL     1      -1.097  11.487  19.990  0.00  0.00    +0.000 A 
ATOM      7  C   UNL     1      -0.418  10.629  20.863  0.00  0.00    +0.000 A 
ATOM      8  C   UNL     1       0.461   9.675  20.351  0.00  0.00    +0.000 A 
ATOM      9  C   UNL     1       1.173   8.743  21.241  0.00  0.00    +0.000 A 
ATOM     10  O   UNL     1       1.045   8.773  22.458  0.00  0.00    +0.000 OA
ATOM     11  N   UNL     1       1.984   7.831  20.615  0.00  0.00    +0.000 N 
ATOM     12  H   UNL     1       2.453   7.180  21.230  0.00  0.00    +0.000 HD
ENDROOT
BRANCH   1  20
ATOM     13  C   UNL     1       6.380   5.125  15.486  0.00  0.00    +0.000 A 
ATOM     14  C   UNL     1       5.930   3.828  15.737  0.00  0.00    +0.000 A 
ATOM     15  C   UNL     1       4.827   3.620  16.562  0.00  0.00    +0.000 A 
ATOM     16  C   UNL     1       4.169   4.702  17.138  0.00  0.00    +0.000 A 
ATOM     17  C   UNL     1       4.618   6.007  16.918  0.00  0.00    +0.000 A 
ATOM     18  C   UNL     1       5.718   6.209  16.073  0.00  0.00    +0.000 A 
ATOM     19  C   UNL     1       3.935   7.176  17.574  0.00  0.00    +0.000 C 
ATOM     20  C   UNL     1       3.061   6.694  18.731  0.00  0.00    +0.000 C 
ATOM     21  C   UNL     1       2.259   5.490  18.249  0.00  0.00    +0.000 C 
ATOM     22  O   UNL     1       3.110   4.384  17.944  0.00  0.00    +0.000 OA
BRANCH  13  24
ATOM     23  C   UNL     1       7.441   4.944  13.372  0.00  0.00    +0.000 C 
ATOM     24  O   UNL     1       7.451   5.456  14.701  0.00  0.00    +0.000 OA
ENDBRANCH  13  24
ENDBRANCH   1  20
BRANCH   6  25
ATOM     25  C   UNL     1      -2.021  12.481  20.502  0.00  0.00    +0.000 A 
ATOM     26  C   UNL     1      -1.854  13.494  21.474  0.00  0.00    +0.000 A 
ATOM     27  N   UNL     1      -2.960  14.219  21.658  0.00  0.00    +0.000 NA
ATOM     28  N   UNL     1      -3.840  13.672  20.805  0.00  0.00    +0.000 N 
ATOM     29  C   UNL     1      -3.327  12.631  20.087  0.00  0.00    +0.000 A 
ATOM     30  H   UNL     1      -4.777  14.061  20.761  0.00  0.00    +0.000 HD
ENDBRANCH   6  25
TORSDOF 3
ENDMDL
MODEL 3
REMARK VINA RESULT:      -8.5      0.893      1.166
REMARK  Name = 
REMARK  4 active torsions:
REMARK  status: ('A' for Active; 'I' for Inactive)
REMARK    1  A    between atoms: C_1  and  O_2
REMARK    2  A    between atoms: O_2  and  C_3
REMARK    3  A    between atoms: C_10  and  C_11
REMARK    4  A    between atoms: C_16  and  C_17
REMARK                            x       y       z     vdW  Elec       q    Type
REMARK                         _______ _______ _______ _____ _____    ______ ____
ROOT
ATOM      1  C   UNL     1       1.679   7.979  20.144  0.00  0.00    +0.000 A 
ATOM      2  N   UNL     1       1.164   8.073  21.326  0.00  0.00    +0.000 NA
ATOM      3  C   UNL     1       0.399   9.205  21.634  0.00  0.00    +0.000 A 
ATOM      4  C   UNL     1      -0.127   9.331  22.918  0.00  0.00    +0.000 A 
ATOM      5  C   UNL     1      -0.887  10.453  23.265  0.00  0.00    +0.000 A 
ATOM      6  C   UNL     1      -1.127  11.468  22.328  0.00  0.00    +0.000 A 
ATOM      7  C   UNL     1      -0.600  11.341  21.037  0.00  0.00    +0.000 A 
ATOM      8  C   UNL     1       0.157  10.216  20.706  0.00  0.00    +0.000 A 
ATOM      9  C   UNL     1       0.744  10.063  19.366  0.00  0.00    +0.000 A 
ATOM     10  O   UNL     1       0.584  10.895  18.482  0.00  0.00    +0.000 OA
ATOM     11  N   UNL     1       1.493   8.929  19.174  0.00  0.00    +0.000 N 
ATOM     12  H   UNL     1       1.911   8.842  18.258  0.00  0.00    +0.000 HD
ENDROOT
BRANCH   1  20
ATOM     13  C   UNL     1       5.045   4.260  16.404  0.00  0.00    +0.000 A 
ATOM     14  C   UNL     1       4.880   3.135  17.214  0.00  0.00    +0.000 A 
ATOM     15  C   UNL     1       4.093   3.211  18.361  0.00  0.00    +0.000 A 
ATOM     16  C   UNL     1       3.467   4.405  18.703  0.00  0.00    +0.000 A 
ATOM     17  C   UNL     1       3.637   5.549  17.918  0.00  0.00    +0.000 A 
ATOM     18  C   UNL     1       4.416   5.459  16.756  0.00  0.00    +0.000 A 
ATOM     19  C   UNL     1       2.996   6.852  18.308  0.00  0.00    +0.000 C 
ATOM     20  C   UNL     1       2.558   6.807  19.772  0.00  0.00    +0.000 C 
ATOM     21  C   UNL     1       1.843   5.481  20.011  0.00  0.00    +0.000 C 
ATOM     22  O   UNL     1       2.732   4.373  19.857  0.00  0.00    +0.000 OA
BRANCH  13  24
ATOM     23  C   UNL     1       7.139   4.753  15.407  0.00  0.00    +0.000 C 
ATOM     24  O   UNL     1       5.794   4.312  15.260  0.00  0.00    +0.000 OA
ENDBRANCH  13  24
ENDBRANCH   1  20
BRANCH   6  25
ATOM     25  C   UNL     1      -1.909  12.633  22.693  0.00  0.00    +0.000 A 
ATOM     26  C   UNL     1      -3.250  12.982  22.409  0.00  0.00    +0.000 A 
ATOM     27  N   UNL     1      -3.603  14.154  22.944  0.00  0.00    +0.000 NA
ATOM     28  N   UNL     1      -2.488  14.561  23.571  0.00  0.00    +0.000 N 
ATOM     29  C   UNL     1      -1.447  13.686  23.455  0.00  0.00    +0.000 A 
ATOM     30  H   UNL     1      -2.508  15.449  24.064  0.00  0.00    +0.000 HD
ENDBRANCH   6  25
TORSDOF 3
ENDMDL
MODEL 4
REMARK VINA RESULT:      -8.4      3.036      9.917
REMARK  Name = 
REMARK  4 active torsions:
REMARK  status: ('A' for Active; 'I' for Inactive)
REMARK    1  A    between atoms: C_1  and  O_2
REMARK    2  A    between atoms: O_2  and  C_3
REMARK    3  A    between atoms: C_10  and  C_11
REMARK    4  A    between atoms: C_16  and  C_17
REMARK                            x       y       z     vdW  Elec       q    Type
REMARK                         _______ _______ _______ _____ _____    ______ ____
ROOT
ATOM      1  C   UNL     1       1.118   8.090  20.480  0.00  0.00    +0.000 A 
ATOM      2  N   UNL     1       1.676   8.479  19.380  0.00  0.00    +0.000 NA
ATOM      3  C   UNL     1       2.588   7.621  18.755  0.00  0.00    +0.000 A 
ATOM      4  C   UNL     1       3.222   8.049  17.590  0.00  0.00    +0.000 A 
ATOM      5  C   UNL     1       4.148   7.224  16.942  0.00  0.00    +0.000 A 
ATOM      6  C   UNL     1       4.455   5.957  17.458  0.00  0.00    +0.000 A 
ATOM      7  C   UNL     1       3.818   5.526  18.628  0.00  0.00    +0.000 A 
ATOM      8  C   UNL     1       2.897   6.361  19.262  0.00  0.00    +0.000 A 
ATOM      9  C   UNL     1       2.228   5.948  20.506  0.00  0.00    +0.000 A 
ATOM     10  O   UNL     1       2.429   4.858  21.027  0.00  0.00    +0.000 OA
ATOM     11  N   UNL     1       1.368   6.869  21.049  0.00  0.00    +0.000 N 
ATOM     12  H   UNL     1       0.929   6.587  21.915  0.00  0.00    +0.000 HD
ENDROOT
BRANCH   1  20
ATOM     13  C   UNL     1      -2.521  13.086  21.449  0.00  0.00    +0.000 A 
ATOM     14  C   UNL     1      -2.409  13.019  22.838  0.00  0.00    +0.000 A 
ATOM     15  C   UNL     1      -1.599  12.050  23.426  0.00  0.00    +0.000 A 
ATOM     16  C   UNL     1      -0.898  11.147  22.633  0.00  0.00    +0.000 A 
ATOM     17  C   UNL     1      -1.016  11.183  21.240  0.00  0.00    +0.000 A 
ATOM     18  C   UNL     1      -1.818  12.172  20.656  0.00  0.00    +0.000 A 
ATOM     19  C   UNL     1      -0.293  10.181  20.381  0.00  0.00    +0.000 C 
ATOM     20  C   UNL     1       0.166   8.995  21.229  0.00  0.00    +0.000 C 
ATOM     21  C   UNL     1       0.807   9.541  22.500  0.00  0.00    +0.000 C 
ATOM     22  O   UNL     1      -0.147  10.228  23.313  0.00  0.00    +0.000 OA
BRANCH  13  24
ATOM     23  C   UNL     1      -4.691  13.918  20.973  0.00  0.00    +0.000 C 
ATOM     24  O   UNL     1      -3.286  13.986  20.757  0.00  0.00    +0.000 OA
ENDBRANCH  13  24
ENDBRANCH   1  20
BRANCH   6  25
ATOM     25  C   UNL     1       5.421   5.107  16.789  0.00  0.00    +0.000 A 
ATOM     26  C   UNL     1       6.799   5.290  16.528  0.00  0.00    +0.000 A 
ATOM     27  N   UNL     1       7.344   4.253  15.886  0.00  0.00    +0.000 NA
ATOM     28  N   UNL     1       6.316   3.404  15.732  0.00  0.00    +0.000 N 
ATOM     29  C   UNL     1       5.145   3.865  16.258  0.00  0.00    +0.000 A 
ATOM     30  H   UNL     1       6.486   2.521  15.259  0.00  0.00    +0.000 HD
ENDBRANCH   6  25
TORSDOF 3
ENDMDL
MODEL 5
REMARK VINA RESULT:      -8.4      1.436      1.986
REMARK  Name = 
REMARK  4 active torsions:
REMARK  status: ('A' for Active; 'I' for Inactive)
REMARK    1  A    between atoms: C_1  and  O_2
REMARK    2  A    between atoms: O_2  and  C_3
REMARK    3  A    between atoms: C_10  and  C_11
REMARK    4  A    between atoms: C_16  and  C_17
REMARK                            x       y       z     vdW  Elec       q    Type
REMARK                         _______ _______ _______ _____ _____    ______ ____
ROOT
ATOM      1  C   UNL     1       1.831   8.176  19.954  0.00  0.00    +0.000 A 
ATOM      2  N   UNL     1       1.123   8.909  19.158  0.00  0.00    +0.000 NA
ATOM      3  C   UNL     1       0.283   9.880  19.715  0.00  0.00    +0.000 A 
ATOM      4  C   UNL     1      -0.512  10.647  18.866  0.00  0.00    +0.000 A 
ATOM      5  C   UNL     1      -1.372  11.621  19.387  0.00  0.00    +0.000 A 
ATOM      6  C   UNL     1      -1.450  11.834  20.771  0.00  0.00    +0.000 A 
ATOM      7  C   UNL     1      -0.651  11.064  21.624  0.00  0.00    +0.000 A 
ATOM      8  C   UNL     1       0.202  10.098  21.089  0.00  0.00    +0.000 A 
ATOM      9  C   UNL     1       1.037   9.256  21.960  0.00  0.00    +0.000 A 
ATOM     10  O   UNL     1       1.040   9.374  23.179  0.00  0.00    +0.000 OA
ATOM     11  N   UNL     1       1.808   8.322  21.316  0.00  0.00    +0.000 N 
ATOM     12  H   UNL     1       2.363   7.732  21.922  0.00  0.00    +0.000 HD
ENDROOT
BRANCH   1  20
ATOM     13  C   UNL     1       5.481   5.228  15.814  0.00  0.00    +0.000 A 
ATOM     14  C   UNL     1       5.204   3.960  16.328  0.00  0.00    +0.000 A 
ATOM     15  C   UNL     1       4.302   3.815  17.380  0.00  0.00    +0.000 A 
ATOM     16  C   UNL     1       3.673   4.932  17.921  0.00  0.00    +0.000 A 
ATOM     17  C   UNL     1       3.953   6.213  17.436  0.00  0.00    +0.000 A 
ATOM     18  C   UNL     1       4.849   6.348  16.366  0.00  0.00    +0.000 A 
ATOM     19  C   UNL     1       3.307   7.426  18.047  0.00  0.00    +0.000 C 
ATOM     20  C   UNL     1       2.716   7.075  19.413  0.00  0.00    +0.000 C 
ATOM     21  C   UNL     1       1.947   5.766  19.274  0.00  0.00    +0.000 C 
ATOM     22  O   UNL     1       2.820   4.679  18.961  0.00  0.00    +0.000 OA
BRANCH  13  24
ATOM     23  C   UNL     1       6.668   4.408  13.932  0.00  0.00    +0.000 C 
ATOM     24  O   UNL     1       6.348   5.498  14.790  0.00  0.00    +0.000 OA
ENDBRANCH  13  24
ENDBRANCH   1  20
BRANCH   6  25
ATOM     25  C   UNL     1      -2.348  12.838  21.308  0.00  0.00    +0.000 A 
ATOM     26  C   UNL     1      -2.445  14.228  21.063  0.00  0.00    +0.000 A 
ATOM     27  N   UNL     1      -3.427  14.806  21.759  0.00  0.00    +0.000 NA
ATOM     28  N   UNL     1      -3.962  13.789  22.453  0.00  0.00    +0.000 N 
ATOM     29  C   UNL     1      -3.356  12.590  22.216  0.00  0.00    +0.000 A 
ATOM     30  H   UNL     1      -4.744  13.984  23.070  0.00  0.00    +0.000 HD
ENDBRANCH   6  25
TORSDOF 3
ENDMDL
MODEL 6
REMARK VINA RESULT:      -8.4      1.989      3.263
REMARK  Name = 
REMARK  4 active torsions:
REMARK  status: ('A' for Active; 'I' for Inactive)
REMARK    1  A    between atoms: C_1  and  O_2
REMARK    2  A    between atoms: O_2  and  C_3
REMARK    3  A    between atoms: C_10  and  C_11
REMARK    4  A    between atoms: C_16  and  C_17
REMARK                            x       y       z     vdW  Elec       q    Type
REMARK                         _______ _______ _______ _____ _____    ______ ____
ROOT
ATOM      1  C   UNL     1       0.671   9.201  20.314  0.00  0.00    +0.000 A 
ATOM      2  N   UNL     1      -0.089  10.128  19.829  0.00  0.00    +0.000 NA
ATOM      3  C   UNL     1      -0.778  10.960  20.719  0.00  0.00    +0.000 A 
ATOM      4  C   UNL     1      -1.629  11.936  20.205  0.00  0.00    +0.000 A 
ATOM      5  C   UNL     1      -2.342  12.780  21.064  0.00  0.00    +0.000 A 
ATOM      6  C   UNL     1      -2.214  12.652  22.454  0.00  0.00    +0.000 A 
ATOM      7  C   UNL     1      -1.360  11.671  22.972  0.00  0.00    +0.000 A 
ATOM      8  C   UNL     1      -0.655  10.838  22.102  0.00  0.00    +0.000 A 
ATOM      9  C   UNL     1       0.233   9.783  22.614  0.00  0.00    +0.000 A 
ATOM     10  O   UNL     1       0.411   9.600  23.811  0.00  0.00    +0.000 OA
ATOM     11  N   UNL     1       0.845   9.010  21.659  0.00  0.00    +0.000 N 
ATOM     12  H   UNL     1       1.436   8.273  22.019  0.00  0.00    +0.000 HD
ENDROOT
BRANCH   1  20
ATOM     13  C   UNL     1       4.559   4.548  18.770  0.00  0.00    +0.000 A 
ATOM     14  C   UNL     1       4.776   5.029  17.478  0.00  0.00    +0.000 A 
ATOM     15  C   UNL     1       4.189   6.226  17.071  0.00  0.00    +0.000 A 
ATOM     16  C   UNL     1       3.387   6.947  17.950  0.00  0.00    +0.000 A 
ATOM     17  C   UNL     1       3.139   6.471  19.241  0.00  0.00    +0.000 A 
ATOM     18  C   UNL     1       3.747   5.275  19.648  0.00  0.00    +0.000 A 
ATOM     19  C   UNL     1       2.239   7.226  20.180  0.00  0.00    +0.000 C 
ATOM     20  C   UNL     1       1.397   8.238  19.402  0.00  0.00    +0.000 C 
ATOM     21  C   UNL     1       2.318   8.977  18.437  0.00  0.00    +0.000 C 
ATOM     22  O   UNL     1       2.848   8.098  17.444  0.00  0.00    +0.000 OA
BRANCH  13  24
ATOM     23  C   UNL     1       4.148   2.516  19.922  0.00  0.00    +0.000 C 
ATOM     24  O   UNL     1       5.074   3.388  19.282  0.00  0.00    +0.000 OA
ENDBRANCH  13  24
ENDBRANCH   1  20
BRANCH   6  25
ATOM     25  C   UNL     1      -2.961  13.522  23.342  0.00  0.00    +0.000 A 
ATOM     26  C   UNL     1      -2.575  14.685  24.048  0.00  0.00    +0.000 A 
ATOM     27  N   UNL     1      -3.574  15.211  24.761  0.00  0.00    +0.000 NA
ATOM     28  N   UNL     1      -4.604  14.386  24.515  0.00  0.00    +0.000 N 
ATOM     29  C   UNL     1      -4.291  13.362  23.669  0.00  0.00    +0.000 A 
ATOM     30  H   UNL     1      -5.497  14.583  24.956  0.00  0.00    +0.000 HD
ENDBRANCH   6  25
TORSDOF 3
ENDMDL
MODEL 7
REMARK VINA RESULT:      -8.4      2.899      9.839
REMARK  Name = 
REMARK  4 active torsions:
REMARK  status: ('A' for Active; 'I' for Inactive)
REMARK    1  A    between atoms: C_1  and  O_2
REMARK    2  A    between atoms: O_2  and  C_3
REMARK    3  A    between atoms: C_10  and  C_11
REMARK    4  A    between atoms: C_16  and  C_17
REMARK                            x       y       z     vdW  Elec       q    Type
REMARK                         _______ _______ _______ _____ _____    ______ ____
ROOT
ATOM      1  C   UNL     1       0.769   8.940  20.283  0.00  0.00    +0.000 A 
ATOM      2  N   UNL     1       1.260   7.814  20.686  0.00  0.00    +0.000 NA
ATOM      3  C   UNL     1       2.174   7.149  19.860  0.00  0.00    +0.000 A 
ATOM      4  C   UNL     1       2.678   5.917  20.271  0.00  0.00    +0.000 A 
ATOM      5  C   UNL     1       3.585   5.218  19.467  0.00  0.00    +0.000 A 
ATOM      6  C   UNL     1       3.996   5.746  18.235  0.00  0.00    +0.000 A 
ATOM      7  C   UNL     1       3.491   6.984  17.822  0.00  0.00    +0.000 A 
ATOM      8  C   UNL     1       2.587   7.668  18.635  0.00  0.00    +0.000 A 
ATOM      9  C   UNL     1       2.020   8.961  18.220  0.00  0.00    +0.000 A 
ATOM     10  O   UNL     1       2.324   9.501  17.164  0.00  0.00    +0.000 OA
ATOM     11  N   UNL     1       1.118   9.519  19.091  0.00  0.00    +0.000 N 
ATOM     12  H   UNL     1       0.716  10.396  18.789  0.00  0.00    +0.000 HD
ENDROOT
BRANCH   1  20
ATOM     13  C   UNL     1      -3.123  13.589  21.827  0.00  0.00    +0.000 A 
ATOM     14  C   UNL     1      -3.091  13.292  23.190  0.00  0.00    +0.000 A 
ATOM     15  C   UNL     1      -2.279  12.263  23.661  0.00  0.00    +0.000 A 
ATOM     16  C   UNL     1      -1.496  11.528  22.777  0.00  0.00    +0.000 A 
ATOM     17  C   UNL     1      -1.531  11.794  21.404  0.00  0.00    +0.000 A 
ATOM     18  C   UNL     1      -2.338  12.843  20.941  0.00  0.00    +0.000 A 
ATOM     19  C   UNL     1      -0.718  10.974  20.441  0.00  0.00    +0.000 C 
ATOM     20  C   UNL     1      -0.262   9.676  21.108  0.00  0.00    +0.000 C 
ATOM     21  C   UNL     1       0.278  10.020  22.491  0.00  0.00    +0.000 C 
ATOM     22  O   UNL     1      -0.750  10.531  23.342  0.00  0.00    +0.000 OA
BRANCH  13  24
ATOM     23  C   UNL     1      -5.029  14.134  20.523  0.00  0.00    +0.000 C 
ATOM     24  O   UNL     1      -3.881  14.569  21.245  0.00  0.00    +0.000 OA
ENDBRANCH  13  24
ENDBRANCH   1  20
BRANCH   6  25
ATOM     25  C   UNL     1       4.930   5.015  17.400  0.00  0.00    +0.000 A 
ATOM     26  C   UNL     1       6.250   5.319  16.993  0.00  0.00    +0.000 A 
ATOM     27  N   UNL     1       6.784   4.369  16.221  0.00  0.00    +0.000 NA
ATOM     28  N   UNL     1       5.807   3.452  16.131  0.00  0.00    +0.000 N 
ATOM     29  C   UNL     1       4.679   3.789  16.821  0.00  0.00    +0.000 A 
ATOM     30  H   UNL     1       5.979   2.616  15.582  0.00  0.00    +0.000 HD
ENDBRANCH   6  25
TORSDOF 3
ENDMDL
MODEL 8
REMARK VINA RESULT:      -8.2      3.860      9.198
REMARK  Name = 
REMARK  4 active torsions:
REMARK  status: ('A' for Active; 'I' for Inactive)
REMARK    1  A    between atoms: C_1  and  O_2
REMARK    2  A    between atoms: O_2  and  C_3
REMARK    3  A    between atoms: C_10  and  C_11
REMARK    4  A    between atoms: C_16  and  C_17
REMARK                            x       y       z     vdW  Elec       q    Type
REMARK                         _______ _______ _______ _____ _____    ______ ____
ROOT
ATOM      1  C   UNL     1       1.332  10.242  18.843  0.00  0.00    +0.000 A 
ATOM      2  N   UNL     1       2.058   9.564  18.016  0.00  0.00    +0.000 NA
ATOM      3  C   UNL     1       2.444   8.267  18.374  0.00  0.00    +0.000 A 
ATOM      4  C   UNL     1       3.258   7.544  17.504  0.00  0.00    +0.000 A 
ATOM      5  C   UNL     1       3.673   6.249  17.833  0.00  0.00    +0.000 A 
ATOM      6  C   UNL     1       3.279   5.661  19.043  0.00  0.00    +0.000 A 
ATOM      7  C   UNL     1       2.461   6.386  19.918  0.00  0.00    +0.000 A 
ATOM      8  C   UNL     1       2.055   7.677  19.575  0.00  0.00    +0.000 A 
ATOM      9  C   UNL     1       1.214   8.475  20.482  0.00  0.00    +0.000 A 
ATOM     10  O   UNL     1       0.818   8.043  21.557  0.00  0.00    +0.000 OA
ATOM     11  N   UNL     1       0.910   9.739  20.046  0.00  0.00    +0.000 N 
ATOM     12  H   UNL     1       0.350  10.289  20.684  0.00  0.00    +0.000 HD
ENDROOT
BRANCH   1  20
ATOM     13  C   UNL     1       1.944  16.460  18.521  0.00  0.00    +0.000 A 
ATOM     14  C   UNL     1       0.569  16.695  18.568  0.00  0.00    +0.000 A 
ATOM     15  C   UNL     1      -0.316  15.628  18.710  0.00  0.00    +0.000 A 
ATOM     16  C   UNL     1       0.166  14.327  18.809  0.00  0.00    +0.000 A 
ATOM     17  C   UNL     1       1.538  14.069  18.742  0.00  0.00    +0.000 A 
ATOM     18  C   UNL     1       2.423  15.149  18.616  0.00  0.00    +0.000 A 
ATOM     19  C   UNL     1       2.060  12.659  18.806  0.00  0.00    +0.000 C 
ATOM     20  C   UNL     1       0.930  11.667  18.535  0.00  0.00    +0.000 C 
ATOM     21  C   UNL     1      -0.281  12.091  19.360  0.00  0.00    +0.000 C 
ATOM     22  O   UNL     1      -0.789  13.355  18.930  0.00  0.00    +0.000 OA
BRANCH  13  24
ATOM     23  C   UNL     1       4.259  16.978  18.476  0.00  0.00    +0.000 C 
ATOM     24  O   UNL     1       2.909  17.421  18.379  0.00  0.00    +0.000 OA
ENDBRANCH  13  24
ENDBRANCH   1  20
BRANCH   6  25
ATOM     25  C   UNL     1       3.717   4.322  19.385  0.00  0.00    +0.000 A 
ATOM     26  C   UNL     1       3.073   3.284  20.098  0.00  0.00    +0.000 A 
ATOM     27  N   UNL     1       3.820   2.181  20.191  0.00  0.00    +0.000 NA
ATOM     28  N   UNL     1       4.945   2.508  19.537  0.00  0.00    +0.000 N 
ATOM     29  C   UNL     1       4.933   3.776  19.032  0.00  0.00    +0.000 A 
ATOM     30  H   UNL     1       5.684   1.815  19.470  0.00  0.00    +0.000 HD
ENDBRANCH   6  25
TORSDOF 3
ENDMDL
MODEL 9
REMARK VINA RESULT:      -8.1      1.820      2.671
REMARK  Name = 
REMARK  4 active torsions:
REMARK  status: ('A' for Active; 'I' for Inactive)
REMARK    1  A    between atoms: C_1  and  O_2
REMARK    2  A    between atoms: O_2  and  C_3
REMARK    3  A    between atoms: C_10  and  C_11
REMARK    4  A    between atoms: C_16  and  C_17
REMARK                            x       y       z     vdW  Elec       q    Type
REMARK                         _______ _______ _______ _____ _____    ______ ____
ROOT
ATOM      1  C   UNL     1       0.644   9.300  19.311  0.00  0.00    +0.000 A 
ATOM      2  N   UNL     1       0.434   9.208  20.583  0.00  0.00    +0.000 NA
ATOM      3  C   UNL     1      -0.355  10.184  21.202  0.00  0.00    +0.000 A 
ATOM      4  C   UNL     1      -0.554  10.113  22.579  0.00  0.00    +0.000 A 
ATOM      5  C   UNL     1      -1.328  11.077  23.235  0.00  0.00    +0.000 A 
ATOM      6  C   UNL     1      -1.911  12.130  22.516  0.00  0.00    +0.000 A 
ATOM      7  C   UNL     1      -1.712  12.202  21.132  0.00  0.00    +0.000 A 
ATOM      8  C   UNL     1      -0.937  11.233  20.493  0.00  0.00    +0.000 A 
ATOM      9  C   UNL     1      -0.690  11.292  19.044  0.00  0.00    +0.000 A 
ATOM     10  O   UNL     1      -1.162  12.171  18.335  0.00  0.00    +0.000 OA
ATOM     11  N   UNL     1       0.113  10.300  18.540  0.00  0.00    +0.000 N 
ATOM     12  H   UNL     1       0.296  10.360  17.548  0.00  0.00    +0.000 HD
ENDROOT
BRANCH   1  20
ATOM     13  C   UNL     1       4.825   4.679  18.743  0.00  0.00    +0.000 A 
ATOM     14  C   UNL     1       5.249   5.088  17.478  0.00  0.00    +0.000 A 
ATOM     15  C   UNL     1       4.717   6.241  16.902  0.00  0.00    +0.000 A 
ATOM     16  C   UNL     1       3.765   6.989  17.586  0.00  0.00    +0.000 A 
ATOM     17  C   UNL     1       3.310   6.584  18.845  0.00  0.00    +0.000 A 
ATOM     18  C   UNL     1       3.863   5.433  19.424  0.00  0.00    +0.000 A 
ATOM     19  C   UNL     1       2.249   7.368  19.569  0.00  0.00    +0.000 C 
ATOM     20  C   UNL     1       1.533   8.306  18.597  0.00  0.00    +0.000 C 
ATOM     21  C   UNL     1       2.590   9.012  17.755  0.00  0.00    +0.000 C 
ATOM     22  O   UNL     1       3.297   8.091  16.924  0.00  0.00    +0.000 OA
BRANCH  13  24
ATOM     23  C   UNL     1       4.272   2.629  19.799  0.00  0.00    +0.000 C 
ATOM     24  O   UNL     1       5.268   3.568  19.408  0.00  0.00    +0.000 OA
ENDBRANCH  13  24
ENDBRANCH   1  20
BRANCH   6  25
ATOM     25  C   UNL     1      -2.707  13.131  23.199  0.00  0.00    +0.000 A 
ATOM     26  C   UNL     1      -2.645  14.544  23.176  0.00  0.00    +0.000 A 
ATOM     27  N   UNL     1      -3.574  15.114  23.948  0.00  0.00    +0.000 NA
ATOM     28  N   UNL     1      -4.233  14.067  24.470  0.00  0.00    +0.000 N 
ATOM     29  C   UNL     1      -3.756  12.859  24.051  0.00  0.00    +0.000 A 
ATOM     30  H   UNL     1      -5.004  14.249  25.106  0.00  0.00    +0.000 HD
ENDBRANCH   6  25
TORSDOF 3
ENDMDL
