MODEL 1
REMARK VINA RESULT:      -8.4      0.000      0.000
REMARK  Name = 
REMARK  0 active torsions:
REMARK  status: ('A' for Active; 'I' for Inactive)
REMARK                            x       y       z     vdW  Elec       q    Type
REMARK                         _______ _______ _______ _____ _____    ______ ____
ROOT
ATOM      1  C   UNL     1       3.673   1.702  19.062  0.00  0.00    +0.000 A 
ATOM      2  C   UNL     1       3.211   2.084  17.787  0.00  0.00    +0.000 A 
ATOM      3  C   UNL     1       3.342   3.376  17.380  0.00  0.00    +0.000 A 
ATOM      4  C   UNL     1       4.342   4.078  18.003  0.00  0.00    +0.000 A 
ATOM      5  C   UNL     1       4.848   3.806  19.234  0.00  0.00    +0.000 A 
ATOM      6  C   UNL     1       4.421   2.624  19.884  0.00  0.00    +0.000 A 
ATOM      7  N   UNL     1       5.916   4.632  19.517  0.00  0.00    +0.000 N 
ATOM      8  C   UNL     1       6.187   5.216  18.308  0.00  0.00    +0.000 A 
ATOM      9  C   UNL     1       7.333   5.925  17.829  0.00  0.00    +0.000 A 
ATOM     10  N   UNL     1       7.551   6.025  16.462  0.00  0.00    +0.000 N 
ATOM     11  C   UNL     1       6.633   5.442  15.613  0.00  0.00    +0.000 A 
ATOM     12  C   UNL     1       6.673   4.974  14.285  0.00  0.00    +0.000 A 
ATOM     13  C   UNL     1       7.645   4.962  13.294  0.00  0.00    +0.000 A 
ATOM     14  C   UNL     1       7.409   4.168  12.143  0.00  0.00    +0.000 A 
ATOM     15  C   UNL     1       6.196   3.435  12.029  0.00  0.00    +0.000 A 
ATOM     16  N   UNL     1       5.255   3.513  12.993  0.00  0.00    +0.000 NA
ATOM     17  C   UNL     1       5.490   4.268  14.103  0.00  0.00    +0.000 A 
ATOM     18  N   UNL     1       4.699   4.271  15.167  0.00  0.00    +0.000 NA
ATOM     19  C   UNL     1       5.395   4.948  16.088  0.00  0.00    +0.000 A 
ATOM     20  C   UNL     1       5.240   4.832  17.410  0.00  0.00    +0.000 A 
ATOM     21  H   UNL     1       6.542   4.608  20.350  0.00  0.00    +0.000 HD
ATOM     22  H   UNL     1       8.451   6.393  16.086  0.00  0.00    +0.000 HD
ENDROOT
TORSDOF 0
ENDMDL
MODEL 2
REMARK VINA RESULT:      -7.8      4.064      5.939
REMARK  Name = 
REMARK  0 active torsions:
REMARK  status: ('A' for Active; 'I' for Inactive)
REMARK                            x       y       z     vdW  Elec       q    Type
REMARK                         _______ _______ _______ _____ _____    ______ ____
ROOT
ATOM      1  C   UNL     1       1.114   2.267  19.949  0.00  0.00    +0.000 A 
ATOM      2  C   UNL     1       1.106   3.418  20.761  0.00  0.00    +0.000 A 
ATOM      3  C   UNL     1       2.184   4.248  20.767  0.00  0.00    +0.000 A 
ATOM      4  C   UNL     1       2.962   4.192  19.639  0.00  0.00    +0.000 A 
ATOM      5  C   UNL     1       3.055   3.130  18.797  0.00  0.00    +0.000 A 
ATOM      6  C   UNL     1       2.183   2.035  19.006  0.00  0.00    +0.000 A 
ATOM      7  N   UNL     1       3.834   3.440  17.702  0.00  0.00    +0.000 N 
ATOM      8  C   UNL     1       3.977   4.799  17.797  0.00  0.00    +0.000 A 
ATOM      9  C   UNL     1       4.396   5.781  16.844  0.00  0.00    +0.000 A 
ATOM     10  N   UNL     1       4.034   7.109  17.029  0.00  0.00    +0.000 N 
ATOM     11  C   UNL     1       3.291   7.431  18.146  0.00  0.00    +0.000 A 
ATOM     12  C   UNL     1       2.421   8.486  18.484  0.00  0.00    +0.000 A 
ATOM     13  C   UNL     1       2.011   9.643  17.838  0.00  0.00    +0.000 A 
ATOM     14  C   UNL     1       0.914  10.356  18.385  0.00  0.00    +0.000 A 
ATOM     15  C   UNL     1       0.288   9.884  19.572  0.00  0.00    +0.000 A 
ATOM     16  N   UNL     1       0.750   8.781  20.196  0.00  0.00    +0.000 NA
ATOM     17  C   UNL     1       1.797   8.092  19.661  0.00  0.00    +0.000 A 
ATOM     18  N   UNL     1       2.207   6.915  20.113  0.00  0.00    +0.000 NA
ATOM     19  C   UNL     1       3.081   6.498  19.190  0.00  0.00    +0.000 A 
ATOM     20  C   UNL     1       3.408   5.224  18.957  0.00  0.00    +0.000 A 
ATOM     21  H   UNL     1       4.025   2.852  16.863  0.00  0.00    +0.000 HD
ATOM     22  H   UNL     1       4.185   7.817  16.279  0.00  0.00    +0.000 HD
ENDROOT
TORSDOF 0
ENDMDL
MODEL 3
REMARK VINA RESULT:      -7.8      2.450      5.932
REMARK  Name = 
REMARK  0 active torsions:
REMARK  status: ('A' for Active; 'I' for Inactive)
REMARK                            x       y       z     vdW  Elec       q    Type
REMARK                         _______ _______ _______ _____ _____    ______ ____
ROOT
ATOM      1  C   UNL     1       6.048   3.998  14.494  0.00  0.00    +0.000 A 
ATOM      2  C   UNL     1       6.197   3.413  15.767  0.00  0.00    +0.000 A 
ATOM      3  C   UNL     1       6.246   4.205  16.873  0.00  0.00    +0.000 A 
ATOM      4  C   UNL     1       5.649   5.431  16.730  0.00  0.00    +0.000 A 
ATOM      5  C   UNL     1       5.469   6.090  15.556  0.00  0.00    +0.000 A 
ATOM      6  C   UNL     1       5.791   5.412  14.356  0.00  0.00    +0.000 A 
ATOM      7  N   UNL     1       4.738   7.243  15.749  0.00  0.00    +0.000 N 
ATOM      8  C   UNL     1       4.269   7.105  17.028  0.00  0.00    +0.000 A 
ATOM      9  C   UNL     1       3.221   7.774  17.736  0.00  0.00    +0.000 A 
ATOM     10  N   UNL     1       2.648   7.163  18.843  0.00  0.00    +0.000 N 
ATOM     11  C   UNL     1       3.130   5.930  19.228  0.00  0.00    +0.000 A 
ATOM     12  C   UNL     1       2.609   4.851  19.969  0.00  0.00    +0.000 A 
ATOM     13  C   UNL     1       1.417   4.631  20.644  0.00  0.00    +0.000 A 
ATOM     14  C   UNL     1       1.129   3.310  21.071  0.00  0.00    +0.000 A 
ATOM     15  C   UNL     1       2.065   2.269  20.817  0.00  0.00    +0.000 A 
ATOM     16  N   UNL     1       3.235   2.535  20.201  0.00  0.00    +0.000 NA
ATOM     17  C   UNL     1       3.502   3.804  19.782  0.00  0.00    +0.000 A 
ATOM     18  N   UNL     1       4.545   4.122  19.028  0.00  0.00    +0.000 NA
ATOM     19  C   UNL     1       4.311   5.388  18.665  0.00  0.00    +0.000 A 
ATOM     20  C   UNL     1       4.809   5.983  17.578  0.00  0.00    +0.000 A 
ATOM     21  H   UNL     1       4.388   7.910  15.027  0.00  0.00    +0.000 HD
ATOM     22  H   UNL     1       1.783   7.547  19.281  0.00  0.00    +0.000 HD
ENDROOT
TORSDOF 0
ENDMDL
MODEL 4
REMARK VINA RESULT:      -7.8      3.671      6.597
REMARK  Name = 
REMARK  0 active torsions:
REMARK  status: ('A' for Active; 'I' for Inactive)
REMARK                            x       y       z     vdW  Elec       q    Type
REMARK                         _______ _______ _______ _____ _____    ______ ____
ROOT
ATOM      1  C   UNL     1       7.455   6.390  17.438  0.00  0.00    +0.000 A 
ATOM      2  C   UNL     1       6.314   7.111  17.033  0.00  0.00    +0.000 A 
ATOM      3  C   UNL     1       5.107   6.488  16.974  0.00  0.00    +0.000 A 
ATOM      4  C   UNL     1       4.989   5.381  17.776  0.00  0.00    +0.000 A 
ATOM      5  C   UNL     1       6.018   4.608  18.210  0.00  0.00    +0.000 A 
ATOM      6  C   UNL     1       7.337   5.040  17.938  0.00  0.00    +0.000 A 
ATOM      7  N   UNL     1       5.569   3.644  19.088  0.00  0.00    +0.000 N 
ATOM      8  C   UNL     1       4.287   4.043  19.361  0.00  0.00    +0.000 A 
ATOM      9  C   UNL     1       3.379   3.682  20.405  0.00  0.00    +0.000 A 
ATOM     10  N   UNL     1       2.332   4.535  20.725  0.00  0.00    +0.000 N 
ATOM     11  C   UNL     1       2.201   5.703  20.002  0.00  0.00    +0.000 A 
ATOM     12  C   UNL     1       1.594   6.951  20.242  0.00  0.00    +0.000 A 
ATOM     13  C   UNL     1       0.846   7.476  21.286  0.00  0.00    +0.000 A 
ATOM     14  C   UNL     1       0.610   8.874  21.297  0.00  0.00    +0.000 A 
ATOM     15  C   UNL     1       1.122   9.683  20.244  0.00  0.00    +0.000 A 
ATOM     16  N   UNL     1       1.803   9.126  19.222  0.00  0.00    +0.000 NA
ATOM     17  C   UNL     1       2.037   7.783  19.221  0.00  0.00    +0.000 A 
ATOM     18  N   UNL     1       2.832   7.179  18.349  0.00  0.00    +0.000 NA
ATOM     19  C   UNL     1       2.960   5.937  18.831  0.00  0.00    +0.000 A 
ATOM     20  C   UNL     1       3.983   5.115  18.580  0.00  0.00    +0.000 A 
ATOM     21  H   UNL     1       6.134   2.957  19.631  0.00  0.00    +0.000 HD
ATOM     22  H   UNL     1       1.753   4.380  21.577  0.00  0.00    +0.000 HD
ENDROOT
TORSDOF 0
ENDMDL
MODEL 5
REMARK VINA RESULT:      -7.6      2.589      3.435
REMARK  Name = 
REMARK  0 active torsions:
REMARK  status: ('A' for Active; 'I' for Inactive)
REMARK                            x       y       z     vdW  Elec       q    Type
REMARK                         _______ _______ _______ _____ _____    ______ ____
ROOT
ATOM      1  C   UNL     1       1.998   2.101  21.201  0.00  0.00    +0.000 A 
ATOM      2  C   UNL     1       2.253   1.817  19.844  0.00  0.00    +0.000 A 
ATOM      3  C   UNL     1       1.874   2.706  18.886  0.00  0.00    +0.000 A 
ATOM      4  C   UNL     1       1.744   4.001  19.319  0.00  0.00    +0.000 A 
ATOM      5  C   UNL     1       1.484   4.383  20.596  0.00  0.00    +0.000 A 
ATOM      6  C   UNL     1       1.482   3.388  21.602  0.00  0.00    +0.000 A 
ATOM      7  N   UNL     1       1.527   5.757  20.713  0.00  0.00    +0.000 N 
ATOM      8  C   UNL     1       2.081   6.154  19.525  0.00  0.00    +0.000 A 
ATOM      9  C   UNL     1       2.678   7.389  19.118  0.00  0.00    +0.000 A 
ATOM     10  N   UNL     1       3.552   7.401  18.041  0.00  0.00    +0.000 N 
ATOM     11  C   UNL     1       3.799   6.211  17.390  0.00  0.00    +0.000 A 
ATOM     12  C   UNL     1       4.847   5.722  16.585  0.00  0.00    +0.000 A 
ATOM     13  C   UNL     1       6.023   6.272  16.094  0.00  0.00    +0.000 A 
ATOM     14  C   UNL     1       6.976   5.394  15.517  0.00  0.00    +0.000 A 
ATOM     15  C   UNL     1       6.696   4.001  15.442  0.00  0.00    +0.000 A 
ATOM     16  N   UNL     1       5.519   3.514  15.888  0.00  0.00    +0.000 NA
ATOM     17  C   UNL     1       4.611   4.359  16.452  0.00  0.00    +0.000 A 
ATOM     18  N   UNL     1       3.507   3.948  17.061  0.00  0.00    +0.000 NA
ATOM     19  C   UNL     1       3.032   5.050  17.654  0.00  0.00    +0.000 A 
ATOM     20  C   UNL     1       2.232   5.066  18.723  0.00  0.00    +0.000 A 
ATOM     21  H   UNL     1       1.437   6.330  21.580  0.00  0.00    +0.000 HD
ATOM     22  H   UNL     1       4.122   8.246  17.820  0.00  0.00    +0.000 HD
ENDROOT
TORSDOF 0
ENDMDL
MODEL 6
REMARK VINA RESULT:      -7.5      3.916      6.279
REMARK  Name = 
REMARK  0 active torsions:
REMARK  status: ('A' for Active; 'I' for Inactive)
REMARK                            x       y       z     vdW  Elec       q    Type
REMARK                         _______ _______ _______ _____ _____    ______ ____
ROOT
ATOM      1  C   UNL     1       7.367   5.878  16.938  0.00  0.00    +0.000 A 
ATOM      2  C   UNL     1       6.319   6.589  16.320  0.00  0.00    +0.000 A 
ATOM      3  C   UNL     1       5.039   6.144  16.440  0.00  0.00    +0.000 A 
ATOM      4  C   UNL     1       4.802   5.360  17.540  0.00  0.00    +0.000 A 
ATOM      5  C   UNL     1       5.733   4.623  18.200  0.00  0.00    +0.000 A 
ATOM      6  C   UNL     1       7.089   4.772  17.824  0.00  0.00    +0.000 A 
ATOM      7  N   UNL     1       5.188   4.041  19.326  0.00  0.00    +0.000 N 
ATOM      8  C   UNL     1       3.979   4.672  19.449  0.00  0.00    +0.000 A 
ATOM      9  C   UNL     1       3.063   4.770  20.544  0.00  0.00    +0.000 A 
ATOM     10  N   UNL     1       2.147   5.812  20.576  0.00  0.00    +0.000 N 
ATOM     11  C   UNL     1       2.149   6.712  19.531  0.00  0.00    +0.000 A 
ATOM     12  C   UNL     1       1.718   8.044  19.372  0.00  0.00    +0.000 A 
ATOM     13  C   UNL     1       1.077   8.956  20.198  0.00  0.00    +0.000 A 
ATOM     14  C   UNL     1       1.026  10.310  19.779  0.00  0.00    +0.000 A 
ATOM     15  C   UNL     1       1.607  10.685  18.536  0.00  0.00    +0.000 A 
ATOM     16  N   UNL     1       2.178   9.757  17.739  0.00  0.00    +0.000 NA
ATOM     17  C   UNL     1       2.235   8.459  18.151  0.00  0.00    +0.000 A 
ATOM     18  N   UNL     1       2.917   7.518  17.513  0.00  0.00    +0.000 NA
ATOM     19  C   UNL     1       2.896   6.476  18.352  0.00  0.00    +0.000 A 
ATOM     20  C   UNL     1       3.794   5.487  18.375  0.00  0.00    +0.000 A 
ATOM     21  H   UNL     1       5.676   3.482  20.059  0.00  0.00    +0.000 HD
ATOM     22  H   UNL     1       1.579   6.002  21.429  0.00  0.00    +0.000 HD
ENDROOT
TORSDOF 0
ENDMDL
MODEL 7
REMARK VINA RESULT:      -7.3      4.987      7.119
REMARK  Name = 
REMARK  0 active torsions:
REMARK  status: ('A' for Active; 'I' for Inactive)
REMARK                            x       y       z     vdW  Elec       q    Type
REMARK                         _______ _______ _______ _____ _____    ______ ____
ROOT
ATOM      1  C   UNL     1       1.110   2.577  19.742  0.00  0.00    +0.000 A 
ATOM      2  C   UNL     1       1.085   3.488  20.817  0.00  0.00    +0.000 A 
ATOM      3  C   UNL     1       2.025   4.468  20.893  0.00  0.00    +0.000 A 
ATOM      4  C   UNL     1       2.597   4.813  19.695  0.00  0.00    +0.000 A 
ATOM      5  C   UNL     1       2.688   4.010  18.604  0.00  0.00    +0.000 A 
ATOM      6  C   UNL     1       2.022   2.761  18.638  0.00  0.00    +0.000 A 
ATOM      7  N   UNL     1       3.217   4.698  17.532  0.00  0.00    +0.000 N 
ATOM      8  C   UNL     1       3.187   6.001  17.953  0.00  0.00    +0.000 A 
ATOM      9  C   UNL     1       3.298   7.235  17.239  0.00  0.00    +0.000 A 
ATOM     10  N   UNL     1       2.797   8.399  17.805  0.00  0.00    +0.000 N 
ATOM     11  C   UNL     1       2.220   8.317  19.055  0.00  0.00    +0.000 A 
ATOM     12  C   UNL     1       1.286   9.096  19.766  0.00  0.00    +0.000 A 
ATOM     13  C   UNL     1       0.618  10.282  19.500  0.00  0.00    +0.000 A 
ATOM     14  C   UNL     1      -0.456  10.646  20.353  0.00  0.00    +0.000 A 
ATOM     15  C   UNL     1      -0.797   9.808  21.451  0.00  0.00    +0.000 A 
ATOM     16  N   UNL     1      -0.089   8.687  21.704  0.00  0.00    +0.000 NA
ATOM     17  C   UNL     1       0.933   8.336  20.875  0.00  0.00    +0.000 A 
ATOM     18  N   UNL     1       1.572   7.177  20.950  0.00  0.00    +0.000 NA
ATOM     19  C   UNL     1       2.323   7.145  19.843  0.00  0.00    +0.000 A 
ATOM     20  C   UNL     1       2.774   6.037  19.249  0.00  0.00    +0.000 A 
ATOM     21  H   UNL     1       3.339   4.364  16.552  0.00  0.00    +0.000 HD
ATOM     22  H   UNL     1       2.719   9.277  17.249  0.00  0.00    +0.000 HD
ENDROOT
TORSDOF 0
ENDMDL
MODEL 8
REMARK VINA RESULT:      -7.1      2.521      4.526
REMARK  Name = 
REMARK  0 active torsions:
REMARK  status: ('A' for Active; 'I' for Inactive)
REMARK                            x       y       z     vdW  Elec       q    Type
REMARK                         _______ _______ _______ _____ _____    ______ ____
ROOT
ATOM      1  C   UNL     1       1.313   3.248  21.427  0.00  0.00    +0.000 A 
ATOM      2  C   UNL     1       2.700   3.128  21.643  0.00  0.00    +0.000 A 
ATOM      3  C   UNL     1       3.489   2.582  20.678  0.00  0.00    +0.000 A 
ATOM      4  C   UNL     1       2.981   2.659  19.406  0.00  0.00    +0.000 A 
ATOM      5  C   UNL     1       1.665   2.760  19.087  0.00  0.00    +0.000 A 
ATOM      6  C   UNL     1       0.736   2.943  20.139  0.00  0.00    +0.000 A 
ATOM      7  N   UNL     1       1.503   2.929  17.728  0.00  0.00    +0.000 N 
ATOM      8  C   UNL     1       2.775   3.189  17.292  0.00  0.00    +0.000 A 
ATOM      9  C   UNL     1       3.268   3.750  16.072  0.00  0.00    +0.000 A 
ATOM     10  N   UNL     1       4.533   4.320  16.044  0.00  0.00    +0.000 N 
ATOM     11  C   UNL     1       5.277   4.307  17.206  0.00  0.00    +0.000 A 
ATOM     12  C   UNL     1       6.345   5.079  17.705  0.00  0.00    +0.000 A 
ATOM     13  C   UNL     1       7.099   6.127  17.195  0.00  0.00    +0.000 A 
ATOM     14  C   UNL     1       7.939   6.836  18.090  0.00  0.00    +0.000 A 
ATOM     15  C   UNL     1       8.000   6.448  19.458  0.00  0.00    +0.000 A 
ATOM     16  N   UNL     1       7.288   5.392  19.902  0.00  0.00    +0.000 NA
ATOM     17  C   UNL     1       6.472   4.720  19.041  0.00  0.00    +0.000 A 
ATOM     18  N   UNL     1       5.618   3.781  19.424  0.00  0.00    +0.000 NA
ATOM     19  C   UNL     1       4.875   3.553  18.335  0.00  0.00    +0.000 A 
ATOM     20  C   UNL     1       3.636   3.053  18.337  0.00  0.00    +0.000 A 
ATOM     21  H   UNL     1       0.619   3.104  17.204  0.00  0.00    +0.000 HD
ATOM     22  H   UNL     1       4.856   4.873  15.222  0.00  0.00    +0.000 HD
ENDROOT
TORSDOF 0
ENDMDL
MODEL 9
REMARK VINA RESULT:      -7.0      5.966      8.215
REMARK  Name = 
REMARK  0 active torsions:
REMARK  status: ('A' for Active; 'I' for Inactive)
REMARK                            x       y       z     vdW  Elec       q    Type
REMARK                         _______ _______ _______ _____ _____    ______ ____
ROOT
ATOM      1  C   UNL     1       1.054   3.523  19.626  0.00  0.00    +0.000 A 
ATOM      2  C   UNL     1       1.214   4.233  20.834  0.00  0.00    +0.000 A 
ATOM      3  C   UNL     1       2.055   5.301  20.883  0.00  0.00    +0.000 A 
ATOM      4  C   UNL     1       2.284   5.911  19.676  0.00  0.00    +0.000 A 
ATOM      5  C   UNL     1       2.174   5.318  18.459  0.00  0.00    +0.000 A 
ATOM      6  C   UNL     1       1.649   4.005  18.402  0.00  0.00    +0.000 A 
ATOM      7  N   UNL     1       2.363   6.237  17.448  0.00  0.00    +0.000 N 
ATOM      8  C   UNL     1       2.324   7.437  18.106  0.00  0.00    +0.000 A 
ATOM      9  C   UNL     1       2.148   8.776  17.635  0.00  0.00    +0.000 A 
ATOM     10  N   UNL     1       1.701   9.755  18.512  0.00  0.00    +0.000 N 
ATOM     11  C   UNL     1       1.457   9.393  19.820  0.00  0.00    +0.000 A 
ATOM     12  C   UNL     1       0.661   9.916  20.859  0.00  0.00    +0.000 A 
ATOM     13  C   UNL     1      -0.153  11.032  20.982  0.00  0.00    +0.000 A 
ATOM     14  C   UNL     1      -1.013  11.106  22.108  0.00  0.00    +0.000 A 
ATOM     15  C   UNL     1      -1.001  10.061  23.073  0.00  0.00    +0.000 A 
ATOM     16  N   UNL     1      -0.158   9.016  22.940  0.00  0.00    +0.000 NA
ATOM     17  C   UNL     1       0.658   8.943  21.851  0.00  0.00    +0.000 A 
ATOM     18  N   UNL     1       1.395   7.880  21.558  0.00  0.00    +0.000 NA
ATOM     19  C   UNL     1       1.851   8.130  20.325  0.00  0.00    +0.000 A 
ATOM     20  C   UNL     1       2.239   7.204  19.444  0.00  0.00    +0.000 A 
ATOM     21  H   UNL     1       2.271   6.088  16.420  0.00  0.00    +0.000 HD
ATOM     22  H   UNL     1       1.413  10.695  18.167  0.00  0.00    +0.000 HD
ENDROOT
TORSDOF 0
ENDMDL
