MODEL 1
REMARK VINA RESULT:      -8.0      0.000      0.000
REMARK  Name = 
REMARK  7 active torsions:
REMARK  status: ('A' for Active; 'I' for Inactive)
REMARK    1  A    between atoms: C_1  and  C_2
REMARK    2  A    between atoms: C_2  and  C_3
REMARK    3  A    between atoms: C_8  and  C_9
REMARK    4  A    between atoms: C_19  and  C_20
REMARK    5  A    between atoms: C_24  and  O_25
REMARK    6  A    between atoms: O_25  and  S_26
REMARK    7  A    between atoms: S_26  and  C_27
REMARK                            x       y       z     vdW  Elec       q    Type
REMARK                         _______ _______ _______ _____ _____    ______ ____
ROOT
ATOM      1  C   UNL     1       3.610   5.708  17.866  0.00  0.00    +0.000 A 
ATOM      2  C   UNL     1       3.304   7.074  17.657  0.00  0.00    +0.000 A 
ATOM      3  C   UNL     1       2.548   7.782  18.597  0.00  0.00    +0.000 A 
ATOM      4  C   UNL     1       2.165   9.192  18.401  0.00  0.00    +0.000 A 
ATOM      5  O   UNL     1       2.567   9.826  17.432  0.00  0.00    +0.000 OA
ATOM      6  C   UNL     1       1.251   9.784  19.437  0.00  0.00    +0.000 A 
ATOM      7  C   UNL     1       0.912   9.024  20.503  0.00  0.00    +0.000 A 
ATOM      8  C   UNL     1       0.009   9.423  21.639  0.00  0.00    +0.000 C 
ATOM      9  O   UNL     1       1.351   7.730  20.697  0.00  0.00    +0.000 OA
ATOM     10  C   UNL     1       2.104   7.128  19.733  0.00  0.00    +0.000 A 
ATOM     11  C   UNL     1       2.405   5.785  19.957  0.00  0.00    +0.000 A 
ATOM     12  C   UNL     1       3.192   5.074  19.054  0.00  0.00    +0.000 A 
ENDROOT
BRANCH   6  13
ATOM     13  C   UNL     1       0.745  11.153  19.264  0.00  0.00    +0.000 A 
ATOM     14  C   UNL     1      -0.490  11.371  18.634  0.00  0.00    +0.000 A 
ATOM     15  C   UNL     1      -0.986  12.669  18.485  0.00  0.00    +0.000 A 
ATOM     16  C   UNL     1      -0.251  13.751  18.966  0.00  0.00    +0.000 A 
ATOM     17  C   UNL     1       0.967  13.535  19.620  0.00  0.00    +0.000 A 
ATOM     18  C   UNL     1       1.473  12.243  19.752  0.00  0.00    +0.000 A 
ATOM     19  O   UNL     1       1.724  14.546  20.157  0.00  0.00    +0.000 OA
ATOM     20  C   UNL     1       0.981  15.767  20.245  0.00  0.00    +0.000 C 
ATOM     21  C   UNL     1       0.207  16.017  18.961  0.00  0.00    +0.000 C 
ATOM     22  O   UNL     1      -0.783  14.999  18.767  0.00  0.00    +0.000 OA
ENDBRANCH   6  13
BRANCH   1  24
ATOM     23  C   UNL     1       5.219   5.851  15.962  0.00  0.00    +0.000 C 
ATOM     24  C   UNL     1       4.302   4.938  16.764  0.00  0.00    +0.000 C 
ENDBRANCH   1  24
BRANCH  12  25
ATOM     25  O   UNL     1       3.532   3.751  19.242  0.00  0.00    +0.000 OA
BRANCH  25  26
ATOM     26  S   UNL     1       2.439   2.551  18.979  0.00  0.00    +0.000 S 
ATOM     27  C   UNL     1       3.576   1.270  18.499  0.00  0.00    +0.000 C 
ATOM     28  O   UNL     1       1.836   2.165  20.240  0.00  0.00    +0.000 OA
ATOM     29  O   UNL     1       1.643   2.869  17.816  0.00  0.00    +0.000 OA
ENDBRANCH  25  26
ENDBRANCH  12  25
TORSDOF 4
ENDMDL
MODEL 2
REMARK VINA RESULT:      -8.0      0.970      1.092
REMARK  Name = 
REMARK  7 active torsions:
REMARK  status: ('A' for Active; 'I' for Inactive)
REMARK    1  A    between atoms: C_1  and  C_2
REMARK    2  A    between atoms: C_2  and  C_3
REMARK    3  A    between atoms: C_8  and  C_9
REMARK    4  A    between atoms: C_19  and  C_20
REMARK    5  A    between atoms: C_24  and  O_25
REMARK    6  A    between atoms: O_25  and  S_26
REMARK    7  A    between atoms: S_26  and  C_27
REMARK                            x       y       z     vdW  Elec       q    Type
REMARK                         _______ _______ _______ _____ _____    ______ ____
ROOT
ATOM      1  C   UNL     1       3.707   5.751  17.795  0.00  0.00    +0.000 A 
ATOM      2  C   UNL     1       3.287   7.100  17.717  0.00  0.00    +0.000 A 
ATOM      3  C   UNL     1       2.504   7.657  18.733  0.00  0.00    +0.000 A 
ATOM      4  C   UNL     1       2.004   9.042  18.675  0.00  0.00    +0.000 A 
ATOM      5  O   UNL     1       2.327   9.791  17.760  0.00  0.00    +0.000 OA
ATOM      6  C   UNL     1       1.075   9.462  19.780  0.00  0.00    +0.000 A 
ATOM      7  C   UNL     1       0.827   8.584  20.779  0.00  0.00    +0.000 A 
ATOM      8  C   UNL     1      -0.072   8.804  21.964  0.00  0.00    +0.000 C 
ATOM      9  O   UNL     1       1.373   7.318  20.844  0.00  0.00    +0.000 OA
ATOM     10  C   UNL     1       2.145   6.869  19.814  0.00  0.00    +0.000 A 
ATOM     11  C   UNL     1       2.559   5.541  19.908  0.00  0.00    +0.000 A 
ATOM     12  C   UNL     1       3.374   4.980  18.928  0.00  0.00    +0.000 A 
ENDROOT
BRANCH   6  13
ATOM     13  C   UNL     1       0.456  10.794  19.743  0.00  0.00    +0.000 A 
ATOM     14  C   UNL     1      -0.753  10.989  19.058  0.00  0.00    +0.000 A 
ATOM     15  C   UNL     1      -1.356  12.250  19.037  0.00  0.00    +0.000 A 
ATOM     16  C   UNL     1      -0.754  13.317  19.701  0.00  0.00    +0.000 A 
ATOM     17  C   UNL     1       0.436  13.120  20.410  0.00  0.00    +0.000 A 
ATOM     18  C   UNL     1       1.050  11.868  20.415  0.00  0.00    +0.000 A 
ATOM     19  O   UNL     1       1.063  14.111  21.121  0.00  0.00    +0.000 OA
ATOM     20  C   UNL     1       0.206  15.244  21.307  0.00  0.00    +0.000 C 
ATOM     21  C   UNL     1      -0.508  15.594  20.012  0.00  0.00    +0.000 C 
ATOM     22  O   UNL     1      -1.386  14.532  19.622  0.00  0.00    +0.000 OA
ENDBRANCH   6  13
BRANCH   1  24
ATOM     23  C   UNL     1       5.224   6.200  15.862  0.00  0.00    +0.000 C 
ATOM     24  C   UNL     1       4.428   5.142  16.613  0.00  0.00    +0.000 C 
ENDBRANCH   1  24
BRANCH  12  25
ATOM     25  O   UNL     1       3.824   3.678  18.987  0.00  0.00    +0.000 OA
BRANCH  25  26
ATOM     26  S   UNL     1       2.849   2.426  18.558  0.00  0.00    +0.000 S 
ATOM     27  C   UNL     1       1.935   2.282  20.077  0.00  0.00    +0.000 C 
ATOM     28  O   UNL     1       1.931   2.865  17.523  0.00  0.00    +0.000 OA
ATOM     29  O   UNL     1       3.637   1.224  18.421  0.00  0.00    +0.000 OA
ENDBRANCH  25  26
ENDBRANCH  12  25
TORSDOF 4
ENDMDL
MODEL 3
REMARK VINA RESULT:      -7.9      0.946      1.027
REMARK  Name = 
REMARK  7 active torsions:
REMARK  status: ('A' for Active; 'I' for Inactive)
REMARK    1  A    between atoms: C_1  and  C_2
REMARK    2  A    between atoms: C_2  and  C_3
REMARK    3  A    between atoms: C_8  and  C_9
REMARK    4  A    between atoms: C_19  and  C_20
REMARK    5  A    between atoms: C_24  and  O_25
REMARK    6  A    between atoms: O_25  and  S_26
REMARK    7  A    between atoms: S_26  and  C_27
REMARK                            x       y       z     vdW  Elec       q    Type
REMARK                         _______ _______ _______ _____ _____    ______ ____
ROOT
ATOM      1  C   UNL     1       3.099   5.654  18.245  0.00  0.00    +0.000 A 
ATOM      2  C   UNL     1       2.866   7.012  17.925  0.00  0.00    +0.000 A 
ATOM      3  C   UNL     1       2.245   7.860  18.848  0.00  0.00    +0.000 A 
ATOM      4  C   UNL     1       1.939   9.269  18.544  0.00  0.00    +0.000 A 
ATOM      5  O   UNL     1       2.294   9.778  17.486  0.00  0.00    +0.000 OA
ATOM      6  C   UNL     1       1.163  10.023  19.588  0.00  0.00    +0.000 A 
ATOM      7  C   UNL     1       0.871   9.395  20.749  0.00  0.00    +0.000 A 
ATOM      8  C   UNL     1       0.102   9.965  21.910  0.00  0.00    +0.000 C 
ATOM      9  O   UNL     1       1.240   8.096  21.035  0.00  0.00    +0.000 OA
ATOM     10  C   UNL     1       1.863   7.351  20.078  0.00  0.00    +0.000 A 
ATOM     11  C   UNL     1       2.094   6.017  20.410  0.00  0.00    +0.000 A 
ATOM     12  C   UNL     1       2.748   5.167  19.521  0.00  0.00    +0.000 A 
ENDROOT
BRANCH   6  13
ATOM     13  C   UNL     1       0.734  11.403  19.320  0.00  0.00    +0.000 A 
ATOM     14  C   UNL     1      -0.481  11.646  18.661  0.00  0.00    +0.000 A 
ATOM     15  C   UNL     1      -0.904  12.957  18.422  0.00  0.00    +0.000 A 
ATOM     16  C   UNL     1      -0.116  14.026  18.842  0.00  0.00    +0.000 A 
ATOM     17  C   UNL     1       1.082  13.788  19.525  0.00  0.00    +0.000 A 
ATOM     18  C   UNL     1       1.516  12.481  19.746  0.00  0.00    +0.000 A 
ATOM     19  O   UNL     1       1.888  14.789  20.005  0.00  0.00    +0.000 OA
ATOM     20  C   UNL     1       1.212  16.051  20.005  0.00  0.00    +0.000 C 
ATOM     21  C   UNL     1       0.466  16.259  18.697  0.00  0.00    +0.000 C 
ATOM     22  O   UNL     1      -0.577  15.286  18.556  0.00  0.00    +0.000 OA
ENDBRANCH   6  13
BRANCH   1  24
ATOM     23  C   UNL     1       5.010   5.197  16.704  0.00  0.00    +0.000 C 
ATOM     24  C   UNL     1       3.637   4.734  17.173  0.00  0.00    +0.000 C 
ENDBRANCH   1  24
BRANCH  12  25
ATOM     25  O   UNL     1       3.016   3.847  19.813  0.00  0.00    +0.000 OA
BRANCH  25  26
ATOM     26  S   UNL     1       1.825   2.714  19.776  0.00  0.00    +0.000 S 
ATOM     27  C   UNL     1       1.591   2.533  21.531  0.00  0.00    +0.000 C 
ATOM     28  O   UNL     1       0.620   3.301  19.222  0.00  0.00    +0.000 OA
ATOM     29  O   UNL     1       2.360   1.464  19.289  0.00  0.00    +0.000 OA
ENDBRANCH  25  26
ENDBRANCH  12  25
TORSDOF 4
ENDMDL
MODEL 4
REMARK VINA RESULT:      -7.7      1.839      2.922
REMARK  Name = 
REMARK  7 active torsions:
REMARK  status: ('A' for Active; 'I' for Inactive)
REMARK    1  A    between atoms: C_1  and  C_2
REMARK    2  A    between atoms: C_2  and  C_3
REMARK    3  A    between atoms: C_8  and  C_9
REMARK    4  A    between atoms: C_19  and  C_20
REMARK    5  A    between atoms: C_24  and  O_25
REMARK    6  A    between atoms: O_25  and  S_26
REMARK    7  A    between atoms: S_26  and  C_27
REMARK                            x       y       z     vdW  Elec       q    Type
REMARK                         _______ _______ _______ _____ _____    ______ ____
ROOT
ATOM      1  C   UNL     1       2.159   5.251  20.442  0.00  0.00    +0.000 A 
ATOM      2  C   UNL     1       1.336   6.330  20.843  0.00  0.00    +0.000 A 
ATOM      3  C   UNL     1       1.364   7.540  20.141  0.00  0.00    +0.000 A 
ATOM      4  C   UNL     1       0.561   8.707  20.547  0.00  0.00    +0.000 A 
ATOM      5  O   UNL     1      -0.232   8.633  21.480  0.00  0.00    +0.000 OA
ATOM      6  C   UNL     1       0.786   9.974  19.770  0.00  0.00    +0.000 A 
ATOM      7  C   UNL     1       1.636   9.940  18.719  0.00  0.00    +0.000 A 
ATOM      8  C   UNL     1       2.003  11.092  17.824  0.00  0.00    +0.000 C 
ATOM      9  O   UNL     1       2.317   8.808  18.316  0.00  0.00    +0.000 OA
ATOM     10  C   UNL     1       2.209   7.666  19.052  0.00  0.00    +0.000 A 
ATOM     11  C   UNL     1       3.019   6.608  18.640  0.00  0.00    +0.000 A 
ATOM     12  C   UNL     1       2.974   5.382  19.299  0.00  0.00    +0.000 A 
ENDROOT
BRANCH   6  13
ATOM     13  C   UNL     1       0.097  11.207  20.174  0.00  0.00    +0.000 A 
ATOM     14  C   UNL     1      -1.205  11.466  19.720  0.00  0.00    +0.000 A 
ATOM     15  C   UNL     1      -1.873  12.628  20.118  0.00  0.00    +0.000 A 
ATOM     16  C   UNL     1      -1.243  13.531  20.971  0.00  0.00    +0.000 A 
ATOM     17  C   UNL     1       0.044  13.262  21.450  0.00  0.00    +0.000 A 
ATOM     18  C   UNL     1       0.720  12.114  21.037  0.00  0.00    +0.000 A 
ATOM     19  O   UNL     1       0.710  14.083  22.324  0.00  0.00    +0.000 OA
ATOM     20  C   UNL     1      -0.172  15.044  22.916  0.00  0.00    +0.000 C 
ATOM     21  C   UNL     1      -1.079  15.658  21.862  0.00  0.00    +0.000 C 
ATOM     22  O   UNL     1      -1.945  14.661  21.304  0.00  0.00    +0.000 OA
ENDBRANCH   6  13
BRANCH   1  24
ATOM     23  C   UNL     1       1.177   2.991  20.850  0.00  0.00    +0.000 C 
ATOM     24  C   UNL     1       2.210   4.012  21.308  0.00  0.00    +0.000 C 
ENDBRANCH   1  24
BRANCH  12  25
ATOM     25  O   UNL     1       3.741   4.301  18.918  0.00  0.00    +0.000 OA
BRANCH  25  26
ATOM     26  S   UNL     1       3.352   3.415  17.589  0.00  0.00    +0.000 S 
ATOM     27  C   UNL     1       3.638   1.796  18.268  0.00  0.00    +0.000 C 
ATOM     28  O   UNL     1       1.931   3.544  17.325  0.00  0.00    +0.000 OA
ATOM     29  O   UNL     1       4.344   3.625  16.560  0.00  0.00    +0.000 OA
ENDBRANCH  25  26
ENDBRANCH  12  25
TORSDOF 4
ENDMDL
MODEL 5
REMARK VINA RESULT:      -7.7      1.205      1.326
REMARK  Name = 
REMARK  7 active torsions:
REMARK  status: ('A' for Active; 'I' for Inactive)
REMARK    1  A    between atoms: C_1  and  C_2
REMARK    2  A    between atoms: C_2  and  C_3
REMARK    3  A    between atoms: C_8  and  C_9
REMARK    4  A    between atoms: C_19  and  C_20
REMARK    5  A    between atoms: C_24  and  O_25
REMARK    6  A    between atoms: O_25  and  S_26
REMARK    7  A    between atoms: S_26  and  C_27
REMARK                            x       y       z     vdW  Elec       q    Type
REMARK                         _______ _______ _______ _____ _____    ______ ____
ROOT
ATOM      1  C   UNL     1       4.050   5.754  17.612  0.00  0.00    +0.000 A 
ATOM      2  C   UNL     1       3.457   7.038  17.549  0.00  0.00    +0.000 A 
ATOM      3  C   UNL     1       2.698   7.520  18.620  0.00  0.00    +0.000 A 
ATOM      4  C   UNL     1       2.023   8.830  18.583  0.00  0.00    +0.000 A 
ATOM      5  O   UNL     1       2.170   9.588  17.630  0.00  0.00    +0.000 OA
ATOM      6  C   UNL     1       1.145   9.161  19.757  0.00  0.00    +0.000 A 
ATOM      7  C   UNL     1       1.095   8.287  20.788  0.00  0.00    +0.000 A 
ATOM      8  C   UNL     1       0.278   8.425  22.043  0.00  0.00    +0.000 C 
ATOM      9  O   UNL     1       1.801   7.101  20.826  0.00  0.00    +0.000 OA
ATOM     10  C   UNL     1       2.534   6.724  19.741  0.00  0.00    +0.000 A 
ATOM     11  C   UNL     1       3.120   5.461  19.821  0.00  0.00    +0.000 A 
ATOM     12  C   UNL     1       3.914   4.980  18.783  0.00  0.00    +0.000 A 
ENDROOT
BRANCH   6  13
ATOM     13  C   UNL     1       0.361  10.404  19.751  0.00  0.00    +0.000 A 
ATOM     14  C   UNL     1      -0.905  10.434  19.147  0.00  0.00    +0.000 A 
ATOM     15  C   UNL     1      -1.664  11.608  19.157  0.00  0.00    +0.000 A 
ATOM     16  C   UNL     1      -1.160  12.752  19.771  0.00  0.00    +0.000 A 
ATOM     17  C   UNL     1       0.089  12.718  20.400  0.00  0.00    +0.000 A 
ATOM     18  C   UNL     1       0.857  11.554  20.374  0.00  0.00    +0.000 A 
ATOM     19  O   UNL     1       0.631  13.792  21.061  0.00  0.00    +0.000 OA
ATOM     20  C   UNL     1      -0.348  14.810  21.296  0.00  0.00    +0.000 C 
ATOM     21  C   UNL     1      -1.184  15.047  20.049  0.00  0.00    +0.000 C 
ATOM     22  O   UNL     1      -1.945  13.877  19.726  0.00  0.00    +0.000 OA
ENDBRANCH   6  13
BRANCH   1  24
ATOM     23  C   UNL     1       5.275   6.340  15.516  0.00  0.00    +0.000 C 
ATOM     24  C   UNL     1       4.740   5.208  16.383  0.00  0.00    +0.000 C 
ENDBRANCH   1  24
BRANCH  12  25
ATOM     25  O   UNL     1       4.529   3.747  18.825  0.00  0.00    +0.000 OA
BRANCH  25  26
ATOM     26  S   UNL     1       3.892   2.513  19.706  0.00  0.00    +0.000 S 
ATOM     27  C   UNL     1       3.507   1.411  18.363  0.00  0.00    +0.000 C 
ATOM     28  O   UNL     1       4.939   1.900  20.502  0.00  0.00    +0.000 OA
ATOM     29  O   UNL     1       2.637   2.931  20.286  0.00  0.00    +0.000 OA
ENDBRANCH  25  26
ENDBRANCH  12  25
TORSDOF 4
ENDMDL
MODEL 6
REMARK VINA RESULT:      -7.6      2.152      3.186
REMARK  Name = 
REMARK  7 active torsions:
REMARK  status: ('A' for Active; 'I' for Inactive)
REMARK    1  A    between atoms: C_1  and  C_2
REMARK    2  A    between atoms: C_2  and  C_3
REMARK    3  A    between atoms: C_8  and  C_9
REMARK    4  A    between atoms: C_19  and  C_20
REMARK    5  A    between atoms: C_24  and  O_25
REMARK    6  A    between atoms: O_25  and  S_26
REMARK    7  A    between atoms: S_26  and  C_27
REMARK                            x       y       z     vdW  Elec       q    Type
REMARK                         _______ _______ _______ _____ _____    ______ ____
ROOT
ATOM      1  C   UNL     1       2.209   5.143  20.559  0.00  0.00    +0.000 A 
ATOM      2  C   UNL     1       1.307   6.151  20.975  0.00  0.00    +0.000 A 
ATOM      3  C   UNL     1       1.275   7.387  20.322  0.00  0.00    +0.000 A 
ATOM      4  C   UNL     1       0.387   8.483  20.747  0.00  0.00    +0.000 A 
ATOM      5  O   UNL     1      -0.425   8.321  21.652  0.00  0.00    +0.000 OA
ATOM      6  C   UNL     1       0.550   9.792  20.026  0.00  0.00    +0.000 A 
ATOM      7  C   UNL     1       1.428   9.854  19.000  0.00  0.00    +0.000 A 
ATOM      8  C   UNL     1       1.744  11.062  18.160  0.00  0.00    +0.000 C 
ATOM      9  O   UNL     1       2.192   8.785  18.575  0.00  0.00    +0.000 OA
ATOM     10  C   UNL     1       2.139   7.610  19.263  0.00  0.00    +0.000 A 
ATOM     11  C   UNL     1       3.028   6.623  18.836  0.00  0.00    +0.000 A 
ATOM     12  C   UNL     1       3.045   5.372  19.447  0.00  0.00    +0.000 A 
ENDROOT
BRANCH   6  13
ATOM     13  C   UNL     1      -0.230  10.961  20.456  0.00  0.00    +0.000 A 
ATOM     14  C   UNL     1      -1.357  11.362  19.724  0.00  0.00    +0.000 A 
ATOM     15  C   UNL     1      -2.114  12.461  20.140  0.00  0.00    +0.000 A 
ATOM     16  C   UNL     1      -1.747  13.160  21.288  0.00  0.00    +0.000 A 
ATOM     17  C   UNL     1      -0.640  12.745  22.037  0.00  0.00    +0.000 A 
ATOM     18  C   UNL     1       0.128  11.662  21.612  0.00  0.00    +0.000 A 
ATOM     19  O   UNL     1      -0.244  13.357  23.200  0.00  0.00    +0.000 OA
ATOM     20  C   UNL     1      -1.259  14.234  23.702  0.00  0.00    +0.000 C 
ATOM     21  C   UNL     1      -1.844  15.075  22.580  0.00  0.00    +0.000 C 
ATOM     22  O   UNL     1      -2.518  14.242  21.629  0.00  0.00    +0.000 OA
ENDBRANCH   6  13
BRANCH   1  24
ATOM     23  C   UNL     1       1.240   2.879  20.975  0.00  0.00    +0.000 C 
ATOM     24  C   UNL     1       2.317   3.877  21.378  0.00  0.00    +0.000 C 
ENDBRANCH   1  24
BRANCH  12  25
ATOM     25  O   UNL     1       3.891   4.359  19.048  0.00  0.00    +0.000 OA
BRANCH  25  26
ATOM     26  S   UNL     1       3.465   3.328  17.839  0.00  0.00    +0.000 S 
ATOM     27  C   UNL     1       4.666   3.840  16.630  0.00  0.00    +0.000 C 
ATOM     28  O   UNL     1       3.780   1.968  18.234  0.00  0.00    +0.000 OA
ATOM     29  O   UNL     1       2.165   3.694  17.327  0.00  0.00    +0.000 OA
ENDBRANCH  25  26
ENDBRANCH  12  25
TORSDOF 4
ENDMDL
MODEL 7
REMARK VINA RESULT:      -7.6      2.739      4.233
REMARK  Name = 
REMARK  7 active torsions:
REMARK  status: ('A' for Active; 'I' for Inactive)
REMARK    1  A    between atoms: C_1  and  C_2
REMARK    2  A    between atoms: C_2  and  C_3
REMARK    3  A    between atoms: C_8  and  C_9
REMARK    4  A    between atoms: C_19  and  C_20
REMARK    5  A    between atoms: C_24  and  O_25
REMARK    6  A    between atoms: O_25  and  S_26
REMARK    7  A    between atoms: S_26  and  C_27
REMARK                            x       y       z     vdW  Elec       q    Type
REMARK                         _______ _______ _______ _____ _____    ______ ____
ROOT
ATOM      1  C   UNL     1       4.099   4.380  18.574  0.00  0.00    +0.000 A 
ATOM      2  C   UNL     1       3.177   5.008  19.445  0.00  0.00    +0.000 A 
ATOM      3  C   UNL     1       2.742   6.314  19.193  0.00  0.00    +0.000 A 
ATOM      4  C   UNL     1       1.820   7.026  20.095  0.00  0.00    +0.000 A 
ATOM      5  O   UNL     1       1.331   6.464  21.069  0.00  0.00    +0.000 OA
ATOM      6  C   UNL     1       1.537   8.464  19.759  0.00  0.00    +0.000 A 
ATOM      7  C   UNL     1       2.074   8.976  18.629  0.00  0.00    +0.000 A 
ATOM      8  C   UNL     1       1.921  10.384  18.120  0.00  0.00    +0.000 C 
ATOM      9  O   UNL     1       2.874   8.258  17.762  0.00  0.00    +0.000 OA
ATOM     10  C   UNL     1       3.227   6.981  18.081  0.00  0.00    +0.000 A 
ATOM     11  C   UNL     1       4.129   6.372  17.210  0.00  0.00    +0.000 A 
ATOM     12  C   UNL     1       4.542   5.059  17.420  0.00  0.00    +0.000 A 
ENDROOT
BRANCH   6  13
ATOM     13  C   UNL     1       0.705   9.271  20.662  0.00  0.00    +0.000 A 
ATOM     14  C   UNL     1       0.843   9.138  22.052  0.00  0.00    +0.000 A 
ATOM     15  C   UNL     1       0.068   9.920  22.915  0.00  0.00    +0.000 A 
ATOM     16  C   UNL     1      -0.842  10.835  22.392  0.00  0.00    +0.000 A 
ATOM     17  C   UNL     1      -0.961  10.991  21.006  0.00  0.00    +0.000 A 
ATOM     18  C   UNL     1      -0.205  10.198  20.143  0.00  0.00    +0.000 A 
ATOM     19  O   UNL     1      -1.804  11.900  20.420  0.00  0.00    +0.000 OA
ATOM     20  C   UNL     1      -2.287  12.856  21.370  0.00  0.00    +0.000 C 
ATOM     21  C   UNL     1      -2.714  12.165  22.655  0.00  0.00    +0.000 C 
ATOM     22  O   UNL     1      -1.587  11.553  23.292  0.00  0.00    +0.000 OA
ENDBRANCH   6  13
BRANCH   1  24
ATOM     23  C   UNL     1       3.688   1.917  18.574  0.00  0.00    +0.000 C 
ATOM     24  C   UNL     1       4.657   3.028  18.955  0.00  0.00    +0.000 C 
ENDBRANCH   1  24
BRANCH  12  25
ATOM     25  O   UNL     1       5.417   4.407  16.576  0.00  0.00    +0.000 OA
BRANCH  25  26
ATOM     26  S   UNL     1       6.914   5.018  16.275  0.00  0.00    +0.000 S 
ATOM     27  C   UNL     1       6.961   4.728  14.520  0.00  0.00    +0.000 C 
ATOM     28  O   UNL     1       6.900   6.452  16.492  0.00  0.00    +0.000 OA
ATOM     29  O   UNL     1       7.913   4.163  16.873  0.00  0.00    +0.000 OA
ENDBRANCH  25  26
ENDBRANCH  12  25
TORSDOF 4
ENDMDL
MODEL 8
REMARK VINA RESULT:      -7.6      1.006      1.387
REMARK  Name = 
REMARK  7 active torsions:
REMARK  status: ('A' for Active; 'I' for Inactive)
REMARK    1  A    between atoms: C_1  and  C_2
REMARK    2  A    between atoms: C_2  and  C_3
REMARK    3  A    between atoms: C_8  and  C_9
REMARK    4  A    between atoms: C_19  and  C_20
REMARK    5  A    between atoms: C_24  and  O_25
REMARK    6  A    between atoms: O_25  and  S_26
REMARK    7  A    between atoms: S_26  and  C_27
REMARK                            x       y       z     vdW  Elec       q    Type
REMARK                         _______ _______ _______ _____ _____    ______ ____
ROOT
ATOM      1  C   UNL     1       2.771   4.901  18.088  0.00  0.00    +0.000 A 
ATOM      2  C   UNL     1       2.597   6.272  17.785  0.00  0.00    +0.000 A 
ATOM      3  C   UNL     1       2.119   7.157  18.758  0.00  0.00    +0.000 A 
ATOM      4  C   UNL     1       1.878   8.583  18.477  0.00  0.00    +0.000 A 
ATOM      5  O   UNL     1       2.166   9.069  17.389  0.00  0.00    +0.000 OA
ATOM      6  C   UNL     1       1.251   9.383  19.585  0.00  0.00    +0.000 A 
ATOM      7  C   UNL     1       1.027   8.773  20.770  0.00  0.00    +0.000 A 
ATOM      8  C   UNL     1       0.406   9.389  21.994  0.00  0.00    +0.000 C 
ATOM      9  O   UNL     1       1.336   7.452  21.026  0.00  0.00    +0.000 OA
ATOM     10  C   UNL     1       1.819   6.671  20.019  0.00  0.00    +0.000 A 
ATOM     11  C   UNL     1       1.995   5.324  20.334  0.00  0.00    +0.000 A 
ATOM     12  C   UNL     1       2.508   4.436  19.393  0.00  0.00    +0.000 A 
ENDROOT
BRANCH   6  13
ATOM     13  C   UNL     1       0.888  10.788  19.351  0.00  0.00    +0.000 A 
ATOM     14  C   UNL     1      -0.343  11.108  18.759  0.00  0.00    +0.000 A 
ATOM     15  C   UNL     1      -0.702  12.443  18.554  0.00  0.00    +0.000 A 
ATOM     16  C   UNL     1       0.168  13.461  18.942  0.00  0.00    +0.000 A 
ATOM     17  C   UNL     1       1.383  13.147  19.559  0.00  0.00    +0.000 A 
ATOM     18  C   UNL     1       1.752  11.815  19.746  0.00  0.00    +0.000 A 
ATOM     19  O   UNL     1       2.269  14.095  20.005  0.00  0.00    +0.000 OA
ATOM     20  C   UNL     1       1.668  15.394  20.051  0.00  0.00    +0.000 C 
ATOM     21  C   UNL     1       0.868  15.658  18.786  0.00  0.00    +0.000 C 
ATOM     22  O   UNL     1      -0.235  14.748  18.691  0.00  0.00    +0.000 OA
ENDBRANCH   6  13
BRANCH   1  24
ATOM     23  C   UNL     1       4.534   4.275  16.433  0.00  0.00    +0.000 C 
ATOM     24  C   UNL     1       3.148   3.950  16.975  0.00  0.00    +0.000 C 
ENDBRANCH   1  24
BRANCH  12  25
ATOM     25  O   UNL     1       2.717   3.100  19.664  0.00  0.00    +0.000 OA
BRANCH  25  26
ATOM     26  S   UNL     1       4.210   2.542  20.068  0.00  0.00    +0.000 S 
ATOM     27  C   UNL     1       4.288   1.175  18.932  0.00  0.00    +0.000 C 
ATOM     28  O   UNL     1       5.210   3.514  19.668  0.00  0.00    +0.000 OA
ATOM     29  O   UNL     1       4.175   1.985  21.400  0.00  0.00    +0.000 OA
ENDBRANCH  25  26
ENDBRANCH  12  25
TORSDOF 4
ENDMDL
MODEL 9
REMARK VINA RESULT:      -7.4      3.073      8.534
REMARK  Name = 
REMARK  7 active torsions:
REMARK  status: ('A' for Active; 'I' for Inactive)
REMARK    1  A    between atoms: C_1  and  C_2
REMARK    2  A    between atoms: C_2  and  C_3
REMARK    3  A    between atoms: C_8  and  C_9
REMARK    4  A    between atoms: C_19  and  C_20
REMARK    5  A    between atoms: C_24  and  O_25
REMARK    6  A    between atoms: O_25  and  S_26
REMARK    7  A    between atoms: S_26  and  C_27
REMARK                            x       y       z     vdW  Elec       q    Type
REMARK                         _______ _______ _______ _____ _____    ______ ____
ROOT
ATOM      1  C   UNL     1       0.461  11.848  20.022  0.00  0.00    +0.000 A 
ATOM      2  C   UNL     1       1.053  10.973  19.080  0.00  0.00    +0.000 A 
ATOM      3  C   UNL     1       1.301   9.638  19.412  0.00  0.00    +0.000 A 
ATOM      4  C   UNL     1       1.957   8.702  18.482  0.00  0.00    +0.000 A 
ATOM      5  O   UNL     1       2.241   9.044  17.339  0.00  0.00    +0.000 OA
ATOM      6  C   UNL     1       2.265   7.333  19.021  0.00  0.00    +0.000 A 
ATOM      7  C   UNL     1       1.857   7.029  20.274  0.00  0.00    +0.000 A 
ATOM      8  C   UNL     1       2.072   5.728  20.998  0.00  0.00    +0.000 C 
ATOM      9  O   UNL     1       1.175   7.906  21.094  0.00  0.00    +0.000 OA
ATOM     10  C   UNL     1       0.959   9.184  20.675  0.00  0.00    +0.000 A 
ATOM     11  C   UNL     1       0.367  10.032  21.611  0.00  0.00    +0.000 A 
ATOM     12  C   UNL     1       0.074  11.354  21.285  0.00  0.00    +0.000 A 
ENDROOT
BRANCH   6  13
ATOM     13  C   UNL     1       3.005   6.373  18.190  0.00  0.00    +0.000 A 
ATOM     14  C   UNL     1       2.483   5.091  17.961  0.00  0.00    +0.000 A 
ATOM     15  C   UNL     1       3.173   4.182  17.154  0.00  0.00    +0.000 A 
ATOM     16  C   UNL     1       4.384   4.552  16.573  0.00  0.00    +0.000 A 
ATOM     17  C   UNL     1       4.894   5.840  16.775  0.00  0.00    +0.000 A 
ATOM     18  C   UNL     1       4.218   6.741  17.596  0.00  0.00    +0.000 A 
ATOM     19  O   UNL     1       6.057   6.288  16.202  0.00  0.00    +0.000 OA
ATOM     20  C   UNL     1       6.495   5.417  15.154  0.00  0.00    +0.000 C 
ATOM     21  C   UNL     1       6.390   3.964  15.586  0.00  0.00    +0.000 C 
ATOM     22  O   UNL     1       5.021   3.606  15.812  0.00  0.00    +0.000 OA
ENDBRANCH   6  13
BRANCH   1  24
ATOM     23  C   UNL     1      -0.306  13.502  18.315  0.00  0.00    +0.000 C 
ATOM     24  C   UNL     1       0.342  13.316  19.681  0.00  0.00    +0.000 C 
ENDBRANCH   1  24
BRANCH  12  25
ATOM     25  O   UNL     1      -0.528  12.224  22.169  0.00  0.00    +0.000 OA
BRANCH  25  26
ATOM     26  S   UNL     1      -2.166  12.332  22.266  0.00  0.00    +0.000 S 
ATOM     27  C   UNL     1      -2.279  14.025  22.800  0.00  0.00    +0.000 C 
ATOM     28  O   UNL     1      -2.733  12.245  20.934  0.00  0.00    +0.000 OA
ATOM     29  O   UNL     1      -2.642  11.511  23.355  0.00  0.00    +0.000 OA
ENDBRANCH  25  26
ENDBRANCH  12  25
TORSDOF 4
ENDMDL
