MODEL 1
REMARK VINA RESULT:      -6.7      0.000      0.000
REMARK  Name = 
REMARK  8 active torsions:
REMARK  status: ('A' for Active; 'I' for Inactive)
REMARK    1  A    between atoms: C_1  and  N_2
REMARK    2  A    between atoms: N_2  and  C_3
REMARK    3  A    between atoms: N_2  and  C_4
REMARK    4  A    between atoms: C_9  and  N_10
REMARK    5  A    between atoms: N_10  and  C_11
REMARK    6  A    between atoms: N_10  and  S_12
REMARK    7  A    between atoms: S_12  and  C_15
REMARK    8  A    between atoms: N_18  and  C_19
REMARK                            x       y       z     vdW  Elec       q    Type
REMARK                         _______ _______ _______ _____ _____    ______ ____
ROOT
ATOM      1  N   UNL     1       5.689   4.627  17.426  0.00  0.00    +0.000 N 
ATOM      2  C   UNL     1       5.753   4.502  15.970  0.00  0.00    +0.000 C 
ENDROOT
BRANCH   1   8
ATOM      3  C   UNL     1       3.723   3.983  18.831  0.00  0.00    +0.000 A 
ATOM      4  N   UNL     1       2.563   4.331  19.447  0.00  0.00    +0.000 NA
ATOM      5  C   UNL     1       2.122   5.601  19.335  0.00  0.00    +0.000 A 
ATOM      6  C   UNL     1       2.782   6.587  18.626  0.00  0.00    +0.000 A 
ATOM      7  C   UNL     1       3.963   6.246  17.982  0.00  0.00    +0.000 A 
ATOM      8  C   UNL     1       4.437   4.933  18.063  0.00  0.00    +0.000 A 
BRANCH   3  10
ATOM      9  C   UNL     1       4.261   2.250  20.385  0.00  0.00    +0.000 C 
ATOM     10  N   UNL     1       4.194   2.651  18.976  0.00  0.00    +0.000 N 
ATOM     11  C   UNL     1       3.436   1.716  18.145  0.00  0.00    +0.000 C 
ENDBRANCH   3  10
ENDBRANCH   1   8
BRANCH   1  12
ATOM     12  S   UNL     1       7.104   4.917  18.295  0.00  0.00    +0.000 S 
ATOM     13  O   UNL     1       6.789   4.841  19.709  0.00  0.00    +0.000 OA
ATOM     14  O   UNL     1       8.223   4.190  17.737  0.00  0.00    +0.000 OA
BRANCH  12  15
ATOM     15  C   UNL     1       7.515   6.568  18.077  0.00  0.00    +0.000 A 
ATOM     16  C   UNL     1       7.038   7.403  17.059  0.00  0.00    +0.000 A 
ATOM     17  N   UNL     1       7.518   8.648  17.164  0.00  0.00    +0.000 NA
ATOM     18  N   UNL     1       8.311   8.593  18.251  0.00  0.00    +0.000 N 
ATOM     19  C   UNL     1       8.983   9.783  18.714  0.00  0.00    +0.000 C 
ATOM     20  C   UNL     1       8.349   7.361  18.839  0.00  0.00    +0.000 A 
ENDBRANCH  12  15
ENDBRANCH   1  12
TORSDOF 4
ENDMDL
MODEL 2
REMARK VINA RESULT:      -6.2      2.721      3.424
REMARK  Name = 
REMARK  8 active torsions:
REMARK  status: ('A' for Active; 'I' for Inactive)
REMARK    1  A    between atoms: C_1  and  N_2
REMARK    2  A    between atoms: N_2  and  C_3
REMARK    3  A    between atoms: N_2  and  C_4
REMARK    4  A    between atoms: C_9  and  N_10
REMARK    5  A    between atoms: N_10  and  C_11
REMARK    6  A    between atoms: N_10  and  S_12
REMARK    7  A    between atoms: S_12  and  C_15
REMARK    8  A    between atoms: N_18  and  C_19
REMARK                            x       y       z     vdW  Elec       q    Type
REMARK                         _______ _______ _______ _____ _____    ______ ____
ROOT
ATOM      1  N   UNL     1       3.463   4.209  18.023  0.00  0.00    +0.000 N 
ATOM      2  C   UNL     1       2.898   3.790  16.741  0.00  0.00    +0.000 C 
ENDROOT
BRANCH   1   8
ATOM      3  C   UNL     1       3.279   2.770  20.060  0.00  0.00    +0.000 A 
ATOM      4  N   UNL     1       2.655   2.476  21.231  0.00  0.00    +0.000 NA
ATOM      5  C   UNL     1       1.605   3.232  21.615  0.00  0.00    +0.000 A 
ATOM      6  C   UNL     1       1.115   4.300  20.888  0.00  0.00    +0.000 A 
ATOM      7  C   UNL     1       1.735   4.607  19.685  0.00  0.00    +0.000 A 
ATOM      8  C   UNL     1       2.813   3.832  19.248  0.00  0.00    +0.000 A 
BRANCH   3  10
ATOM      9  C   UNL     1       5.121   1.464  20.840  0.00  0.00    +0.000 C 
ATOM     10  N   UNL     1       4.400   1.987  19.675  0.00  0.00    +0.000 N 
ATOM     11  C   UNL     1       4.029   0.950  18.712  0.00  0.00    +0.000 C 
ENDBRANCH   3  10
ENDBRANCH   1   8
BRANCH   1  12
ATOM     12  S   UNL     1       4.534   5.510  18.070  0.00  0.00    +0.000 S 
ATOM     13  O   UNL     1       3.855   6.673  17.533  0.00  0.00    +0.000 OA
ATOM     14  O   UNL     1       5.238   5.568  19.332  0.00  0.00    +0.000 OA
BRANCH  12  15
ATOM     15  C   UNL     1       5.762   5.209  16.910  0.00  0.00    +0.000 A 
ATOM     16  C   UNL     1       7.029   4.676  17.178  0.00  0.00    +0.000 A 
ATOM     17  N   UNL     1       7.760   4.533  16.066  0.00  0.00    +0.000 NA
ATOM     18  N   UNL     1       6.950   4.990  15.092  0.00  0.00    +0.000 N 
ATOM     19  C   UNL     1       7.386   4.954  13.717  0.00  0.00    +0.000 C 
ATOM     20  C   UNL     1       5.735   5.414  15.545  0.00  0.00    +0.000 A 
ENDBRANCH  12  15
ENDBRANCH   1  12
TORSDOF 4
ENDMDL
MODEL 3
REMARK VINA RESULT:      -6.2      2.507      6.079
REMARK  Name = 
REMARK  8 active torsions:
REMARK  status: ('A' for Active; 'I' for Inactive)
REMARK    1  A    between atoms: C_1  and  N_2
REMARK    2  A    between atoms: N_2  and  C_3
REMARK    3  A    between atoms: N_2  and  C_4
REMARK    4  A    between atoms: C_9  and  N_10
REMARK    5  A    between atoms: N_10  and  C_11
REMARK    6  A    between atoms: N_10  and  S_12
REMARK    7  A    between atoms: S_12  and  C_15
REMARK    8  A    between atoms: N_18  and  C_19
REMARK                            x       y       z     vdW  Elec       q    Type
REMARK                         _______ _______ _______ _____ _____    ______ ____
ROOT
ATOM      1  N   UNL     1       4.314   4.683  17.246  0.00  0.00    +0.000 N 
ATOM      2  C   UNL     1       3.692   5.875  17.821  0.00  0.00    +0.000 C 
ENDROOT
BRANCH   1   8
ATOM      3  C   UNL     1       6.552   5.488  16.472  0.00  0.00    +0.000 A 
ATOM      4  N   UNL     1       7.494   5.560  15.496  0.00  0.00    +0.000 NA
ATOM      5  C   UNL     1       7.250   4.963  14.311  0.00  0.00    +0.000 A 
ATOM      6  C   UNL     1       6.089   4.273  14.020  0.00  0.00    +0.000 A 
ATOM      7  C   UNL     1       5.112   4.198  15.002  0.00  0.00    +0.000 A 
ATOM      8  C   UNL     1       5.326   4.823  16.234  0.00  0.00    +0.000 A 
BRANCH   3  10
ATOM      9  C   UNL     1       7.593   5.205  18.603  0.00  0.00    +0.000 C 
ATOM     10  N   UNL     1       6.827   6.097  17.726  0.00  0.00    +0.000 N 
ATOM     11  C   UNL     1       7.439   7.415  17.564  0.00  0.00    +0.000 C 
ENDBRANCH   3  10
ENDBRANCH   1   8
BRANCH   1  12
ATOM     12  S   UNL     1       3.530   3.196  17.373  0.00  0.00    +0.000 S 
ATOM     13  O   UNL     1       2.213   3.328  16.780  0.00  0.00    +0.000 OA
ATOM     14  O   UNL     1       4.408   2.105  17.013  0.00  0.00    +0.000 OA
BRANCH  12  15
ATOM     15  C   UNL     1       3.183   2.936  19.032  0.00  0.00    +0.000 A 
ATOM     16  C   UNL     1       4.121   2.632  20.027  0.00  0.00    +0.000 A 
ATOM     17  N   UNL     1       3.552   2.511  21.233  0.00  0.00    +0.000 NA
ATOM     18  N   UNL     1       2.246   2.729  20.993  0.00  0.00    +0.000 N 
ATOM     19  C   UNL     1       1.302   2.723  22.084  0.00  0.00    +0.000 C 
ATOM     20  C   UNL     1       1.966   2.987  19.682  0.00  0.00    +0.000 A 
ENDBRANCH  12  15
ENDBRANCH   1  12
TORSDOF 4
ENDMDL
MODEL 4
REMARK VINA RESULT:      -6.2      2.456      6.096
REMARK  Name = 
REMARK  8 active torsions:
REMARK  status: ('A' for Active; 'I' for Inactive)
REMARK    1  A    between atoms: C_1  and  N_2
REMARK    2  A    between atoms: N_2  and  C_3
REMARK    3  A    between atoms: N_2  and  C_4
REMARK    4  A    between atoms: C_9  and  N_10
REMARK    5  A    between atoms: N_10  and  C_11
REMARK    6  A    between atoms: N_10  and  S_12
REMARK    7  A    between atoms: S_12  and  C_15
REMARK    8  A    between atoms: N_18  and  C_19
REMARK                            x       y       z     vdW  Elec       q    Type
REMARK                         _______ _______ _______ _____ _____    ______ ____
ROOT
ATOM      1  N   UNL     1       4.247   4.873  17.263  0.00  0.00    +0.000 N 
ATOM      2  C   UNL     1       3.674   6.111  17.790  0.00  0.00    +0.000 C 
ENDROOT
BRANCH   1   8
ATOM      3  C   UNL     1       6.537   5.552  16.522  0.00  0.00    +0.000 A 
ATOM      4  N   UNL     1       7.507   5.548  15.571  0.00  0.00    +0.000 NA
ATOM      5  C   UNL     1       7.267   4.919  14.401  0.00  0.00    +0.000 A 
ATOM      6  C   UNL     1       6.084   4.269  14.103  0.00  0.00    +0.000 A 
ATOM      7  C   UNL     1       5.080   4.273  15.060  0.00  0.00    +0.000 A 
ATOM      8  C   UNL     1       5.289   4.932  16.275  0.00  0.00    +0.000 A 
BRANCH   3  10
ATOM      9  C   UNL     1       7.560   5.323  18.669  0.00  0.00    +0.000 C 
ATOM     10  N   UNL     1       6.806   6.194  17.761  0.00  0.00    +0.000 N 
ATOM     11  C   UNL     1       7.428   7.503  17.568  0.00  0.00    +0.000 C 
ENDBRANCH   3  10
ENDBRANCH   1   8
BRANCH   1  12
ATOM     12  S   UNL     1       3.382   3.433  17.409  0.00  0.00    +0.000 S 
ATOM     13  O   UNL     1       2.320   3.443  16.422  0.00  0.00    +0.000 OA
ATOM     14  O   UNL     1       4.269   2.298  17.544  0.00  0.00    +0.000 OA
BRANCH  12  15
ATOM     15  C   UNL     1       2.531   3.491  18.896  0.00  0.00    +0.000 A 
ATOM     16  C   UNL     1       1.420   4.298  19.173  0.00  0.00    +0.000 A 
ATOM     17  N   UNL     1       0.955   4.105  20.414  0.00  0.00    +0.000 NA
ATOM     18  N   UNL     1       1.787   3.177  20.924  0.00  0.00    +0.000 N 
ATOM     19  C   UNL     1       1.572   2.673  22.259  0.00  0.00    +0.000 C 
ATOM     20  C   UNL     1       2.758   2.774  20.053  0.00  0.00    +0.000 A 
ENDBRANCH  12  15
ENDBRANCH   1  12
TORSDOF 4
ENDMDL
MODEL 5
REMARK VINA RESULT:      -6.1      2.448      3.499
REMARK  Name = 
REMARK  8 active torsions:
REMARK  status: ('A' for Active; 'I' for Inactive)
REMARK    1  A    between atoms: C_1  and  N_2
REMARK    2  A    between atoms: N_2  and  C_3
REMARK    3  A    between atoms: N_2  and  C_4
REMARK    4  A    between atoms: C_9  and  N_10
REMARK    5  A    between atoms: N_10  and  C_11
REMARK    6  A    between atoms: N_10  and  S_12
REMARK    7  A    between atoms: S_12  and  C_15
REMARK    8  A    between atoms: N_18  and  C_19
REMARK                            x       y       z     vdW  Elec       q    Type
REMARK                         _______ _______ _______ _____ _____    ______ ____
ROOT
ATOM      1  N   UNL     1       3.877   5.237  18.492  0.00  0.00    +0.000 N 
ATOM      2  C   UNL     1       3.278   6.418  17.871  0.00  0.00    +0.000 C 
ENDROOT
BRANCH   1   8
ATOM      3  C   UNL     1       2.877   3.081  19.270  0.00  0.00    +0.000 A 
ATOM      4  N   UNL     1       2.189   2.385  20.212  0.00  0.00    +0.000 NA
ATOM      5  C   UNL     1       1.769   3.030  21.321  0.00  0.00    +0.000 A 
ATOM      6  C   UNL     1       1.995   4.372  21.564  0.00  0.00    +0.000 A 
ATOM      7  C   UNL     1       2.687   5.100  20.607  0.00  0.00    +0.000 A 
ATOM      8  C   UNL     1       3.120   4.465  19.439  0.00  0.00    +0.000 A 
BRANCH   3  10
ATOM      9  C   UNL     1       3.864   1.062  18.460  0.00  0.00    +0.000 C 
ATOM     10  N   UNL     1       3.339   2.388  18.119  0.00  0.00    +0.000 N 
ATOM     11  C   UNL     1       2.325   2.355  17.065  0.00  0.00    +0.000 C 
ENDBRANCH   3  10
ENDBRANCH   1   8
BRANCH   1  12
ATOM     12  S   UNL     1       5.555   5.069  18.504  0.00  0.00    +0.000 S 
ATOM     13  O   UNL     1       6.132   6.336  18.911  0.00  0.00    +0.000 OA
ATOM     14  O   UNL     1       5.955   3.828  19.129  0.00  0.00    +0.000 OA
BRANCH  12  15
ATOM     15  C   UNL     1       6.070   4.914  16.875  0.00  0.00    +0.000 A 
ATOM     16  C   UNL     1       7.168   5.564  16.298  0.00  0.00    +0.000 A 
ATOM     17  N   UNL     1       7.335   5.224  15.014  0.00  0.00    +0.000 NA
ATOM     18  N   UNL     1       6.327   4.362  14.779  0.00  0.00    +0.000 N 
ATOM     19  C   UNL     1       6.202   3.735  13.486  0.00  0.00    +0.000 C 
ATOM     20  C   UNL     1       5.532   4.141  15.866  0.00  0.00    +0.000 A 
ENDBRANCH  12  15
ENDBRANCH   1  12
TORSDOF 4
ENDMDL
MODEL 6
REMARK VINA RESULT:      -5.9      1.907      6.049
REMARK  Name = 
REMARK  8 active torsions:
REMARK  status: ('A' for Active; 'I' for Inactive)
REMARK    1  A    between atoms: C_1  and  N_2
REMARK    2  A    between atoms: N_2  and  C_3
REMARK    3  A    between atoms: N_2  and  C_4
REMARK    4  A    between atoms: C_9  and  N_10
REMARK    5  A    between atoms: N_10  and  C_11
REMARK    6  A    between atoms: N_10  and  S_12
REMARK    7  A    between atoms: S_12  and  C_15
REMARK    8  A    between atoms: N_18  and  C_19
REMARK                            x       y       z     vdW  Elec       q    Type
REMARK                         _______ _______ _______ _____ _____    ______ ____
ROOT
ATOM      1  N   UNL     1       4.424   6.175  17.871  0.00  0.00    +0.000 N 
ATOM      2  C   UNL     1       3.318   7.076  17.552  0.00  0.00    +0.000 C 
ENDROOT
BRANCH   1   8
ATOM      3  C   UNL     1       6.723   6.220  16.887  0.00  0.00    +0.000 A 
ATOM      4  N   UNL     1       7.588   5.819  15.919  0.00  0.00    +0.000 NA
ATOM      5  C   UNL     1       7.138   5.005  14.942  0.00  0.00    +0.000 A 
ATOM      6  C   UNL     1       5.837   4.545  14.859  0.00  0.00    +0.000 A 
ATOM      7  C   UNL     1       4.939   4.953  15.834  0.00  0.00    +0.000 A 
ATOM      8  C   UNL     1       5.368   5.812  16.850  0.00  0.00    +0.000 A 
BRANCH   3  10
ATOM      9  C   UNL     1       8.103   6.326  18.834  0.00  0.00    +0.000 C 
ATOM     10  N   UNL     1       7.211   7.056  17.928  0.00  0.00    +0.000 N 
ATOM     11  C   UNL     1       7.801   8.285  17.401  0.00  0.00    +0.000 C 
ENDBRANCH   3  10
ENDBRANCH   1   8
BRANCH   1  12
ATOM     12  S   UNL     1       4.319   5.184  19.232  0.00  0.00    +0.000 S 
ATOM     13  O   UNL     1       5.609   4.555  19.433  0.00  0.00    +0.000 OA
ATOM     14  O   UNL     1       3.632   5.851  20.316  0.00  0.00    +0.000 OA
BRANCH  12  15
ATOM     15  C   UNL     1       3.302   3.863  18.830  0.00  0.00    +0.000 A 
ATOM     16  C   UNL     1       3.709   2.675  18.209  0.00  0.00    +0.000 A 
ATOM     17  N   UNL     1       2.693   1.819  18.048  0.00  0.00    +0.000 NA
ATOM     18  N   UNL     1       1.637   2.477  18.563  0.00  0.00    +0.000 N 
ATOM     19  C   UNL     1       0.343   1.840  18.607  0.00  0.00    +0.000 C 
ATOM     20  C   UNL     1       1.947   3.715  19.046  0.00  0.00    +0.000 A 
ENDBRANCH  12  15
ENDBRANCH   1  12
TORSDOF 4
ENDMDL
MODEL 7
REMARK VINA RESULT:      -5.9      2.578      6.052
REMARK  Name = 
REMARK  8 active torsions:
REMARK  status: ('A' for Active; 'I' for Inactive)
REMARK    1  A    between atoms: C_1  and  N_2
REMARK    2  A    between atoms: N_2  and  C_3
REMARK    3  A    between atoms: N_2  and  C_4
REMARK    4  A    between atoms: C_9  and  N_10
REMARK    5  A    between atoms: N_10  and  C_11
REMARK    6  A    between atoms: N_10  and  S_12
REMARK    7  A    between atoms: S_12  and  C_15
REMARK    8  A    between atoms: N_18  and  C_19
REMARK                            x       y       z     vdW  Elec       q    Type
REMARK                         _______ _______ _______ _____ _____    ______ ____
ROOT
ATOM      1  N   UNL     1       4.820   3.966  17.596  0.00  0.00    +0.000 N 
ATOM      2  C   UNL     1       5.465   3.534  18.835  0.00  0.00    +0.000 C 
ENDROOT
BRANCH   1   8
ATOM      3  C   UNL     1       6.539   5.440  16.535  0.00  0.00    +0.000 A 
ATOM      4  N   UNL     1       7.306   5.753  15.458  0.00  0.00    +0.000 NA
ATOM      5  C   UNL     1       7.200   5.000  14.343  0.00  0.00    +0.000 A 
ATOM      6  C   UNL     1       6.350   3.917  14.222  0.00  0.00    +0.000 A 
ATOM      7  C   UNL     1       5.552   3.591  15.309  0.00  0.00    +0.000 A 
ATOM      8  C   UNL     1       5.624   4.362  16.473  0.00  0.00    +0.000 A 
BRANCH   3  10
ATOM      9  C   UNL     1       7.812   5.777  18.528  0.00  0.00    +0.000 C 
ATOM     10  N   UNL     1       6.675   6.222  17.714  0.00  0.00    +0.000 N 
ATOM     11  C   UNL     1       6.703   7.652  17.414  0.00  0.00    +0.000 C 
ENDBRANCH   3  10
ENDBRANCH   1   8
BRANCH   1  12
ATOM     12  S   UNL     1       3.214   4.480  17.634  0.00  0.00    +0.000 S 
ATOM     13  O   UNL     1       3.200   5.924  17.515  0.00  0.00    +0.000 OA
ATOM     14  O   UNL     1       2.377   3.650  16.796  0.00  0.00    +0.000 OA
BRANCH  12  15
ATOM     15  C   UNL     1       2.625   4.215  19.223  0.00  0.00    +0.000 A 
ATOM     16  C   UNL     1       2.471   5.195  20.212  0.00  0.00    +0.000 A 
ATOM     17  N   UNL     1       1.965   4.690  21.344  0.00  0.00    +0.000 NA
ATOM     18  N   UNL     1       1.810   3.381  21.067  0.00  0.00    +0.000 N 
ATOM     19  C   UNL     1       1.235   2.499  22.054  0.00  0.00    +0.000 C 
ATOM     20  C   UNL     1       2.196   3.039  19.804  0.00  0.00    +0.000 A 
ENDBRANCH  12  15
ENDBRANCH   1  12
TORSDOF 4
ENDMDL
MODEL 8
REMARK VINA RESULT:      -5.7      2.535      3.403
REMARK  Name = 
REMARK  8 active torsions:
REMARK  status: ('A' for Active; 'I' for Inactive)
REMARK    1  A    between atoms: C_1  and  N_2
REMARK    2  A    between atoms: N_2  and  C_3
REMARK    3  A    between atoms: N_2  and  C_4
REMARK    4  A    between atoms: C_9  and  N_10
REMARK    5  A    between atoms: N_10  and  C_11
REMARK    6  A    between atoms: N_10  and  S_12
REMARK    7  A    between atoms: S_12  and  C_15
REMARK    8  A    between atoms: N_18  and  C_19
REMARK                            x       y       z     vdW  Elec       q    Type
REMARK                         _______ _______ _______ _____ _____    ______ ____
ROOT
ATOM      1  N   UNL     1       3.576   4.526  18.197  0.00  0.00    +0.000 N 
ATOM      2  C   UNL     1       3.001   4.022  16.950  0.00  0.00    +0.000 C 
ENDROOT
BRANCH   1   8
ATOM      3  C   UNL     1       2.071   4.953  20.148  0.00  0.00    +0.000 A 
ATOM      4  N   UNL     1       1.393   5.833  20.930  0.00  0.00    +0.000 NA
ATOM      5  C   UNL     1       1.461   7.149  20.638  0.00  0.00    +0.000 A 
ATOM      6  C   UNL     1       2.185   7.669  19.582  0.00  0.00    +0.000 A 
ATOM      7  C   UNL     1       2.875   6.782  18.767  0.00  0.00    +0.000 A 
ATOM      8  C   UNL     1       2.809   5.411  19.030  0.00  0.00    +0.000 A 
BRANCH   3  10
ATOM      9  C   UNL     1       2.177   3.353  21.918  0.00  0.00    +0.000 C 
ATOM     10  N   UNL     1       2.016   3.572  20.477  0.00  0.00    +0.000 N 
ATOM     11  C   UNL     1       0.822   2.933  19.925  0.00  0.00    +0.000 C 
ENDBRANCH   3  10
ENDBRANCH   1   8
BRANCH   1  12
ATOM     12  S   UNL     1       5.248   4.499  18.408  0.00  0.00    +0.000 S 
ATOM     13  O   UNL     1       5.637   5.720  19.087  0.00  0.00    +0.000 OA
ATOM     14  O   UNL     1       5.699   3.206  18.873  0.00  0.00    +0.000 OA
BRANCH  12  15
ATOM     15  C   UNL     1       5.967   4.671  16.860  0.00  0.00    +0.000 A 
ATOM     16  C   UNL     1       6.951   5.606  16.513  0.00  0.00    +0.000 A 
ATOM     17  N   UNL     1       7.335   5.481  15.237  0.00  0.00    +0.000 NA
ATOM     18  N   UNL     1       6.579   4.467  14.775  0.00  0.00    +0.000 N 
ATOM     19  C   UNL     1       6.745   4.005  13.418  0.00  0.00    +0.000 C 
ATOM     20  C   UNL     1       5.734   3.944  15.711  0.00  0.00    +0.000 A 
ENDBRANCH  12  15
ENDBRANCH   1  12
TORSDOF 4
ENDMDL
MODEL 9
REMARK VINA RESULT:      -5.7      2.740      4.367
REMARK  Name = 
REMARK  8 active torsions:
REMARK  status: ('A' for Active; 'I' for Inactive)
REMARK    1  A    between atoms: C_1  and  N_2
REMARK    2  A    between atoms: N_2  and  C_3
REMARK    3  A    between atoms: N_2  and  C_4
REMARK    4  A    between atoms: C_9  and  N_10
REMARK    5  A    between atoms: N_10  and  C_11
REMARK    6  A    between atoms: N_10  and  S_12
REMARK    7  A    between atoms: S_12  and  C_15
REMARK    8  A    between atoms: N_18  and  C_19
REMARK                            x       y       z     vdW  Elec       q    Type
REMARK                         _______ _______ _______ _____ _____    ______ ____
ROOT
ATOM      1  N   UNL     1       5.112   5.649  18.309  0.00  0.00    +0.000 N 
ATOM      2  C   UNL     1       6.175   5.309  19.254  0.00  0.00    +0.000 C 
ENDROOT
BRANCH   1   8
ATOM      3  C   UNL     1       2.701   5.311  18.883  0.00  0.00    +0.000 A 
ATOM      4  N   UNL     1       1.574   4.558  18.796  0.00  0.00    +0.000 NA
ATOM      5  C   UNL     1       1.617   3.400  18.104  0.00  0.00    +0.000 A 
ATOM      6  C   UNL     1       2.748   2.923  17.468  0.00  0.00    +0.000 A 
ATOM      7  C   UNL     1       3.910   3.675  17.556  0.00  0.00    +0.000 A 
ATOM      8  C   UNL     1       3.904   4.870  18.281  0.00  0.00    +0.000 A 
BRANCH   3  10
ATOM      9  C   UNL     1       2.228   7.647  18.720  0.00  0.00    +0.000 C 
ATOM     10  N   UNL     1       2.641   6.541  19.591  0.00  0.00    +0.000 N 
ATOM     11  C   UNL     1       1.832   6.428  20.804  0.00  0.00    +0.000 C 
ENDBRANCH   3  10
ENDBRANCH   1   8
BRANCH   1  12
ATOM     12  S   UNL     1       5.477   6.582  16.953  0.00  0.00    +0.000 S 
ATOM     13  O   UNL     1       4.239   7.137  16.441  0.00  0.00    +0.000 OA
ATOM     14  O   UNL     1       6.634   7.418  17.185  0.00  0.00    +0.000 OA
BRANCH  12  15
ATOM     15  C   UNL     1       5.966   5.510  15.706  0.00  0.00    +0.000 A 
ATOM     16  C   UNL     1       7.180   4.813  15.655  0.00  0.00    +0.000 A 
ATOM     17  N   UNL     1       7.266   4.033  14.571  0.00  0.00    +0.000 NA
ATOM     18  N   UNL     1       6.102   4.250  13.929  0.00  0.00    +0.000 N 
ATOM     19  C   UNL     1       5.806   3.535  12.712  0.00  0.00    +0.000 C 
ATOM     20  C   UNL     1       5.282   5.135  14.568  0.00  0.00    +0.000 A 
ENDBRANCH  12  15
ENDBRANCH   1  12
TORSDOF 4
ENDMDL
