MODEL 1
REMARK VINA RESULT:      -8.4      0.000      0.000
REMARK  Name = 
REMARK  8 active torsions:
REMARK  status: ('A' for Active; 'I' for Inactive)
REMARK    1  A    between atoms: C_1  and  C_2
REMARK    2  A    between atoms: C_2  and  C_3
REMARK    3  A    between atoms: C_2  and  C_4
REMARK    4  A    between atoms: C_2  and  N_5
REMARK    5  A    between atoms: C_9  and  C_10
REMARK    6  A    between atoms: C_10  and  N_11
REMARK    7  A    between atoms: C_10  and  C_18
REMARK    8  A    between atoms: N_11  and  C_12
REMARK                            x       y       z     vdW  Elec       q    Type
REMARK                         _______ _______ _______ _____ _____    ______ ____
ROOT
ATOM      1  C   UNL     1       4.006   5.904  18.524  0.00  0.00    +0.000 C 
ENDROOT
BRANCH   1   2
ATOM      2  C   UNL     1       2.945   6.847  19.090  0.00  0.00    +0.000 A 
ATOM      3  C   UNL     1       2.436   6.685  20.332  0.00  0.00    +0.000 A 
ATOM      4  O   UNL     1       1.418   7.407  20.908  0.00  0.00    +0.000 OA
ATOM      5  C   UNL     1       1.045   8.573  20.295  0.00  0.00    +0.000 A 
ATOM      6  C   UNL     1       0.129   9.395  20.946  0.00  0.00    +0.000 A 
ATOM      7  C   UNL     1      -0.140  10.668  20.437  0.00  0.00    +0.000 A 
ATOM      8  C   UNL     1       0.503  11.112  19.280  0.00  0.00    +0.000 A 
ATOM      9  C   UNL     1       1.349  10.251  18.580  0.00  0.00    +0.000 A 
ATOM     10  C   UNL     1       1.589   8.967  19.077  0.00  0.00    +0.000 A 
ATOM     11  C   UNL     1       2.416   8.006  18.328  0.00  0.00    +0.000 A 
ATOM     12  O   UNL     1       2.623   8.210  17.141  0.00  0.00    +0.000 OA
ENDBRANCH   1   2
BRANCH   1  17
ATOM     13  N   UNL     1       3.185   3.527  19.234  0.00  0.00    +0.000 N 
ATOM     14  N   UNL     1       3.774   2.441  19.797  0.00  0.00    +0.000 NA
ATOM     15  N   UNL     1       5.027   2.760  20.018  0.00  0.00    +0.000 NA
ATOM     16  N   UNL     1       5.280   4.011  19.569  0.00  0.00    +0.000 NA
ATOM     17  C   UNL     1       4.145   4.517  19.102  0.00  0.00    +0.000 A 
BRANCH  13  19
ATOM     18  C   UNL     1       0.902   3.830  20.082  0.00  0.00    +0.000 C 
ATOM     19  C   UNL     1       1.769   3.370  18.882  0.00  0.00    +0.000 C 
ATOM     20  C   UNL     1       1.486   1.867  18.606  0.00  0.00    +0.000 C 
ATOM     21  C   UNL     1       1.270   4.146  17.653  0.00  0.00    +0.000 C 
ENDBRANCH  13  19
ENDBRANCH   1  17
BRANCH   1  22
ATOM     22  N   UNL     1       4.096   6.093  17.063  0.00  0.00    +0.000 N 
ATOM     23  H   UNL     1       3.199   5.888  16.619  0.00  0.00    +0.000 HD
BRANCH  22  24
ATOM     24  C   UNL     1       5.132   5.528  16.293  0.00  0.00    +0.000 A 
ATOM     25  C   UNL     1       4.797   4.765  15.169  0.00  0.00    +0.000 A 
ATOM     26  C   UNL     1       5.775   4.213  14.337  0.00  0.00    +0.000 A 
ATOM     27  C   UNL     1       7.115   4.436  14.595  0.00  0.00    +0.000 A 
ATOM     28  C   UNL     1       7.475   5.239  15.677  0.00  0.00    +0.000 A 
ATOM     29  C   UNL     1       6.490   5.785  16.506  0.00  0.00    +0.000 A 
ENDBRANCH  22  24
ENDBRANCH   1  22
TORSDOF 5
ENDMDL
MODEL 2
REMARK VINA RESULT:      -8.4      1.939      3.026
REMARK  Name = 
REMARK  8 active torsions:
REMARK  status: ('A' for Active; 'I' for Inactive)
REMARK    1  A    between atoms: C_1  and  C_2
REMARK    2  A    between atoms: C_2  and  C_3
REMARK    3  A    between atoms: C_2  and  C_4
REMARK    4  A    between atoms: C_2  and  N_5
REMARK    5  A    between atoms: C_9  and  C_10
REMARK    6  A    between atoms: C_10  and  N_11
REMARK    7  A    between atoms: C_10  and  C_18
REMARK    8  A    between atoms: N_11  and  C_12
REMARK                            x       y       z     vdW  Elec       q    Type
REMARK                         _______ _______ _______ _____ _____    ______ ____
ROOT
ATOM      1  C   UNL     1       3.017   5.800  18.417  0.00  0.00    +0.000 C 
ENDROOT
BRANCH   1   2
ATOM      2  C   UNL     1       2.465   7.221  18.537  0.00  0.00    +0.000 A 
ATOM      3  C   UNL     1       2.511   8.094  17.506  0.00  0.00    +0.000 A 
ATOM      4  O   UNL     1       2.135   9.415  17.525  0.00  0.00    +0.000 OA
ATOM      5  C   UNL     1       1.397   9.847  18.595  0.00  0.00    +0.000 A 
ATOM      6  C   UNL     1       0.874  11.137  18.556  0.00  0.00    +0.000 A 
ATOM      7  C   UNL     1      -0.025  11.548  19.543  0.00  0.00    +0.000 A 
ATOM      8  C   UNL     1      -0.394  10.671  20.564  0.00  0.00    +0.000 A 
ATOM      9  C   UNL     1       0.202   9.412  20.651  0.00  0.00    +0.000 A 
ATOM     10  C   UNL     1       1.126   9.019  19.679  0.00  0.00    +0.000 A 
ATOM     11  C   UNL     1       1.830   7.730  19.779  0.00  0.00    +0.000 A 
ATOM     12  O   UNL     1       1.853   7.156  20.858  0.00  0.00    +0.000 OA
ENDBRANCH   1   2
BRANCH   1  17
ATOM     13  N   UNL     1       1.900   3.643  19.378  0.00  0.00    +0.000 N 
ATOM     14  N   UNL     1       0.908   2.813  18.962  0.00  0.00    +0.000 NA
ATOM     15  N   UNL     1       0.499   3.265  17.800  0.00  0.00    +0.000 NA
ATOM     16  N   UNL     1       1.166   4.395  17.472  0.00  0.00    +0.000 NA
ATOM     17  C   UNL     1       2.060   4.634  18.424  0.00  0.00    +0.000 A 
BRANCH  13  19
ATOM     18  C   UNL     1       3.825   2.574  20.461  0.00  0.00    +0.000 C 
ATOM     19  C   UNL     1       2.487   3.324  20.684  0.00  0.00    +0.000 C 
ATOM     20  C   UNL     1       1.512   2.392  21.457  0.00  0.00    +0.000 C 
ATOM     21  C   UNL     1       2.795   4.509  21.614  0.00  0.00    +0.000 C 
ENDBRANCH  13  19
ENDBRANCH   1  17
BRANCH   1  22
ATOM     22  N   UNL     1       4.157   5.798  17.480  0.00  0.00    +0.000 N 
ATOM     23  H   UNL     1       4.184   4.925  16.951  0.00  0.00    +0.000 HD
BRANCH  22  24
ATOM     24  C   UNL     1       5.465   6.133  17.884  0.00  0.00    +0.000 A 
ATOM     25  C   UNL     1       6.051   5.416  18.933  0.00  0.00    +0.000 A 
ATOM     26  C   UNL     1       7.360   5.668  19.353  0.00  0.00    +0.000 A 
ATOM     27  C   UNL     1       8.124   6.626  18.714  0.00  0.00    +0.000 A 
ATOM     28  C   UNL     1       7.584   7.316  17.630  0.00  0.00    +0.000 A 
ATOM     29  C   UNL     1       6.272   7.060  17.218  0.00  0.00    +0.000 A 
ENDBRANCH  22  24
ENDBRANCH   1  22
TORSDOF 5
ENDMDL
MODEL 3
REMARK VINA RESULT:      -8.4      1.341      4.277
REMARK  Name = 
REMARK  8 active torsions:
REMARK  status: ('A' for Active; 'I' for Inactive)
REMARK    1  A    between atoms: C_1  and  C_2
REMARK    2  A    between atoms: C_2  and  C_3
REMARK    3  A    between atoms: C_2  and  C_4
REMARK    4  A    between atoms: C_2  and  N_5
REMARK    5  A    between atoms: C_9  and  C_10
REMARK    6  A    between atoms: C_10  and  N_11
REMARK    7  A    between atoms: C_10  and  C_18
REMARK    8  A    between atoms: N_11  and  C_12
REMARK                            x       y       z     vdW  Elec       q    Type
REMARK                         _______ _______ _______ _____ _____    ______ ____
ROOT
ATOM      1  C   UNL     1       2.911   6.207  17.897  0.00  0.00    +0.000 C 
ENDROOT
BRANCH   1   2
ATOM      2  C   UNL     1       2.422   7.598  18.300  0.00  0.00    +0.000 A 
ATOM      3  C   UNL     1       2.502   8.654  17.460  0.00  0.00    +0.000 A 
ATOM      4  O   UNL     1       2.185   9.961  17.743  0.00  0.00    +0.000 OA
ATOM      5  C   UNL     1       1.471  10.204  18.886  0.00  0.00    +0.000 A 
ATOM      6  C   UNL     1       1.006  11.498  19.107  0.00  0.00    +0.000 A 
ATOM      7  C   UNL     1       0.130  11.745  20.168  0.00  0.00    +0.000 A 
ATOM      8  C   UNL     1      -0.273  10.700  21.002  0.00  0.00    +0.000 A 
ATOM      9  C   UNL     1       0.268   9.425  20.832  0.00  0.00    +0.000 A 
ATOM     10  C   UNL     1       1.168   9.193  19.790  0.00  0.00    +0.000 A 
ATOM     11  C   UNL     1       1.816   7.880  19.626  0.00  0.00    +0.000 A 
ATOM     12  O   UNL     1       1.818   7.105  20.571  0.00  0.00    +0.000 OA
ENDBRANCH   1   2
BRANCH   1  17
ATOM     13  N   UNL     1       5.360   5.335  17.645  0.00  0.00    +0.000 N 
ATOM     14  N   UNL     1       6.350   4.999  18.512  0.00  0.00    +0.000 NA
ATOM     15  N   UNL     1       5.866   5.160  19.720  0.00  0.00    +0.000 NA
ATOM     16  N   UNL     1       4.602   5.637  19.661  0.00  0.00    +0.000 NA
ATOM     17  C   UNL     1       4.257   5.728  18.383  0.00  0.00    +0.000 A 
BRANCH  13  19
ATOM     18  C   UNL     1       5.248   6.546  15.513  0.00  0.00    +0.000 C 
ATOM     19  C   UNL     1       5.707   5.246  16.222  0.00  0.00    +0.000 C 
ATOM     20  C   UNL     1       4.951   4.040  15.596  0.00  0.00    +0.000 C 
ATOM     21  C   UNL     1       7.195   5.059  15.880  0.00  0.00    +0.000 C 
ENDBRANCH  13  19
ENDBRANCH   1  17
BRANCH   1  22
ATOM     22  N   UNL     1       1.768   5.273  17.890  0.00  0.00    +0.000 N 
ATOM     23  H   UNL     1       0.889   5.781  18.002  0.00  0.00    +0.000 HD
BRANCH  22  24
ATOM     24  C   UNL     1       1.737   4.115  18.694  0.00  0.00    +0.000 A 
ATOM     25  C   UNL     1       2.350   2.950  18.221  0.00  0.00    +0.000 A 
ATOM     26  C   UNL     1       2.395   1.781  18.986  0.00  0.00    +0.000 A 
ATOM     27  C   UNL     1       1.848   1.758  20.255  0.00  0.00    +0.000 A 
ATOM     28  C   UNL     1       1.280   2.922  20.772  0.00  0.00    +0.000 A 
ATOM     29  C   UNL     1       1.238   4.087  19.999  0.00  0.00    +0.000 A 
ENDBRANCH  22  24
ENDBRANCH   1  22
TORSDOF 5
ENDMDL
MODEL 4
REMARK VINA RESULT:      -8.3      1.907      2.998
REMARK  Name = 
REMARK  8 active torsions:
REMARK  status: ('A' for Active; 'I' for Inactive)
REMARK    1  A    between atoms: C_1  and  C_2
REMARK    2  A    between atoms: C_2  and  C_3
REMARK    3  A    between atoms: C_2  and  C_4
REMARK    4  A    between atoms: C_2  and  N_5
REMARK    5  A    between atoms: C_9  and  C_10
REMARK    6  A    between atoms: C_10  and  N_11
REMARK    7  A    between atoms: C_10  and  C_18
REMARK    8  A    between atoms: N_11  and  C_12
REMARK                            x       y       z     vdW  Elec       q    Type
REMARK                         _______ _______ _______ _____ _____    ______ ____
ROOT
ATOM      1  C   UNL     1       3.057   5.739  18.399  0.00  0.00    +0.000 C 
ENDROOT
BRANCH   1   2
ATOM      2  C   UNL     1       2.518   7.165  18.512  0.00  0.00    +0.000 A 
ATOM      3  C   UNL     1       2.577   8.035  17.479  0.00  0.00    +0.000 A 
ATOM      4  O   UNL     1       2.213   9.360  17.493  0.00  0.00    +0.000 OA
ATOM      5  C   UNL     1       1.474   9.801  18.557  0.00  0.00    +0.000 A 
ATOM      6  C   UNL     1       0.963  11.096  18.512  0.00  0.00    +0.000 A 
ATOM      7  C   UNL     1       0.063  11.518  19.493  0.00  0.00    +0.000 A 
ATOM      8  C   UNL     1      -0.319  10.647  20.515  0.00  0.00    +0.000 A 
ATOM      9  C   UNL     1       0.265   9.383  20.609  0.00  0.00    +0.000 A 
ATOM     10  C   UNL     1       1.190   8.979  19.642  0.00  0.00    +0.000 A 
ATOM     11  C   UNL     1       1.881   7.684  19.750  0.00  0.00    +0.000 A 
ATOM     12  O   UNL     1       1.894   7.113  20.830  0.00  0.00    +0.000 OA
ENDBRANCH   1   2
BRANCH   1  17
ATOM     13  N   UNL     1       1.953   3.575  19.360  0.00  0.00    +0.000 N 
ATOM     14  N   UNL     1       0.941   2.761  18.964  0.00  0.00    +0.000 NA
ATOM     15  N   UNL     1       0.497   3.236  17.825  0.00  0.00    +0.000 NA
ATOM     16  N   UNL     1       1.163   4.366  17.493  0.00  0.00    +0.000 NA
ATOM     17  C   UNL     1       2.091   4.581  18.418  0.00  0.00    +0.000 A 
BRANCH  13  19
ATOM     18  C   UNL     1       2.747   4.522  21.481  0.00  0.00    +0.000 C 
ATOM     19  C   UNL     1       2.581   3.230  20.641  0.00  0.00    +0.000 C 
ATOM     20  C   UNL     1       3.987   2.628  20.363  0.00  0.00    +0.000 C 
ATOM     21  C   UNL     1       1.836   2.219  21.528  0.00  0.00    +0.000 C 
ENDBRANCH  13  19
ENDBRANCH   1  17
BRANCH   1  22
ATOM     22  N   UNL     1       4.192   5.721  17.456  0.00  0.00    +0.000 N 
ATOM     23  H   UNL     1       4.179   4.868  16.895  0.00  0.00    +0.000 HD
BRANCH  22  24
ATOM     24  C   UNL     1       5.516   5.983  17.865  0.00  0.00    +0.000 A 
ATOM     25  C   UNL     1       6.229   7.003  17.228  0.00  0.00    +0.000 A 
ATOM     26  C   UNL     1       7.528   7.344  17.614  0.00  0.00    +0.000 A 
ATOM     27  C   UNL     1       8.135   6.688  18.669  0.00  0.00    +0.000 A 
ATOM     28  C   UNL     1       7.426   5.704  19.357  0.00  0.00    +0.000 A 
ATOM     29  C   UNL     1       6.127   5.368  18.962  0.00  0.00    +0.000 A 
ENDBRANCH  22  24
ENDBRANCH   1  22
TORSDOF 5
ENDMDL
MODEL 5
REMARK VINA RESULT:      -8.3      4.528      8.404
REMARK  Name = 
REMARK  8 active torsions:
REMARK  status: ('A' for Active; 'I' for Inactive)
REMARK    1  A    between atoms: C_1  and  C_2
REMARK    2  A    between atoms: C_2  and  C_3
REMARK    3  A    between atoms: C_2  and  C_4
REMARK    4  A    between atoms: C_2  and  N_5
REMARK    5  A    between atoms: C_9  and  C_10
REMARK    6  A    between atoms: C_10  and  N_11
REMARK    7  A    between atoms: C_10  and  C_18
REMARK    8  A    between atoms: N_11  and  C_12
REMARK                            x       y       z     vdW  Elec       q    Type
REMARK                         _______ _______ _______ _____ _____    ______ ____
ROOT
ATOM      1  C   UNL     1       0.143  11.186  19.784  0.00  0.00    +0.000 C 
ENDROOT
BRANCH   1   2
ATOM      2  C   UNL     1       0.830   9.823  19.865  0.00  0.00    +0.000 A 
ATOM      3  C   UNL     1       0.651   8.995  20.919  0.00  0.00    +0.000 A 
ATOM      4  O   UNL     1       1.285   7.798  21.145  0.00  0.00    +0.000 OA
ATOM      5  C   UNL     1       1.969   7.237  20.099  0.00  0.00    +0.000 A 
ATOM      6  C   UNL     1       2.482   5.953  20.262  0.00  0.00    +0.000 A 
ATOM      7  C   UNL     1       3.029   5.283  19.164  0.00  0.00    +0.000 A 
ATOM      8  C   UNL     1       3.064   5.901  17.912  0.00  0.00    +0.000 A 
ATOM      9  C   UNL     1       2.633   7.221  17.775  0.00  0.00    +0.000 A 
ATOM     10  C   UNL     1       2.117   7.896  18.884  0.00  0.00    +0.000 A 
ATOM     11  C   UNL     1       1.723   9.311  18.794  0.00  0.00    +0.000 A 
ATOM     12  O   UNL     1       2.140   9.979  17.859  0.00  0.00    +0.000 OA
ENDBRANCH   1   2
BRANCH   1  17
ATOM     13  N   UNL     1       0.043  12.978  21.682  0.00  0.00    +0.000 N 
ATOM     14  N   UNL     1       0.895  13.928  22.147  0.00  0.00    +0.000 NA
ATOM     15  N   UNL     1       1.971  13.871  21.397  0.00  0.00    +0.000 NA
ATOM     16  N   UNL     1       1.859  12.876  20.488  0.00  0.00    +0.000 NA
ATOM     17  C   UNL     1       0.659  12.325  20.628  0.00  0.00    +0.000 A 
BRANCH  13  19
ATOM     18  C   UNL     1      -1.250  13.900  23.553  0.00  0.00    +0.000 C 
ATOM     19  C   UNL     1      -1.227  12.857  22.407  0.00  0.00    +0.000 C 
ATOM     20  C   UNL     1      -1.320  11.433  23.022  0.00  0.00    +0.000 C 
ATOM     21  C   UNL     1      -2.513  13.070  21.591  0.00  0.00    +0.000 C 
ENDBRANCH  13  19
ENDBRANCH   1  17
BRANCH   1  22
ATOM     22  N   UNL     1      -0.262  11.444  18.388  0.00  0.00    +0.000 N 
ATOM     23  H   UNL     1      -0.002  12.391  18.108  0.00  0.00    +0.000 HD
BRANCH  22  24
ATOM     24  C   UNL     1      -1.561  11.165  17.918  0.00  0.00    +0.000 A 
ATOM     25  C   UNL     1      -1.754  10.055  17.088  0.00  0.00    +0.000 A 
ATOM     26  C   UNL     1      -3.022   9.696  16.623  0.00  0.00    +0.000 A 
ATOM     27  C   UNL     1      -4.134  10.426  17.001  0.00  0.00    +0.000 A 
ATOM     28  C   UNL     1      -3.977  11.504  17.871  0.00  0.00    +0.000 A 
ATOM     29  C   UNL     1      -2.704  11.857  18.329  0.00  0.00    +0.000 A 
ENDBRANCH  22  24
ENDBRANCH   1  22
TORSDOF 5
ENDMDL
MODEL 6
REMARK VINA RESULT:      -8.3      1.364      4.346
REMARK  Name = 
REMARK  8 active torsions:
REMARK  status: ('A' for Active; 'I' for Inactive)
REMARK    1  A    between atoms: C_1  and  C_2
REMARK    2  A    between atoms: C_2  and  C_3
REMARK    3  A    between atoms: C_2  and  C_4
REMARK    4  A    between atoms: C_2  and  N_5
REMARK    5  A    between atoms: C_9  and  C_10
REMARK    6  A    between atoms: C_10  and  N_11
REMARK    7  A    between atoms: C_10  and  C_18
REMARK    8  A    between atoms: N_11  and  C_12
REMARK                            x       y       z     vdW  Elec       q    Type
REMARK                         _______ _______ _______ _____ _____    ______ ____
ROOT
ATOM      1  C   UNL     1       2.895   6.259  17.934  0.00  0.00    +0.000 C 
ENDROOT
BRANCH   1   2
ATOM      2  C   UNL     1       2.411   7.655  18.323  0.00  0.00    +0.000 A 
ATOM      3  C   UNL     1       2.510   8.707  17.479  0.00  0.00    +0.000 A 
ATOM      4  O   UNL     1       2.199  10.017  17.751  0.00  0.00    +0.000 OA
ATOM      5  C   UNL     1       1.470  10.271  18.882  0.00  0.00    +0.000 A 
ATOM      6  C   UNL     1       1.011  11.569  19.091  0.00  0.00    +0.000 A 
ATOM      7  C   UNL     1       0.122  11.827  20.138  0.00  0.00    +0.000 A 
ATOM      8  C   UNL     1      -0.301  10.790  20.971  0.00  0.00    +0.000 A 
ATOM      9  C   UNL     1       0.233   9.510  20.815  0.00  0.00    +0.000 A 
ATOM     10  C   UNL     1       1.147   9.266  19.787  0.00  0.00    +0.000 A 
ATOM     11  C   UNL     1       1.787   7.948  19.639  0.00  0.00    +0.000 A 
ATOM     12  O   UNL     1       1.771   7.178  20.587  0.00  0.00    +0.000 OA
ENDBRANCH   1   2
BRANCH   1  17
ATOM     13  N   UNL     1       5.356   5.434  17.635  0.00  0.00    +0.000 N 
ATOM     14  N   UNL     1       6.362   5.099  18.484  0.00  0.00    +0.000 NA
ATOM     15  N   UNL     1       5.890   5.228  19.701  0.00  0.00    +0.000 NA
ATOM     16  N   UNL     1       4.617   5.685  19.666  0.00  0.00    +0.000 NA
ATOM     17  C   UNL     1       4.255   5.795  18.394  0.00  0.00    +0.000 A 
BRANCH  13  19
ATOM     18  C   UNL     1       5.018   4.125  15.587  0.00  0.00    +0.000 C 
ATOM     19  C   UNL     1       5.687   5.379  16.207  0.00  0.00    +0.000 C 
ATOM     20  C   UNL     1       7.229   5.252  16.055  0.00  0.00    +0.000 C 
ATOM     21  C   UNL     1       5.256   6.579  15.348  0.00  0.00    +0.000 C 
ENDBRANCH  13  19
ENDBRANCH   1  17
BRANCH   1  22
ATOM     22  N   UNL     1       1.757   5.321  17.973  0.00  0.00    +0.000 N 
ATOM     23  H   UNL     1       0.892   5.815  18.200  0.00  0.00    +0.000 HD
BRANCH  22  24
ATOM     24  C   UNL     1       1.801   4.112  18.697  0.00  0.00    +0.000 A 
ATOM     25  C   UNL     1       1.264   4.080  19.988  0.00  0.00    +0.000 A 
ATOM     26  C   UNL     1       1.235   2.904  20.743  0.00  0.00    +0.000 A 
ATOM     27  C   UNL     1       1.721   1.724  20.211  0.00  0.00    +0.000 A 
ATOM     28  C   UNL     1       2.212   1.716  18.906  0.00  0.00    +0.000 A 
ATOM     29  C   UNL     1       2.239   2.898  18.159  0.00  0.00    +0.000 A 
ENDBRANCH  22  24
ENDBRANCH   1  22
TORSDOF 5
ENDMDL
MODEL 7
REMARK VINA RESULT:      -8.3      1.451      1.873
REMARK  Name = 
REMARK  8 active torsions:
REMARK  status: ('A' for Active; 'I' for Inactive)
REMARK    1  A    between atoms: C_1  and  C_2
REMARK    2  A    between atoms: C_2  and  C_3
REMARK    3  A    between atoms: C_2  and  C_4
REMARK    4  A    between atoms: C_2  and  N_5
REMARK    5  A    between atoms: C_9  and  C_10
REMARK    6  A    between atoms: C_10  and  N_11
REMARK    7  A    between atoms: C_10  and  C_18
REMARK    8  A    between atoms: N_11  and  C_12
REMARK                            x       y       z     vdW  Elec       q    Type
REMARK                         _______ _______ _______ _____ _____    ______ ____
ROOT
ATOM      1  C   UNL     1       3.033   5.907  19.754  0.00  0.00    +0.000 C 
ENDROOT
BRANCH   1   2
ATOM      2  C   UNL     1       2.158   7.155  19.870  0.00  0.00    +0.000 A 
ATOM      3  C   UNL     1       1.410   7.403  20.968  0.00  0.00    +0.000 A 
ATOM      4  O   UNL     1       0.519   8.434  21.145  0.00  0.00    +0.000 OA
ATOM      5  C   UNL     1       0.566   9.470  20.252  0.00  0.00    +0.000 A 
ATOM      6  C   UNL     1      -0.216  10.594  20.505  0.00  0.00    +0.000 A 
ATOM      7  C   UNL     1      -0.062  11.736  19.715  0.00  0.00    +0.000 A 
ATOM      8  C   UNL     1       0.869  11.748  18.675  0.00  0.00    +0.000 A 
ATOM      9  C   UNL     1       1.584  10.590  18.367  0.00  0.00    +0.000 A 
ATOM     10  C   UNL     1       1.401   9.442  19.141  0.00  0.00    +0.000 A 
ATOM     11  C   UNL     1       2.082   8.182  18.799  0.00  0.00    +0.000 A 
ATOM     12  O   UNL     1       2.544   8.049  17.675  0.00  0.00    +0.000 OA
ENDBRANCH   1   2
BRANCH   1  17
ATOM     13  N   UNL     1       2.038   3.494  19.852  0.00  0.00    +0.000 N 
ATOM     14  N   UNL     1       1.810   2.593  20.842  0.00  0.00    +0.000 NA
ATOM     15  N   UNL     1       2.184   3.160  21.964  0.00  0.00    +0.000 NA
ATOM     16  N   UNL     1       2.694   4.390  21.723  0.00  0.00    +0.000 NA
ATOM     17  C   UNL     1       2.589   4.629  20.422  0.00  0.00    +0.000 A 
BRANCH  13  19
ATOM     18  C   UNL     1       0.529   2.037  18.578  0.00  0.00    +0.000 C 
ATOM     19  C   UNL     1       1.705   3.043  18.496  0.00  0.00    +0.000 C 
ATOM     20  C   UNL     1       2.942   2.321  17.891  0.00  0.00    +0.000 C 
ATOM     21  C   UNL     1       1.289   4.127  17.487  0.00  0.00    +0.000 C 
ENDBRANCH  13  19
ENDBRANCH   1  17
BRANCH   1  22
ATOM     22  N   UNL     1       3.626   5.852  18.404  0.00  0.00    +0.000 N 
ATOM     23  H   UNL     1       3.003   5.363  17.758  0.00  0.00    +0.000 HD
BRANCH  22  24
ATOM     24  C   UNL     1       4.950   5.424  18.179  0.00  0.00    +0.000 A 
ATOM     25  C   UNL     1       5.294   4.933  16.915  0.00  0.00    +0.000 A 
ATOM     26  C   UNL     1       6.599   4.534  16.612  0.00  0.00    +0.000 A 
ATOM     27  C   UNL     1       7.598   4.643  17.561  0.00  0.00    +0.000 A 
ATOM     28  C   UNL     1       7.294   5.181  18.811  0.00  0.00    +0.000 A 
ATOM     29  C   UNL     1       5.985   5.576  19.106  0.00  0.00    +0.000 A 
ENDBRANCH  22  24
ENDBRANCH   1  22
TORSDOF 5
ENDMDL
MODEL 8
REMARK VINA RESULT:      -8.3      1.462      4.420
REMARK  Name = 
REMARK  8 active torsions:
REMARK  status: ('A' for Active; 'I' for Inactive)
REMARK    1  A    between atoms: C_1  and  C_2
REMARK    2  A    between atoms: C_2  and  C_3
REMARK    3  A    between atoms: C_2  and  C_4
REMARK    4  A    between atoms: C_2  and  N_5
REMARK    5  A    between atoms: C_9  and  C_10
REMARK    6  A    between atoms: C_10  and  N_11
REMARK    7  A    between atoms: C_10  and  C_18
REMARK    8  A    between atoms: N_11  and  C_12
REMARK                            x       y       z     vdW  Elec       q    Type
REMARK                         _______ _______ _______ _____ _____    ______ ____
ROOT
ATOM      1  C   UNL     1       3.168   5.894  18.040  0.00  0.00    +0.000 C 
ENDROOT
BRANCH   1   2
ATOM      2  C   UNL     1       2.592   7.278  18.339  0.00  0.00    +0.000 A 
ATOM      3  C   UNL     1       2.565   8.257  17.407  0.00  0.00    +0.000 A 
ATOM      4  O   UNL     1       2.162   9.558  17.587  0.00  0.00    +0.000 OA
ATOM      5  C   UNL     1       1.471   9.852  18.732  0.00  0.00    +0.000 A 
ATOM      6  C   UNL     1       0.919  11.124  18.859  0.00  0.00    +0.000 A 
ATOM      7  C   UNL     1       0.064  11.403  19.928  0.00  0.00    +0.000 A 
ATOM      8  C   UNL     1      -0.232  10.412  20.866  0.00  0.00    +0.000 A 
ATOM      9  C   UNL     1       0.396   9.169  20.787  0.00  0.00    +0.000 A 
ATOM     10  C   UNL     1       1.275   8.907  19.733  0.00  0.00    +0.000 A 
ATOM     11  C   UNL     1       2.012   7.635  19.659  0.00  0.00    +0.000 A 
ATOM     12  O   UNL     1       2.104   6.950  20.667  0.00  0.00    +0.000 OA
ENDBRANCH   1   2
BRANCH   1  17
ATOM     13  N   UNL     1       5.643   5.142  17.671  0.00  0.00    +0.000 N 
ATOM     14  N   UNL     1       6.731   5.008  18.472  0.00  0.00    +0.000 NA
ATOM     15  N   UNL     1       6.350   5.328  19.686  0.00  0.00    +0.000 NA
ATOM     16  N   UNL     1       5.053   5.713  19.686  0.00  0.00    +0.000 NA
ATOM     17  C   UNL     1       4.585   5.580  18.450  0.00  0.00    +0.000 A 
BRANCH  13  19
ATOM     18  C   UNL     1       5.126   3.533  15.891  0.00  0.00    +0.000 C 
ATOM     19  C   UNL     1       5.862   4.850  16.250  0.00  0.00    +0.000 C 
ATOM     20  C   UNL     1       7.385   4.655  16.008  0.00  0.00    +0.000 C 
ATOM     21  C   UNL     1       5.387   5.910  15.242  0.00  0.00    +0.000 C 
ENDBRANCH  13  19
ENDBRANCH   1  17
BRANCH   1  22
ATOM     22  N   UNL     1       2.116   4.877  18.230  0.00  0.00    +0.000 N 
ATOM     23  H   UNL     1       1.190   5.299  18.145  0.00  0.00    +0.000 HD
BRANCH  22  24
ATOM     24  C   UNL     1       2.118   3.986  19.322  0.00  0.00    +0.000 A 
ATOM     25  C   UNL     1       3.224   3.150  19.507  0.00  0.00    +0.000 A 
ATOM     26  C   UNL     1       3.310   2.275  20.595  0.00  0.00    +0.000 A 
ATOM     27  C   UNL     1       2.301   2.237  21.539  0.00  0.00    +0.000 A 
ATOM     28  C   UNL     1       1.213   3.099  21.407  0.00  0.00    +0.000 A 
ATOM     29  C   UNL     1       1.134   3.970  20.315  0.00  0.00    +0.000 A 
ENDBRANCH  22  24
ENDBRANCH   1  22
TORSDOF 5
ENDMDL
MODEL 9
REMARK VINA RESULT:      -8.2      1.880      2.672
REMARK  Name = 
REMARK  8 active torsions:
REMARK  status: ('A' for Active; 'I' for Inactive)
REMARK    1  A    between atoms: C_1  and  C_2
REMARK    2  A    between atoms: C_2  and  C_3
REMARK    3  A    between atoms: C_2  and  C_4
REMARK    4  A    between atoms: C_2  and  N_5
REMARK    5  A    between atoms: C_9  and  C_10
REMARK    6  A    between atoms: C_10  and  N_11
REMARK    7  A    between atoms: C_10  and  C_18
REMARK    8  A    between atoms: N_11  and  C_12
REMARK                            x       y       z     vdW  Elec       q    Type
REMARK                         _______ _______ _______ _____ _____    ______ ____
ROOT
ATOM      1  C   UNL     1       3.285   5.793  19.585  0.00  0.00    +0.000 C 
ENDROOT
BRANCH   1   2
ATOM      2  C   UNL     1       2.496   7.073  19.309  0.00  0.00    +0.000 A 
ATOM      3  C   UNL     1       2.343   7.562  18.058  0.00  0.00    +0.000 A 
ATOM      4  O   UNL     1       1.741   8.744  17.701  0.00  0.00    +0.000 OA
ATOM      5  C   UNL     1       0.984   9.379  18.649  0.00  0.00    +0.000 A 
ATOM      6  C   UNL     1       0.241  10.491  18.261  0.00  0.00    +0.000 A 
ATOM      7  C   UNL     1      -0.674  11.055  19.153  0.00  0.00    +0.000 A 
ATOM      8  C   UNL     1      -0.839  10.510  20.428  0.00  0.00    +0.000 A 
ATOM      9  C   UNL     1      -0.026   9.454  20.844  0.00  0.00    +0.000 A 
ATOM     10  C   UNL     1       0.910   8.916  19.958  0.00  0.00    +0.000 A 
ATOM     11  C   UNL     1       1.834   7.853  20.386  0.00  0.00    +0.000 A 
ATOM     12  O   UNL     1       2.004   7.669  21.582  0.00  0.00    +0.000 OA
ENDBRANCH   1   2
BRANCH   1  17
ATOM     13  N   UNL     1       1.939   3.563  19.783  0.00  0.00    +0.000 N 
ATOM     14  N   UNL     1       1.513   2.792  20.817  0.00  0.00    +0.000 NA
ATOM     15  N   UNL     1       1.891   3.393  21.919  0.00  0.00    +0.000 NA
ATOM     16  N   UNL     1       2.592   4.513  21.629  0.00  0.00    +0.000 NA
ATOM     17  C   UNL     1       2.612   4.653  20.309  0.00  0.00    +0.000 A 
BRANCH  13  19
ATOM     18  C   UNL     1       0.470   2.033  18.548  0.00  0.00    +0.000 C 
ATOM     19  C   UNL     1       1.635   3.051  18.442  0.00  0.00    +0.000 C 
ATOM     20  C   UNL     1       2.891   2.320  17.890  0.00  0.00    +0.000 C 
ATOM     21  C   UNL     1       1.223   4.084  17.381  0.00  0.00    +0.000 C 
ENDBRANCH  13  19
ENDBRANCH   1  17
BRANCH   1  22
ATOM     22  N   UNL     1       4.163   5.504  18.434  0.00  0.00    +0.000 N 
ATOM     23  H   UNL     1       4.082   4.524  18.159  0.00  0.00    +0.000 HD
BRANCH  22  24
ATOM     24  C   UNL     1       5.521   5.880  18.410  0.00  0.00    +0.000 A 
ATOM     25  C   UNL     1       5.932   6.866  17.507  0.00  0.00    +0.000 A 
ATOM     26  C   UNL     1       7.255   7.316  17.462  0.00  0.00    +0.000 A 
ATOM     27  C   UNL     1       8.193   6.808  18.341  0.00  0.00    +0.000 A 
ATOM     28  C   UNL     1       7.798   5.864  19.288  0.00  0.00    +0.000 A 
ATOM     29  C   UNL     1       6.473   5.417  19.324  0.00  0.00    +0.000 A 
ENDBRANCH  22  24
ENDBRANCH   1  22
TORSDOF 5
ENDMDL
