MODEL 1
REMARK VINA RESULT:      -7.8      0.000      0.000
REMARK  Name = 
REMARK  9 active torsions:
REMARK  status: ('A' for Active; 'I' for Inactive)
REMARK    1  A    between atoms: C_1  and  C_2
REMARK    2  A    between atoms: C_2  and  C_8
REMARK    3  A    between atoms: N_3  and  N_4
REMARK    4  A    between atoms: C_11  and  N_12
REMARK    5  A    between atoms: N_15  and  C_16
REMARK    6  A    between atoms: C_19  and  C_20
REMARK    7  A    between atoms: C_20  and  C_21
REMARK    8  A    between atoms: C_20  and  C_22
REMARK    9  A    between atoms: C_20  and  C_23
REMARK                            x       y       z     vdW  Elec       q    Type
REMARK                         _______ _______ _______ _____ _____    ______ ____
ROOT
ATOM      1  C   UNL     1      -2.629  12.426  22.667  0.00  0.00    +0.000 A 
ATOM      2  C   UNL     1      -2.101  11.407  23.465  0.00  0.00    +0.000 A 
ATOM      3  C   UNL     1      -0.985  10.681  23.041  0.00  0.00    +0.000 A 
ATOM      4  C   UNL     1      -0.377  10.940  21.810  0.00  0.00    +0.000 A 
ATOM      5  C   UNL     1      -0.873  11.986  21.027  0.00  0.00    +0.000 A 
ATOM      6  C   UNL     1      -2.000  12.714  21.449  0.00  0.00    +0.000 A 
ENDROOT
BRANCH   4   7
ATOM      7  N   UNL     1       0.732  10.190  21.349  0.00  0.00    +0.000 N 
ATOM      8  C   UNL     1       0.635   8.901  20.847  0.00  0.00    +0.000 C 
ATOM      9  O   UNL     1      -0.428   8.332  20.598  0.00  0.00    +0.000 OA
ATOM     10  N   UNL     1       1.878   8.307  20.684  0.00  0.00    +0.000 N 
ATOM     11  H   UNL     1       1.566  10.699  21.093  0.00  0.00    +0.000 HD
ATOM     12  H   UNL     1       2.577   8.600  21.351  0.00  0.00    +0.000 HD
BRANCH  10  13
ATOM     13  C   UNL     1       1.999   6.986  20.182  0.00  0.00    +0.000 A 
ATOM     14  C   UNL     1       1.618   5.877  20.938  0.00  0.00    +0.000 A 
ATOM     15  C   UNL     1       1.749   4.580  20.423  0.00  0.00    +0.000 A 
ATOM     16  C   UNL     1       2.278   4.348  19.144  0.00  0.00    +0.000 A 
ATOM     17  C   UNL     1       2.684   5.480  18.409  0.00  0.00    +0.000 A 
ATOM     18  C   UNL     1       2.518   6.783  18.906  0.00  0.00    +0.000 A 
BRANCH  16  19
ATOM     19  C   UNL     1       2.378   2.936  18.533  0.00  0.00    +0.000 C 
ATOM     20  C   UNL     1       3.506   2.078  19.151  0.00  0.00    +0.000 C 
ATOM     21  C   UNL     1       1.051   2.181  18.771  0.00  0.00    +0.000 C 
ATOM     22  C   UNL     1       2.639   3.002  17.013  0.00  0.00    +0.000 C 
ENDBRANCH  16  19
ENDBRANCH  10  13
ENDBRANCH   4   7
BRANCH   1  24
ATOM     23  C   UNL     1      -4.181  14.462  22.332  0.00  0.00    +0.000 C 
ATOM     24  C   UNL     1      -3.858  13.192  23.100  0.00  0.00    +0.000 C 
ATOM     25  N   UNL     1      -4.548  12.722  24.101  0.00  0.00    +0.000 NA
BRANCH  25  26
ATOM     26  N   UNL     1      -5.658  13.381  24.537  0.00  0.00    +0.000 N 
ATOM     27  C   UNL     1      -6.923  12.951  24.275  0.00  0.00    +0.000 C 
ATOM     28  N   UNL     1      -7.207  11.856  23.657  0.00  0.00    +0.000 NA
ATOM     29  N   UNL     1      -7.911  13.763  24.711  0.00  0.00    +0.000 N 
ATOM     30  H   UNL     1      -5.611  14.339  24.854  0.00  0.00    +0.000 HD
ATOM     31  H   UNL     1      -6.277  11.463  23.440  0.00  0.00    +0.000 HD
ATOM     32  H   UNL     1      -7.792  14.098  25.657  0.00  0.00    +0.000 HD
ATOM     33  H   UNL     1      -8.800  13.279  24.613  0.00  0.00    +0.000 HD
ENDBRANCH  25  26
ENDBRANCH   1  24
TORSDOF 5
ENDMDL
MODEL 2
REMARK VINA RESULT:      -7.6      4.499     11.879
REMARK  Name = 
REMARK  9 active torsions:
REMARK  status: ('A' for Active; 'I' for Inactive)
REMARK    1  A    between atoms: C_1  and  C_2
REMARK    2  A    between atoms: C_2  and  C_8
REMARK    3  A    between atoms: N_3  and  N_4
REMARK    4  A    between atoms: C_11  and  N_12
REMARK    5  A    between atoms: N_15  and  C_16
REMARK    6  A    between atoms: C_19  and  C_20
REMARK    7  A    between atoms: C_20  and  C_21
REMARK    8  A    between atoms: C_20  and  C_22
REMARK    9  A    between atoms: C_20  and  C_23
REMARK                            x       y       z     vdW  Elec       q    Type
REMARK                         _______ _______ _______ _____ _____    ______ ____
ROOT
ATOM      1  C   UNL     1       5.173   5.023  16.691  0.00  0.00    +0.000 A 
ATOM      2  C   UNL     1       4.123   4.216  17.138  0.00  0.00    +0.000 A 
ATOM      3  C   UNL     1       3.307   4.632  18.193  0.00  0.00    +0.000 A 
ATOM      4  C   UNL     1       3.525   5.851  18.839  0.00  0.00    +0.000 A 
ATOM      5  C   UNL     1       4.546   6.683  18.370  0.00  0.00    +0.000 A 
ATOM      6  C   UNL     1       5.372   6.263  17.312  0.00  0.00    +0.000 A 
ENDROOT
BRANCH   4   7
ATOM      7  N   UNL     1       2.732   6.272  19.934  0.00  0.00    +0.000 N 
ATOM      8  C   UNL     1       2.015   7.460  19.954  0.00  0.00    +0.000 C 
ATOM      9  O   UNL     1       1.857   8.191  18.976  0.00  0.00    +0.000 OA
ATOM     10  N   UNL     1       1.515   7.749  21.215  0.00  0.00    +0.000 N 
ATOM     11  H   UNL     1       2.433   5.568  20.593  0.00  0.00    +0.000 HD
ATOM     12  H   UNL     1       2.088   7.424  21.982  0.00  0.00    +0.000 HD
BRANCH  10  13
ATOM     13  C   UNL     1       0.751   8.921  21.450  0.00  0.00    +0.000 A 
ATOM     14  C   UNL     1       0.627   9.921  20.485  0.00  0.00    +0.000 A 
ATOM     15  C   UNL     1      -0.130  11.072  20.740  0.00  0.00    +0.000 A 
ATOM     16  C   UNL     1      -0.777  11.268  21.971  0.00  0.00    +0.000 A 
ATOM     17  C   UNL     1      -0.614  10.259  22.942  0.00  0.00    +0.000 A 
ATOM     18  C   UNL     1       0.112   9.088  22.676  0.00  0.00    +0.000 A 
BRANCH  16  19
ATOM     19  C   UNL     1      -1.663  12.498  22.254  0.00  0.00    +0.000 C 
ATOM     20  C   UNL     1      -0.878  13.702  22.824  0.00  0.00    +0.000 C 
ATOM     21  C   UNL     1      -2.322  12.966  20.937  0.00  0.00    +0.000 C 
ATOM     22  C   UNL     1      -2.777  12.161  23.268  0.00  0.00    +0.000 C 
ENDBRANCH  16  19
ENDBRANCH  10  13
ENDBRANCH   4   7
BRANCH   1  24
ATOM     23  C   UNL     1       7.526   5.034  15.630  0.00  0.00    +0.000 C 
ATOM     24  C   UNL     1       6.083   4.565  15.574  0.00  0.00    +0.000 C 
ATOM     25  N   UNL     1       5.570   3.814  14.641  0.00  0.00    +0.000 NA
BRANCH  25  26
ATOM     26  N   UNL     1       6.347   3.383  13.606  0.00  0.00    +0.000 N 
ATOM     27  C   UNL     1       5.853   3.150  12.359  0.00  0.00    +0.000 C 
ATOM     28  N   UNL     1       4.634   3.372  12.005  0.00  0.00    +0.000 NA
ATOM     29  N   UNL     1       6.742   2.652  11.471  0.00  0.00    +0.000 N 
ATOM     30  H   UNL     1       7.260   2.981  13.766  0.00  0.00    +0.000 HD
ATOM     31  H   UNL     1       4.201   3.730  12.871  0.00  0.00    +0.000 HD
ATOM     32  H   UNL     1       7.636   3.121  11.464  0.00  0.00    +0.000 HD
ATOM     33  H   UNL     1       6.322   2.669  10.545  0.00  0.00    +0.000 HD
ENDBRANCH  25  26
ENDBRANCH   1  24
TORSDOF 5
ENDMDL
MODEL 3
REMARK VINA RESULT:      -7.6      3.740     10.785
REMARK  Name = 
REMARK  9 active torsions:
REMARK  status: ('A' for Active; 'I' for Inactive)
REMARK    1  A    between atoms: C_1  and  C_2
REMARK    2  A    between atoms: C_2  and  C_8
REMARK    3  A    between atoms: N_3  and  N_4
REMARK    4  A    between atoms: C_11  and  N_12
REMARK    5  A    between atoms: N_15  and  C_16
REMARK    6  A    between atoms: C_19  and  C_20
REMARK    7  A    between atoms: C_20  and  C_21
REMARK    8  A    between atoms: C_20  and  C_22
REMARK    9  A    between atoms: C_20  and  C_23
REMARK                            x       y       z     vdW  Elec       q    Type
REMARK                         _______ _______ _______ _____ _____    ______ ____
ROOT
ATOM      1  C   UNL     1       3.006   6.660  18.790  0.00  0.00    +0.000 A 
ATOM      2  C   UNL     1       3.014   7.513  17.682  0.00  0.00    +0.000 A 
ATOM      3  C   UNL     1       2.312   8.721  17.713  0.00  0.00    +0.000 A 
ATOM      4  C   UNL     1       1.575   9.102  18.836  0.00  0.00    +0.000 A 
ATOM      5  C   UNL     1       1.597   8.274  19.963  0.00  0.00    +0.000 A 
ATOM      6  C   UNL     1       2.298   7.056  19.933  0.00  0.00    +0.000 A 
ENDROOT
BRANCH   4   7
ATOM      7  N   UNL     1       0.828  10.305  18.871  0.00  0.00    +0.000 N 
ATOM      8  C   UNL     1      -0.545  10.353  19.062  0.00  0.00    +0.000 C 
ATOM      9  O   UNL     1      -1.235   9.385  19.382  0.00  0.00    +0.000 OA
ATOM     10  N   UNL     1      -1.063  11.617  18.824  0.00  0.00    +0.000 N 
ATOM     11  H   UNL     1       1.328  11.160  19.064  0.00  0.00    +0.000 HD
ATOM     12  H   UNL     1      -0.574  12.148  18.116  0.00  0.00    +0.000 HD
BRANCH  10  13
ATOM     13  C   UNL     1      -2.450  11.881  18.963  0.00  0.00    +0.000 A 
ATOM     14  C   UNL     1      -2.961  12.548  20.077  0.00  0.00    +0.000 A 
ATOM     15  C   UNL     1      -4.336  12.795  20.195  0.00  0.00    +0.000 A 
ATOM     16  C   UNL     1      -5.245  12.372  19.213  0.00  0.00    +0.000 A 
ATOM     17  C   UNL     1      -4.711  11.675  18.110  0.00  0.00    +0.000 A 
ATOM     18  C   UNL     1      -3.331  11.459  17.970  0.00  0.00    +0.000 A 
BRANCH  16  19
ATOM     19  C   UNL     1      -6.753  12.684  19.292  0.00  0.00    +0.000 C 
ATOM     20  C   UNL     1      -7.574  11.570  19.984  0.00  0.00    +0.000 C 
ATOM     21  C   UNL     1      -6.965  13.979  20.107  0.00  0.00    +0.000 C 
ATOM     22  C   UNL     1      -7.356  12.884  17.886  0.00  0.00    +0.000 C 
ENDBRANCH  16  19
ENDBRANCH  10  13
ENDBRANCH   4   7
BRANCH   1  24
ATOM     23  C   UNL     1       5.184   5.360  18.310  0.00  0.00    +0.000 C 
ATOM     24  C   UNL     1       3.732   5.335  18.753  0.00  0.00    +0.000 C 
ATOM     25  N   UNL     1       3.067   4.266  19.092  0.00  0.00    +0.000 NA
BRANCH  25  26
ATOM     26  N   UNL     1       3.673   3.046  19.065  0.00  0.00    +0.000 N 
ATOM     27  C   UNL     1       3.231   2.017  18.291  0.00  0.00    +0.000 C 
ATOM     28  N   UNL     1       2.249   2.102  17.459  0.00  0.00    +0.000 NA
ATOM     29  N   UNL     1       3.898   0.852  18.443  0.00  0.00    +0.000 N 
ATOM     30  H   UNL     1       4.317   2.762  19.790  0.00  0.00    +0.000 HD
ATOM     31  H   UNL     1       1.937   3.080  17.565  0.00  0.00    +0.000 HD
ATOM     32  H   UNL     1       4.904   0.943  18.448  0.00  0.00    +0.000 HD
ATOM     33  H   UNL     1       3.600   0.208  17.714  0.00  0.00    +0.000 HD
ENDBRANCH  25  26
ENDBRANCH   1  24
TORSDOF 5
ENDMDL
MODEL 4
REMARK VINA RESULT:      -7.5      3.584     10.824
REMARK  Name = 
REMARK  9 active torsions:
REMARK  status: ('A' for Active; 'I' for Inactive)
REMARK    1  A    between atoms: C_1  and  C_2
REMARK    2  A    between atoms: C_2  and  C_8
REMARK    3  A    between atoms: N_3  and  N_4
REMARK    4  A    between atoms: C_11  and  N_12
REMARK    5  A    between atoms: N_15  and  C_16
REMARK    6  A    between atoms: C_19  and  C_20
REMARK    7  A    between atoms: C_20  and  C_21
REMARK    8  A    between atoms: C_20  and  C_22
REMARK    9  A    between atoms: C_20  and  C_23
REMARK                            x       y       z     vdW  Elec       q    Type
REMARK                         _______ _______ _______ _____ _____    ______ ____
ROOT
ATOM      1  C   UNL     1       3.000   6.641  18.717  0.00  0.00    +0.000 A 
ATOM      2  C   UNL     1       2.996   7.516  17.627  0.00  0.00    +0.000 A 
ATOM      3  C   UNL     1       2.313   8.733  17.697  0.00  0.00    +0.000 A 
ATOM      4  C   UNL     1       1.606   9.101  18.844  0.00  0.00    +0.000 A 
ATOM      5  C   UNL     1       1.641   8.252  19.953  0.00  0.00    +0.000 A 
ATOM      6  C   UNL     1       2.323   7.024  19.883  0.00  0.00    +0.000 A 
ENDROOT
BRANCH   4   7
ATOM      7  N   UNL     1       0.878  10.314  18.919  0.00  0.00    +0.000 N 
ATOM      8  C   UNL     1      -0.477  10.382  19.207  0.00  0.00    +0.000 C 
ATOM      9  O   UNL     1      -1.154   9.426  19.585  0.00  0.00    +0.000 OA
ATOM     10  N   UNL     1      -0.995  11.650  18.992  0.00  0.00    +0.000 N 
ATOM     11  H   UNL     1       1.401  11.165  19.067  0.00  0.00    +0.000 HD
ATOM     12  H   UNL     1      -0.552  12.168  18.247  0.00  0.00    +0.000 HD
BRANCH  10  13
ATOM     13  C   UNL     1      -2.366  11.932  19.227  0.00  0.00    +0.000 A 
ATOM     14  C   UNL     1      -3.354  11.587  18.304  0.00  0.00    +0.000 A 
ATOM     15  C   UNL     1      -4.702  11.878  18.555  0.00  0.00    +0.000 A 
ATOM     16  C   UNL     1      -5.105  12.534  19.729  0.00  0.00    +0.000 A 
ATOM     17  C   UNL     1      -4.088  12.900  20.634  0.00  0.00    +0.000 A 
ATOM     18  C   UNL     1      -2.741  12.576  20.403  0.00  0.00    +0.000 A 
BRANCH  16  19
ATOM     19  C   UNL     1      -6.586  12.812  20.055  0.00  0.00    +0.000 C 
ATOM     20  C   UNL     1      -7.464  11.539  20.055  0.00  0.00    +0.000 C 
ATOM     21  C   UNL     1      -6.690  13.436  21.464  0.00  0.00    +0.000 C 
ATOM     22  C   UNL     1      -7.207  13.791  19.037  0.00  0.00    +0.000 C 
ENDBRANCH  16  19
ENDBRANCH  10  13
ENDBRANCH   4   7
BRANCH   1  24
ATOM     23  C   UNL     1       5.047   5.198  19.340  0.00  0.00    +0.000 C 
ATOM     24  C   UNL     1       3.705   5.307  18.638  0.00  0.00    +0.000 C 
ATOM     25  N   UNL     1       3.125   4.350  17.969  0.00  0.00    +0.000 NA
BRANCH  25  26
ATOM     26  N   UNL     1       3.725   3.131  17.860  0.00  0.00    +0.000 N 
ATOM     27  C   UNL     1       3.159   1.984  18.325  0.00  0.00    +0.000 C 
ATOM     28  N   UNL     1       1.983   1.913  18.850  0.00  0.00    +0.000 NA
ATOM     29  N   UNL     1       3.921   0.874  18.207  0.00  0.00    +0.000 N 
ATOM     30  H   UNL     1       4.712   3.046  17.659  0.00  0.00    +0.000 HD
ATOM     31  H   UNL     1       1.654   2.890  18.818  0.00  0.00    +0.000 HD
ATOM     32  H   UNL     1       4.363   0.763  17.306  0.00  0.00    +0.000 HD
ATOM     33  H   UNL     1       3.351   0.062  18.430  0.00  0.00    +0.000 HD
ENDBRANCH  25  26
ENDBRANCH   1  24
TORSDOF 5
ENDMDL
MODEL 5
REMARK VINA RESULT:      -7.5      3.529     10.838
REMARK  Name = 
REMARK  9 active torsions:
REMARK  status: ('A' for Active; 'I' for Inactive)
REMARK    1  A    between atoms: C_1  and  C_2
REMARK    2  A    between atoms: C_2  and  C_8
REMARK    3  A    between atoms: N_3  and  N_4
REMARK    4  A    between atoms: C_11  and  N_12
REMARK    5  A    between atoms: N_15  and  C_16
REMARK    6  A    between atoms: C_19  and  C_20
REMARK    7  A    between atoms: C_20  and  C_21
REMARK    8  A    between atoms: C_20  and  C_22
REMARK    9  A    between atoms: C_20  and  C_23
REMARK                            x       y       z     vdW  Elec       q    Type
REMARK                         _______ _______ _______ _____ _____    ______ ____
ROOT
ATOM      1  C   UNL     1       2.980   6.643  18.720  0.00  0.00    +0.000 A 
ATOM      2  C   UNL     1       2.312   6.927  19.915  0.00  0.00    +0.000 A 
ATOM      3  C   UNL     1       1.597   8.119  20.061  0.00  0.00    +0.000 A 
ATOM      4  C   UNL     1       1.542   9.061  19.032  0.00  0.00    +0.000 A 
ATOM      5  C   UNL     1       2.172   8.766  17.819  0.00  0.00    +0.000 A 
ATOM      6  C   UNL     1       2.897   7.569  17.672  0.00  0.00    +0.000 A 
ENDROOT
BRANCH   4   7
ATOM      7  N   UNL     1       0.854  10.291  19.176  0.00  0.00    +0.000 N 
ATOM      8  C   UNL     1      -0.518  10.389  19.356  0.00  0.00    +0.000 C 
ATOM      9  O   UNL     1      -1.259   9.429  19.571  0.00  0.00    +0.000 OA
ATOM     10  N   UNL     1      -0.971  11.694  19.236  0.00  0.00    +0.000 N 
ATOM     11  H   UNL     1       1.391  11.098  19.458  0.00  0.00    +0.000 HD
ATOM     12  H   UNL     1      -0.446  12.266  18.591  0.00  0.00    +0.000 HD
BRANCH  10  13
ATOM     13  C   UNL     1      -2.345  12.010  19.385  0.00  0.00    +0.000 A 
ATOM     14  C   UNL     1      -3.285  11.672  18.410  0.00  0.00    +0.000 A 
ATOM     15  C   UNL     1      -4.638  11.997  18.577  0.00  0.00    +0.000 A 
ATOM     16  C   UNL     1      -5.095  12.681  19.715  0.00  0.00    +0.000 A 
ATOM     17  C   UNL     1      -4.125  13.038  20.673  0.00  0.00    +0.000 A 
ATOM     18  C   UNL     1      -2.775  12.681  20.527  0.00  0.00    +0.000 A 
BRANCH  16  19
ATOM     19  C   UNL     1      -6.586  12.998  19.948  0.00  0.00    +0.000 C 
ATOM     20  C   UNL     1      -7.200  12.219  21.134  0.00  0.00    +0.000 C 
ATOM     21  C   UNL     1      -6.746  14.502  20.260  0.00  0.00    +0.000 C 
ATOM     22  C   UNL     1      -7.429  12.662  18.700  0.00  0.00    +0.000 C 
ENDBRANCH  16  19
ENDBRANCH  10  13
ENDBRANCH   4   7
BRANCH   1  24
ATOM     23  C   UNL     1       5.173   5.512  17.964  0.00  0.00    +0.000 C 
ATOM     24  C   UNL     1       3.785   5.374  18.565  0.00  0.00    +0.000 C 
ATOM     25  N   UNL     1       3.237   4.254  18.944  0.00  0.00    +0.000 NA
BRANCH  25  26
ATOM     26  N   UNL     1       3.918   3.080  18.815  0.00  0.00    +0.000 N 
ATOM     27  C   UNL     1       3.330   1.927  18.394  0.00  0.00    +0.000 C 
ATOM     28  N   UNL     1       2.103   1.833  18.010  0.00  0.00    +0.000 NA
ATOM     29  N   UNL     1       4.129   0.837  18.397  0.00  0.00    +0.000 N 
ATOM     30  H   UNL     1       4.817   2.942  19.255  0.00  0.00    +0.000 HD
ATOM     31  H   UNL     1       1.749   2.795  18.123  0.00  0.00    +0.000 HD
ATOM     32  H   UNL     1       5.045   0.987  17.998  0.00  0.00    +0.000 HD
ATOM     33  H   UNL     1       3.649   0.079  17.919  0.00  0.00    +0.000 HD
ENDBRANCH  25  26
ENDBRANCH   1  24
TORSDOF 5
ENDMDL
MODEL 6
REMARK VINA RESULT:      -7.5      4.345     11.805
REMARK  Name = 
REMARK  9 active torsions:
REMARK  status: ('A' for Active; 'I' for Inactive)
REMARK    1  A    between atoms: C_1  and  C_2
REMARK    2  A    between atoms: C_2  and  C_8
REMARK    3  A    between atoms: N_3  and  N_4
REMARK    4  A    between atoms: C_11  and  N_12
REMARK    5  A    between atoms: N_15  and  C_16
REMARK    6  A    between atoms: C_19  and  C_20
REMARK    7  A    between atoms: C_20  and  C_21
REMARK    8  A    between atoms: C_20  and  C_22
REMARK    9  A    between atoms: C_20  and  C_23
REMARK                            x       y       z     vdW  Elec       q    Type
REMARK                         _______ _______ _______ _____ _____    ______ ____
ROOT
ATOM      1  C   UNL     1       5.192   5.064  17.136  0.00  0.00    +0.000 A 
ATOM      2  C   UNL     1       4.457   6.244  16.988  0.00  0.00    +0.000 A 
ATOM      3  C   UNL     1       3.588   6.669  17.996  0.00  0.00    +0.000 A 
ATOM      4  C   UNL     1       3.417   5.925  19.166  0.00  0.00    +0.000 A 
ATOM      5  C   UNL     1       4.179   4.766  19.339  0.00  0.00    +0.000 A 
ATOM      6  C   UNL     1       5.051   4.334  18.324  0.00  0.00    +0.000 A 
ENDROOT
BRANCH   4   7
ATOM      7  N   UNL     1       2.512   6.321  20.181  0.00  0.00    +0.000 N 
ATOM      8  C   UNL     1       1.849   7.540  20.190  0.00  0.00    +0.000 C 
ATOM      9  O   UNL     1       1.845   8.333  19.247  0.00  0.00    +0.000 OA
ATOM     10  N   UNL     1       1.210   7.780  21.396  0.00  0.00    +0.000 N 
ATOM     11  H   UNL     1       2.105   5.596  20.754  0.00  0.00    +0.000 HD
ATOM     12  H   UNL     1       1.669   7.384  22.204  0.00  0.00    +0.000 HD
BRANCH  10  13
ATOM     13  C   UNL     1       0.474   8.973  21.611  0.00  0.00    +0.000 A 
ATOM     14  C   UNL     1       0.251   9.892  20.585  0.00  0.00    +0.000 A 
ATOM     15  C   UNL     1      -0.478  11.066  20.820  0.00  0.00    +0.000 A 
ATOM     16  C   UNL     1      -0.995  11.367  22.090  0.00  0.00    +0.000 A 
ATOM     17  C   UNL     1      -0.733  10.440  23.119  0.00  0.00    +0.000 A 
ATOM     18  C   UNL     1      -0.037   9.245  22.878  0.00  0.00    +0.000 A 
BRANCH  16  19
ATOM     19  C   UNL     1      -1.849  12.622  22.360  0.00  0.00    +0.000 C 
ATOM     20  C   UNL     1      -2.481  13.221  21.082  0.00  0.00    +0.000 C 
ATOM     21  C   UNL     1      -3.008  12.256  23.313  0.00  0.00    +0.000 C 
ATOM     22  C   UNL     1      -1.008  13.739  23.016  0.00  0.00    +0.000 C 
ENDBRANCH  16  19
ENDBRANCH  10  13
ENDBRANCH   4   7
BRANCH   1  24
ATOM     23  C   UNL     1       7.598   4.763  16.252  0.00  0.00    +0.000 C 
ATOM     24  C   UNL     1       6.107   4.577  16.036  0.00  0.00    +0.000 C 
ATOM     25  N   UNL     1       5.560   4.043  14.980  0.00  0.00    +0.000 NA
BRANCH  25  26
ATOM     26  N   UNL     1       6.341   3.598  13.956  0.00  0.00    +0.000 N 
ATOM     27  C   UNL     1       5.855   3.350  12.709  0.00  0.00    +0.000 C 
ATOM     28  N   UNL     1       4.637   3.570  12.345  0.00  0.00    +0.000 NA
ATOM     29  N   UNL     1       6.747   2.838  11.833  0.00  0.00    +0.000 N 
ATOM     30  H   UNL     1       7.252   3.196  14.125  0.00  0.00    +0.000 HD
ATOM     31  H   UNL     1       4.200   3.939  13.204  0.00  0.00    +0.000 HD
ATOM     32  H   UNL     1       7.643   3.306  11.825  0.00  0.00    +0.000 HD
ATOM     33  H   UNL     1       6.332   2.844  10.904  0.00  0.00    +0.000 HD
ENDBRANCH  25  26
ENDBRANCH   1  24
TORSDOF 5
ENDMDL
MODEL 7
REMARK VINA RESULT:      -7.5      4.387     11.768
REMARK  Name = 
REMARK  9 active torsions:
REMARK  status: ('A' for Active; 'I' for Inactive)
REMARK    1  A    between atoms: C_1  and  C_2
REMARK    2  A    between atoms: C_2  and  C_8
REMARK    3  A    between atoms: N_3  and  N_4
REMARK    4  A    between atoms: C_11  and  N_12
REMARK    5  A    between atoms: N_15  and  C_16
REMARK    6  A    between atoms: C_19  and  C_20
REMARK    7  A    between atoms: C_20  and  C_21
REMARK    8  A    between atoms: C_20  and  C_22
REMARK    9  A    between atoms: C_20  and  C_23
REMARK                            x       y       z     vdW  Elec       q    Type
REMARK                         _______ _______ _______ _____ _____    ______ ____
ROOT
ATOM      1  C   UNL     1       5.214   4.873  17.138  0.00  0.00    +0.000 A 
ATOM      2  C   UNL     1       5.718   5.280  18.376  0.00  0.00    +0.000 A 
ATOM      3  C   UNL     1       4.851   5.674  19.399  0.00  0.00    +0.000 A 
ATOM      4  C   UNL     1       3.468   5.689  19.211  0.00  0.00    +0.000 A 
ATOM      5  C   UNL     1       2.954   5.242  17.990  0.00  0.00    +0.000 A 
ATOM      6  C   UNL     1       3.824   4.850  16.957  0.00  0.00    +0.000 A 
ENDROOT
BRANCH   4   7
ATOM      7  N   UNL     1       2.577   6.120  20.225  0.00  0.00    +0.000 N 
ATOM      8  C   UNL     1       1.914   7.339  20.200  0.00  0.00    +0.000 C 
ATOM      9  O   UNL     1       1.898   8.099  19.231  0.00  0.00    +0.000 OA
ATOM     10  N   UNL     1       1.292   7.621  21.406  0.00  0.00    +0.000 N 
ATOM     11  H   UNL     1       2.177   5.416  20.827  0.00  0.00    +0.000 HD
ATOM     12  H   UNL     1       1.761   7.253  22.221  0.00  0.00    +0.000 HD
BRANCH  10  13
ATOM     13  C   UNL     1       0.558   8.821  21.590  0.00  0.00    +0.000 A 
ATOM     14  C   UNL     1       0.193   9.270  22.859  0.00  0.00    +0.000 A 
ATOM     15  C   UNL     1      -0.534  10.458  23.018  0.00  0.00    +0.000 A 
ATOM     16  C   UNL     1      -0.931  11.229  21.913  0.00  0.00    +0.000 A 
ATOM     17  C   UNL     1      -0.576  10.742  20.639  0.00  0.00    +0.000 A 
ATOM     18  C   UNL     1       0.184   9.573  20.479  0.00  0.00    +0.000 A 
BRANCH  16  19
ATOM     19  C   UNL     1      -1.679  12.568  22.065  0.00  0.00    +0.000 C 
ATOM     20  C   UNL     1      -0.854  13.653  22.794  0.00  0.00    +0.000 C 
ATOM     21  C   UNL     1      -2.023  13.123  20.664  0.00  0.00    +0.000 C 
ATOM     22  C   UNL     1      -2.992  12.388  22.857  0.00  0.00    +0.000 C 
ENDBRANCH  16  19
ENDBRANCH  10  13
ENDBRANCH   4   7
BRANCH   1  24
ATOM     23  C   UNL     1       7.590   4.927  16.131  0.00  0.00    +0.000 C 
ATOM     24  C   UNL     1       6.143   4.479  16.013  0.00  0.00    +0.000 C 
ATOM     25  N   UNL     1       5.644   3.797  15.021  0.00  0.00    +0.000 NA
BRANCH  25  26
ATOM     26  N   UNL     1       6.439   3.427  13.977  0.00  0.00    +0.000 N 
ATOM     27  C   UNL     1       5.980   3.322  12.700  0.00  0.00    +0.000 C 
ATOM     28  N   UNL     1       4.782   3.622  12.330  0.00  0.00    +0.000 NA
ATOM     29  N   UNL     1       6.879   2.867  11.799  0.00  0.00    +0.000 N 
ATOM     30  H   UNL     1       7.330   2.976  14.129  0.00  0.00    +0.000 HD
ATOM     31  H   UNL     1       4.334   3.920  13.210  0.00  0.00    +0.000 HD
ATOM     32  H   UNL     1       7.790   3.299  11.861  0.00  0.00    +0.000 HD
ATOM     33  H   UNL     1       6.491   2.980  10.866  0.00  0.00    +0.000 HD
ENDBRANCH  25  26
ENDBRANCH   1  24
TORSDOF 5
ENDMDL
MODEL 8
REMARK VINA RESULT:      -7.5      3.641     10.823
REMARK  Name = 
REMARK  9 active torsions:
REMARK  status: ('A' for Active; 'I' for Inactive)
REMARK    1  A    between atoms: C_1  and  C_2
REMARK    2  A    between atoms: C_2  and  C_8
REMARK    3  A    between atoms: N_3  and  N_4
REMARK    4  A    between atoms: C_11  and  N_12
REMARK    5  A    between atoms: N_15  and  C_16
REMARK    6  A    between atoms: C_19  and  C_20
REMARK    7  A    between atoms: C_20  and  C_21
REMARK    8  A    between atoms: C_20  and  C_22
REMARK    9  A    between atoms: C_20  and  C_23
REMARK                            x       y       z     vdW  Elec       q    Type
REMARK                         _______ _______ _______ _____ _____    ______ ____
ROOT
ATOM      1  C   UNL     1       3.054   6.545  18.887  0.00  0.00    +0.000 A 
ATOM      2  C   UNL     1       2.344   6.934  20.027  0.00  0.00    +0.000 A 
ATOM      3  C   UNL     1       1.630   8.135  20.042  0.00  0.00    +0.000 A 
ATOM      4  C   UNL     1       1.619   8.985  18.933  0.00  0.00    +0.000 A 
ATOM      5  C   UNL     1       2.291   8.583  17.775  0.00  0.00    +0.000 A 
ATOM      6  C   UNL     1       3.015   7.377  17.760  0.00  0.00    +0.000 A 
ENDROOT
BRANCH   4   7
ATOM      7  N   UNL     1       0.932  10.223  18.944  0.00  0.00    +0.000 N 
ATOM      8  C   UNL     1      -0.418  10.353  19.240  0.00  0.00    +0.000 C 
ATOM      9  O   UNL     1      -1.122   9.443  19.679  0.00  0.00    +0.000 OA
ATOM     10  N   UNL     1      -0.896  11.623  18.956  0.00  0.00    +0.000 N 
ATOM     11  H   UNL     1       1.484  11.064  19.037  0.00  0.00    +0.000 HD
ATOM     12  H   UNL     1      -0.444  12.081  18.178  0.00  0.00    +0.000 HD
BRANCH  10  13
ATOM     13  C   UNL     1      -2.254  11.964  19.187  0.00  0.00    +0.000 A 
ATOM     14  C   UNL     1      -2.650  12.672  20.322  0.00  0.00    +0.000 A 
ATOM     15  C   UNL     1      -3.997  12.995  20.531  0.00  0.00    +0.000 A 
ATOM     16  C   UNL     1      -4.994  12.611  19.620  0.00  0.00    +0.000 A 
ATOM     17  C   UNL     1      -4.577  11.871  18.495  0.00  0.00    +0.000 A 
ATOM     18  C   UNL     1      -3.223  11.578  18.264  0.00  0.00    +0.000 A 
BRANCH  16  19
ATOM     19  C   UNL     1      -6.474  13.006  19.798  0.00  0.00    +0.000 C 
ATOM     20  C   UNL     1      -7.415  12.337  18.768  0.00  0.00    +0.000 C 
ATOM     21  C   UNL     1      -6.954  12.572  21.201  0.00  0.00    +0.000 C 
ATOM     22  C   UNL     1      -6.665  14.531  19.664  0.00  0.00    +0.000 C 
ENDBRANCH  16  19
ENDBRANCH  10  13
ENDBRANCH   4   7
BRANCH   1  24
ATOM     23  C   UNL     1       5.325   5.382  18.497  0.00  0.00    +0.000 C 
ATOM     24  C   UNL     1       3.859   5.266  18.873  0.00  0.00    +0.000 C 
ATOM     25  N   UNL     1       3.243   4.156  19.172  0.00  0.00    +0.000 NA
BRANCH  25  26
ATOM     26  N   UNL     1       3.922   2.974  19.164  0.00  0.00    +0.000 N 
ATOM     27  C   UNL     1       3.498   1.884  18.468  0.00  0.00    +0.000 C 
ATOM     28  N   UNL     1       2.464   1.869  17.697  0.00  0.00    +0.000 NA
ATOM     29  N   UNL     1       4.244   0.770  18.630  0.00  0.00    +0.000 N 
ATOM     30  H   UNL     1       4.625   2.766  19.859  0.00  0.00    +0.000 HD
ATOM     31  H   UNL     1       2.099   2.830  17.778  0.00  0.00    +0.000 HD
ATOM     32  H   UNL     1       5.242   0.919  18.568  0.00  0.00    +0.000 HD
ATOM     33  H   UNL     1       3.944   0.073  17.953  0.00  0.00    +0.000 HD
ENDBRANCH  25  26
ENDBRANCH   1  24
TORSDOF 5
ENDMDL
MODEL 9
REMARK VINA RESULT:      -7.5      3.165     11.302
REMARK  Name = 
REMARK  9 active torsions:
REMARK  status: ('A' for Active; 'I' for Inactive)
REMARK    1  A    between atoms: C_1  and  C_2
REMARK    2  A    between atoms: C_2  and  C_8
REMARK    3  A    between atoms: N_3  and  N_4
REMARK    4  A    between atoms: C_11  and  N_12
REMARK    5  A    between atoms: N_15  and  C_16
REMARK    6  A    between atoms: C_19  and  C_20
REMARK    7  A    between atoms: C_20  and  C_21
REMARK    8  A    between atoms: C_20  and  C_22
REMARK    9  A    between atoms: C_20  and  C_23
REMARK                            x       y       z     vdW  Elec       q    Type
REMARK                         _______ _______ _______ _____ _____    ______ ____
ROOT
ATOM      1  C   UNL     1       2.814   5.507  18.456  0.00  0.00    +0.000 A 
ATOM      2  C   UNL     1       2.268   5.026  19.649  0.00  0.00    +0.000 A 
ATOM      3  C   UNL     1       1.803   5.912  20.624  0.00  0.00    +0.000 A 
ATOM      4  C   UNL     1       1.883   7.294  20.443  0.00  0.00    +0.000 A 
ATOM      5  C   UNL     1       2.388   7.783  19.234  0.00  0.00    +0.000 A 
ATOM      6  C   UNL     1       2.862   6.893  18.254  0.00  0.00    +0.000 A 
ENDROOT
BRANCH   4   7
ATOM      7  N   UNL     1       1.450   8.207  21.436  0.00  0.00    +0.000 N 
ATOM      8  C   UNL     1       0.466   9.163  21.227  0.00  0.00    +0.000 C 
ATOM      9  O   UNL     1      -0.246   9.217  20.224  0.00  0.00    +0.000 OA
ATOM     10  N   UNL     1       0.392  10.075  22.269  0.00  0.00    +0.000 N 
ATOM     11  H   UNL     1       1.636   7.972  22.400  0.00  0.00    +0.000 HD
ATOM     12  H   UNL     1       1.271  10.264  22.729  0.00  0.00    +0.000 HD
BRANCH  10  13
ATOM     13  C   UNL     1      -0.550  11.134  22.251  0.00  0.00    +0.000 A 
ATOM     14  C   UNL     1      -0.464  12.176  21.327  0.00  0.00    +0.000 A 
ATOM     15  C   UNL     1      -1.405  13.215  21.328  0.00  0.00    +0.000 A 
ATOM     16  C   UNL     1      -2.454  13.254  22.261  0.00  0.00    +0.000 A 
ATOM     17  C   UNL     1      -2.506  12.208  23.203  0.00  0.00    +0.000 A 
ATOM     18  C   UNL     1      -1.587  11.146  23.181  0.00  0.00    +0.000 A 
BRANCH  16  19
ATOM     19  C   UNL     1      -3.535  14.354  22.245  0.00  0.00    +0.000 C 
ATOM     20  C   UNL     1      -4.390  14.356  20.957  0.00  0.00    +0.000 C 
ATOM     21  C   UNL     1      -4.500  14.138  23.432  0.00  0.00    +0.000 C 
ATOM     22  C   UNL     1      -2.905  15.757  22.374  0.00  0.00    +0.000 C 
ENDBRANCH  16  19
ENDBRANCH  10  13
ENDBRANCH   4   7
BRANCH   1  24
ATOM     23  C   UNL     1       2.611   3.245  17.228  0.00  0.00    +0.000 C 
ATOM     24  C   UNL     1       3.353   4.557  17.411  0.00  0.00    +0.000 C 
ATOM     25  N   UNL     1       4.416   4.919  16.749  0.00  0.00    +0.000 NA
BRANCH  25  26
ATOM     26  N   UNL     1       4.948   4.094  15.804  0.00  0.00    +0.000 N 
ATOM     27  C   UNL     1       6.018   4.441  15.037  0.00  0.00    +0.000 C 
ATOM     28  N   UNL     1       6.679   5.541  15.164  0.00  0.00    +0.000 NA
ATOM     29  N   UNL     1       6.369   3.539  14.094  0.00  0.00    +0.000 N 
ATOM     30  H   UNL     1       4.435   3.298  15.452  0.00  0.00    +0.000 HD
ATOM     31  H   UNL     1       6.187   6.021  15.934  0.00  0.00    +0.000 HD
ATOM     32  H   UNL     1       6.406   2.584  14.420  0.00  0.00    +0.000 HD
ATOM     33  H   UNL     1       7.262   3.816  13.694  0.00  0.00    +0.000 HD
ENDBRANCH  25  26
ENDBRANCH   1  24
TORSDOF 5
ENDMDL
