MODEL 1
REMARK VINA RESULT:      -7.5      0.000      0.000
REMARK  Name = 
REMARK  7 active torsions:
REMARK  status: ('A' for Active; 'I' for Inactive)
REMARK    1  A    between atoms: C_1  and  O_2
REMARK    2  A    between atoms: O_2  and  C_3
REMARK    3  A    between atoms: C_6  and  S_7
REMARK    4  A    between atoms: C_12  and  N_13
REMARK    5  A    between atoms: N_13  and  S_14
REMARK    6  A    between atoms: S_14  and  C_17
REMARK    7  A    between atoms: C_20  and  C_21
REMARK                            x       y       z     vdW  Elec       q    Type
REMARK                         _______ _______ _______ _____ _____    ______ ____
ROOT
ATOM      1  C   UNL     1       2.556   6.958  19.301  0.00  0.00    +0.000 A 
ATOM      2  C   UNL     1       1.907   6.409  20.422  0.00  0.00    +0.000 A 
ATOM      3  C   UNL     1       2.149   5.095  20.798  0.00  0.00    +0.000 A 
ATOM      4  C   UNL     1       3.085   4.346  20.090  0.00  0.00    +0.000 A 
ATOM      5  C   UNL     1       3.846   4.914  19.069  0.00  0.00    +0.000 A 
ATOM      6  C   UNL     1       3.596   6.228  18.681  0.00  0.00    +0.000 A 
ENDROOT
BRANCH   4   7
ATOM      7  S   UNL     1       3.207   2.588  20.471  0.00  0.00    +0.000 S 
ATOM      8  O   UNL     1       4.622   2.335  20.230  0.00  0.00    +0.000 OA
ATOM      9  O   UNL     1       2.776   2.572  21.863  0.00  0.00    +0.000 OA
ATOM     10  O   UNL     1       2.279   1.978  19.519  0.00  0.00    +0.000 OA
ENDBRANCH   4   7
BRANCH   1  12
ATOM     11  C   UNL     1       1.320   8.927  19.611  0.00  0.00    +0.000 C 
ATOM     12  O   UNL     1       2.144   8.152  18.737  0.00  0.00    +0.000 OA
ENDBRANCH   1  12
BRANCH   6  13
ATOM     13  N   UNL     1       4.358   6.727  17.587  0.00  0.00    +0.000 N 
ATOM     14  H   UNL     1       4.098   7.614  17.174  0.00  0.00    +0.000 HD
BRANCH  13  15
ATOM     15  S   UNL     1       5.980   6.335  17.404  0.00  0.00    +0.000 S 
ATOM     16  O   UNL     1       6.633   7.599  17.113  0.00  0.00    +0.000 OA
ATOM     17  O   UNL     1       6.405   5.567  18.557  0.00  0.00    +0.000 OA
BRANCH  15  18
ATOM     18  C   UNL     1       6.115   5.311  15.947  0.00  0.00    +0.000 A 
ATOM     19  C   UNL     1       5.062   4.481  15.543  0.00  0.00    +0.000 A 
ATOM     20  C   UNL     1       5.142   3.793  14.319  0.00  0.00    +0.000 A 
ATOM     21  C   UNL     1       6.259   3.948  13.491  0.00  0.00    +0.000 A 
ATOM     22  C   UNL     1       6.363   3.240  12.166  0.00  0.00    +0.000 C 
ATOM     23  C   UNL     1       7.299   4.794  13.898  0.00  0.00    +0.000 A 
ATOM     24  C   UNL     1       7.226   5.476  15.116  0.00  0.00    +0.000 A 
ENDBRANCH  15  18
ENDBRANCH  13  15
ENDBRANCH   6  13
TORSDOF 5
ENDMDL
MODEL 2
REMARK VINA RESULT:      -7.3      0.960      1.264
REMARK  Name = 
REMARK  7 active torsions:
REMARK  status: ('A' for Active; 'I' for Inactive)
REMARK    1  A    between atoms: C_1  and  O_2
REMARK    2  A    between atoms: O_2  and  C_3
REMARK    3  A    between atoms: C_6  and  S_7
REMARK    4  A    between atoms: C_12  and  N_13
REMARK    5  A    between atoms: N_13  and  S_14
REMARK    6  A    between atoms: S_14  and  C_17
REMARK    7  A    between atoms: C_20  and  C_21
REMARK                            x       y       z     vdW  Elec       q    Type
REMARK                         _______ _______ _______ _____ _____    ______ ____
ROOT
ATOM      1  C   UNL     1       2.494   6.759  19.344  0.00  0.00    +0.000 A 
ATOM      2  C   UNL     1       1.748   6.071  20.318  0.00  0.00    +0.000 A 
ATOM      3  C   UNL     1       1.593   4.694  20.239  0.00  0.00    +0.000 A 
ATOM      4  C   UNL     1       2.235   3.994  19.221  0.00  0.00    +0.000 A 
ATOM      5  C   UNL     1       3.097   4.635  18.332  0.00  0.00    +0.000 A 
ATOM      6  C   UNL     1       3.242   6.018  18.400  0.00  0.00    +0.000 A 
ENDROOT
BRANCH   4   7
ATOM      7  S   UNL     1       1.832   2.247  19.027  0.00  0.00    +0.000 S 
ATOM      8  O   UNL     1       1.836   1.792  20.412  0.00  0.00    +0.000 OA
ATOM      9  O   UNL     1       0.530   2.329  18.379  0.00  0.00    +0.000 OA
ATOM     10  O   UNL     1       2.921   1.748  18.189  0.00  0.00    +0.000 OA
ENDBRANCH   4   7
BRANCH   1  12
ATOM     11  C   UNL     1       1.400   8.722  20.012  0.00  0.00    +0.000 C 
ATOM     12  O   UNL     1       2.443   8.136  19.230  0.00  0.00    +0.000 OA
ENDBRANCH   1  12
BRANCH   6  13
ATOM     13  N   UNL     1       4.082   6.621  17.421  0.00  0.00    +0.000 N 
ATOM     14  H   UNL     1       3.838   7.537  17.063  0.00  0.00    +0.000 HD
BRANCH  13  15
ATOM     15  S   UNL     1       5.723   6.272  17.345  0.00  0.00    +0.000 S 
ATOM     16  O   UNL     1       6.362   7.557  17.125  0.00  0.00    +0.000 OA
ATOM     17  O   UNL     1       6.085   5.490  18.510  0.00  0.00    +0.000 OA
BRANCH  15  18
ATOM     18  C   UNL     1       5.984   5.282  15.882  0.00  0.00    +0.000 A 
ATOM     19  C   UNL     1       4.981   4.440  15.386  0.00  0.00    +0.000 A 
ATOM     20  C   UNL     1       5.164   3.780  14.158  0.00  0.00    +0.000 A 
ATOM     21  C   UNL     1       6.335   3.974  13.417  0.00  0.00    +0.000 A 
ATOM     22  C   UNL     1       6.549   3.296  12.089  0.00  0.00    +0.000 C 
ATOM     23  C   UNL     1       7.324   4.831  13.916  0.00  0.00    +0.000 A 
ATOM     24  C   UNL     1       7.149   5.485  15.138  0.00  0.00    +0.000 A 
ENDBRANCH  15  18
ENDBRANCH  13  15
ENDBRANCH   6  13
TORSDOF 5
ENDMDL
MODEL 3
REMARK VINA RESULT:      -7.2      2.833      7.191
REMARK  Name = 
REMARK  7 active torsions:
REMARK  status: ('A' for Active; 'I' for Inactive)
REMARK    1  A    between atoms: C_1  and  O_2
REMARK    2  A    between atoms: O_2  and  C_3
REMARK    3  A    between atoms: C_6  and  S_7
REMARK    4  A    between atoms: C_12  and  N_13
REMARK    5  A    between atoms: N_13  and  S_14
REMARK    6  A    between atoms: S_14  and  C_17
REMARK    7  A    between atoms: C_20  and  C_21
REMARK                            x       y       z     vdW  Elec       q    Type
REMARK                         _______ _______ _______ _____ _____    ______ ____
ROOT
ATOM      1  C   UNL     1       2.803   4.507  17.952  0.00  0.00    +0.000 A 
ATOM      2  C   UNL     1       3.474   3.515  17.214  0.00  0.00    +0.000 A 
ATOM      3  C   UNL     1       4.749   3.752  16.718  0.00  0.00    +0.000 A 
ATOM      4  C   UNL     1       5.379   4.958  17.012  0.00  0.00    +0.000 A 
ATOM      5  C   UNL     1       4.794   5.895  17.863  0.00  0.00    +0.000 A 
ATOM      6  C   UNL     1       3.509   5.665  18.349  0.00  0.00    +0.000 A 
ENDROOT
BRANCH   4   7
ATOM      7  S   UNL     1       6.935   5.312  16.171  0.00  0.00    +0.000 S 
ATOM      8  O   UNL     1       6.613   4.950  14.797  0.00  0.00    +0.000 OA
ATOM      9  O   UNL     1       7.085   6.735  16.445  0.00  0.00    +0.000 OA
ATOM     10  O   UNL     1       7.887   4.437  16.855  0.00  0.00    +0.000 OA
ENDBRANCH   4   7
BRANCH   1  12
ATOM     11  C   UNL     1       1.146   3.469  19.247  0.00  0.00    +0.000 C 
ATOM     12  O   UNL     1       1.449   4.419  18.223  0.00  0.00    +0.000 OA
ENDBRANCH   1  12
BRANCH   6  13
ATOM     13  N   UNL     1       2.940   6.691  19.156  0.00  0.00    +0.000 N 
ATOM     14  H   UNL     1       3.343   6.878  20.067  0.00  0.00    +0.000 HD
BRANCH  13  15
ATOM     15  S   UNL     1       2.160   8.010  18.470  0.00  0.00    +0.000 S 
ATOM     16  O   UNL     1       3.232   8.861  17.986  0.00  0.00    +0.000 OA
ATOM     17  O   UNL     1       1.164   7.525  17.536  0.00  0.00    +0.000 OA
BRANCH  15  18
ATOM     18  C   UNL     1       1.334   8.881  19.792  0.00  0.00    +0.000 A 
ATOM     19  C   UNL     1       0.519   9.990  19.533  0.00  0.00    +0.000 A 
ATOM     20  C   UNL     1      -0.227  10.570  20.575  0.00  0.00    +0.000 A 
ATOM     21  C   UNL     1      -0.176  10.034  21.867  0.00  0.00    +0.000 A 
ATOM     22  C   UNL     1      -0.979  10.622  22.996  0.00  0.00    +0.000 C 
ATOM     23  C   UNL     1       0.631   8.915  22.110  0.00  0.00    +0.000 A 
ATOM     24  C   UNL     1       1.378   8.339  21.079  0.00  0.00    +0.000 A 
ENDBRANCH  15  18
ENDBRANCH  13  15
ENDBRANCH   6  13
TORSDOF 5
ENDMDL
MODEL 4
REMARK VINA RESULT:      -7.2      2.667      3.786
REMARK  Name = 
REMARK  7 active torsions:
REMARK  status: ('A' for Active; 'I' for Inactive)
REMARK    1  A    between atoms: C_1  and  O_2
REMARK    2  A    between atoms: O_2  and  C_3
REMARK    3  A    between atoms: C_6  and  S_7
REMARK    4  A    between atoms: C_12  and  N_13
REMARK    5  A    between atoms: N_13  and  S_14
REMARK    6  A    between atoms: S_14  and  C_17
REMARK    7  A    between atoms: C_20  and  C_21
REMARK                            x       y       z     vdW  Elec       q    Type
REMARK                         _______ _______ _______ _____ _____    ______ ____
ROOT
ATOM      1  C   UNL     1       3.115   6.578  18.725  0.00  0.00    +0.000 A 
ATOM      2  C   UNL     1       2.289   6.606  19.863  0.00  0.00    +0.000 A 
ATOM      3  C   UNL     1       1.803   5.424  20.406  0.00  0.00    +0.000 A 
ATOM      4  C   UNL     1       2.192   4.209  19.848  0.00  0.00    +0.000 A 
ATOM      5  C   UNL     1       3.125   4.151  18.813  0.00  0.00    +0.000 A 
ATOM      6  C   UNL     1       3.602   5.336  18.258  0.00  0.00    +0.000 A 
ENDROOT
BRANCH   4   7
ATOM      7  S   UNL     1       1.369   2.718  20.441  0.00  0.00    +0.000 S 
ATOM      8  O   UNL     1       0.038   2.872  19.869  0.00  0.00    +0.000 OA
ATOM      9  O   UNL     1       2.208   1.682  19.854  0.00  0.00    +0.000 OA
ATOM     10  O   UNL     1       1.456   2.849  21.895  0.00  0.00    +0.000 OA
ENDBRANCH   4   7
BRANCH   1  12
ATOM     11  C   UNL     1       2.231   8.527  17.765  0.00  0.00    +0.000 C 
ATOM     12  O   UNL     1       3.391   7.723  18.000  0.00  0.00    +0.000 OA
ENDBRANCH   1  12
BRANCH   6  13
ATOM     13  N   UNL     1       4.499   5.209  17.160  0.00  0.00    +0.000 N 
ATOM     14  H   UNL     1       4.348   5.780  16.336  0.00  0.00    +0.000 HD
BRANCH  13  15
ATOM     15  S   UNL     1       6.097   4.745  17.386  0.00  0.00    +0.000 S 
ATOM     16  O   UNL     1       6.084   3.971  18.614  0.00  0.00    +0.000 OA
ATOM     17  O   UNL     1       6.579   4.131  16.166  0.00  0.00    +0.000 OA
BRANCH  15  18
ATOM     18  C   UNL     1       7.039   6.230  17.695  0.00  0.00    +0.000 A 
ATOM     19  C   UNL     1       6.784   7.412  16.988  0.00  0.00    +0.000 A 
ATOM     20  C   UNL     1       7.445   8.601  17.348  0.00  0.00    +0.000 A 
ATOM     21  C   UNL     1       8.341   8.615  18.423  0.00  0.00    +0.000 A 
ATOM     22  C   UNL     1       9.047   9.877  18.843  0.00  0.00    +0.000 C 
ATOM     23  C   UNL     1       8.575   7.430  19.132  0.00  0.00    +0.000 A 
ATOM     24  C   UNL     1       7.925   6.246  18.775  0.00  0.00    +0.000 A 
ENDBRANCH  15  18
ENDBRANCH  13  15
ENDBRANCH   6  13
TORSDOF 5
ENDMDL
MODEL 5
REMARK VINA RESULT:      -7.2      2.804      7.251
REMARK  Name = 
REMARK  7 active torsions:
REMARK  status: ('A' for Active; 'I' for Inactive)
REMARK    1  A    between atoms: C_1  and  O_2
REMARK    2  A    between atoms: O_2  and  C_3
REMARK    3  A    between atoms: C_6  and  S_7
REMARK    4  A    between atoms: C_12  and  N_13
REMARK    5  A    between atoms: N_13  and  S_14
REMARK    6  A    between atoms: S_14  and  C_17
REMARK    7  A    between atoms: C_20  and  C_21
REMARK                            x       y       z     vdW  Elec       q    Type
REMARK                         _______ _______ _______ _____ _____    ______ ____
ROOT
ATOM      1  C   UNL     1       2.885   4.563  18.014  0.00  0.00    +0.000 A 
ATOM      2  C   UNL     1       3.584   3.592  17.274  0.00  0.00    +0.000 A 
ATOM      3  C   UNL     1       4.840   3.876  16.755  0.00  0.00    +0.000 A 
ATOM      4  C   UNL     1       5.425   5.110  17.026  0.00  0.00    +0.000 A 
ATOM      5  C   UNL     1       4.815   6.031  17.877  0.00  0.00    +0.000 A 
ATOM      6  C   UNL     1       3.549   5.754  18.387  0.00  0.00    +0.000 A 
ENDROOT
BRANCH   4   7
ATOM      7  S   UNL     1       6.951   5.519  16.156  0.00  0.00    +0.000 S 
ATOM      8  O   UNL     1       7.822   4.425  16.565  0.00  0.00    +0.000 OA
ATOM      9  O   UNL     1       6.498   5.500  14.771  0.00  0.00    +0.000 OA
ATOM     10  O   UNL     1       7.291   6.838  16.688  0.00  0.00    +0.000 OA
ENDBRANCH   4   7
BRANCH   1  12
ATOM     11  C   UNL     1       1.295   3.474  19.350  0.00  0.00    +0.000 C 
ATOM     12  O   UNL     1       1.541   4.422  18.308  0.00  0.00    +0.000 OA
ENDBRANCH   1  12
BRANCH   6  13
ATOM     13  N   UNL     1       2.951   6.763  19.194  0.00  0.00    +0.000 N 
ATOM     14  H   UNL     1       3.360   6.975  20.096  0.00  0.00    +0.000 HD
BRANCH  13  15
ATOM     15  S   UNL     1       2.108   8.042  18.507  0.00  0.00    +0.000 S 
ATOM     16  O   UNL     1       3.134   8.996  18.123  0.00  0.00    +0.000 OA
ATOM     17  O   UNL     1       1.213   7.518  17.495  0.00  0.00    +0.000 OA
BRANCH  15  18
ATOM     18  C   UNL     1       1.135   8.790  19.804  0.00  0.00    +0.000 A 
ATOM     19  C   UNL     1       1.268   8.384  21.138  0.00  0.00    +0.000 A 
ATOM     20  C   UNL     1       0.593   9.083  22.155  0.00  0.00    +0.000 A 
ATOM     21  C   UNL     1      -0.195  10.197  21.845  0.00  0.00    +0.000 A 
ATOM     22  C   UNL     1      -0.912  10.977  22.915  0.00  0.00    +0.000 C 
ATOM     23  C   UNL     1      -0.307  10.604  20.510  0.00  0.00    +0.000 A 
ATOM     24  C   UNL     1       0.358   9.909  19.496  0.00  0.00    +0.000 A 
ENDBRANCH  15  18
ENDBRANCH  13  15
ENDBRANCH   6  13
TORSDOF 5
ENDMDL
MODEL 6
REMARK VINA RESULT:      -7.2      0.959      1.713
REMARK  Name = 
REMARK  7 active torsions:
REMARK  status: ('A' for Active; 'I' for Inactive)
REMARK    1  A    between atoms: C_1  and  O_2
REMARK    2  A    between atoms: O_2  and  C_3
REMARK    3  A    between atoms: C_6  and  S_7
REMARK    4  A    between atoms: C_12  and  N_13
REMARK    5  A    between atoms: N_13  and  S_14
REMARK    6  A    between atoms: S_14  and  C_17
REMARK    7  A    between atoms: C_20  and  C_21
REMARK                            x       y       z     vdW  Elec       q    Type
REMARK                         _______ _______ _______ _____ _____    ______ ____
ROOT
ATOM      1  C   UNL     1       2.805   7.272  18.695  0.00  0.00    +0.000 A 
ATOM      2  C   UNL     1       2.199   7.169  19.960  0.00  0.00    +0.000 A 
ATOM      3  C   UNL     1       2.023   5.927  20.554  0.00  0.00    +0.000 A 
ATOM      4  C   UNL     1       2.508   4.791  19.912  0.00  0.00    +0.000 A 
ATOM      5  C   UNL     1       3.241   4.883  18.729  0.00  0.00    +0.000 A 
ATOM      6  C   UNL     1       3.406   6.126  18.124  0.00  0.00    +0.000 A 
ENDROOT
BRANCH   4   7
ATOM      7  S   UNL     1       2.066   3.187  20.608  0.00  0.00    +0.000 S 
ATOM      8  O   UNL     1       0.723   2.998  20.077  0.00  0.00    +0.000 OA
ATOM      9  O   UNL     1       3.109   2.340  20.044  0.00  0.00    +0.000 OA
ATOM     10  O   UNL     1       2.155   3.417  22.050  0.00  0.00    +0.000 OA
ENDBRANCH   4   7
BRANCH   1  12
ATOM     11  C   UNL     1       1.463   9.061  17.989  0.00  0.00    +0.000 C 
ATOM     12  O   UNL     1       2.751   8.441  17.957  0.00  0.00    +0.000 OA
ENDBRANCH   1  12
BRANCH   6  13
ATOM     13  N   UNL     1       4.104   6.145  16.884  0.00  0.00    +0.000 N 
ATOM     14  H   UNL     1       3.752   6.725  16.132  0.00  0.00    +0.000 HD
BRANCH  13  15
ATOM     15  S   UNL     1       5.756   5.856  16.808  0.00  0.00    +0.000 S 
ATOM     16  O   UNL     1       6.363   7.173  16.874  0.00  0.00    +0.000 OA
ATOM     17  O   UNL     1       6.100   4.866  17.808  0.00  0.00    +0.000 OA
BRANCH  15  18
ATOM     18  C   UNL     1       6.101   5.184  15.189  0.00  0.00    +0.000 A 
ATOM     19  C   UNL     1       7.316   5.438  14.541  0.00  0.00    +0.000 A 
ATOM     20  C   UNL     1       7.615   4.784  13.332  0.00  0.00    +0.000 A 
ATOM     21  C   UNL     1       6.715   3.865  12.782  0.00  0.00    +0.000 A 
ATOM     22  C   UNL     1       7.018   3.136  11.500  0.00  0.00    +0.000 C 
ATOM     23  C   UNL     1       5.510   3.607  13.448  0.00  0.00    +0.000 A 
ATOM     24  C   UNL     1       5.206   4.258  14.647  0.00  0.00    +0.000 A 
ENDBRANCH  15  18
ENDBRANCH  13  15
ENDBRANCH   6  13
TORSDOF 5
ENDMDL
MODEL 7
REMARK VINA RESULT:      -7.2      2.598      3.675
REMARK  Name = 
REMARK  7 active torsions:
REMARK  status: ('A' for Active; 'I' for Inactive)
REMARK    1  A    between atoms: C_1  and  O_2
REMARK    2  A    between atoms: O_2  and  C_3
REMARK    3  A    between atoms: C_6  and  S_7
REMARK    4  A    between atoms: C_12  and  N_13
REMARK    5  A    between atoms: N_13  and  S_14
REMARK    6  A    between atoms: S_14  and  C_17
REMARK    7  A    between atoms: C_20  and  C_21
REMARK                            x       y       z     vdW  Elec       q    Type
REMARK                         _______ _______ _______ _____ _____    ______ ____
ROOT
ATOM      1  C   UNL     1       3.182   6.654  18.384  0.00  0.00    +0.000 A 
ATOM      2  C   UNL     1       2.500   6.667  19.614  0.00  0.00    +0.000 A 
ATOM      3  C   UNL     1       2.217   5.477  20.271  0.00  0.00    +0.000 A 
ATOM      4  C   UNL     1       2.669   4.277  19.729  0.00  0.00    +0.000 A 
ATOM      5  C   UNL     1       3.471   4.251  18.589  0.00  0.00    +0.000 A 
ATOM      6  C   UNL     1       3.745   5.442  17.921  0.00  0.00    +0.000 A 
ENDROOT
BRANCH   4   7
ATOM      7  S   UNL     1       2.093   2.748  20.494  0.00  0.00    +0.000 S 
ATOM      8  O   UNL     1       3.108   2.535  21.518  0.00  0.00    +0.000 OA
ATOM      9  O   UNL     1       0.774   3.148  20.964  0.00  0.00    +0.000 OA
ATOM     10  O   UNL     1       2.102   1.798  19.381  0.00  0.00    +0.000 OA
ENDBRANCH   4   7
BRANCH   1  12
ATOM     11  C   UNL     1       2.175   8.695  17.822  0.00  0.00    +0.000 C 
ATOM     12  O   UNL     1       3.240   7.774  17.575  0.00  0.00    +0.000 OA
ENDBRANCH   1  12
BRANCH   6  13
ATOM     13  N   UNL     1       4.512   5.342  16.726  0.00  0.00    +0.000 N 
ATOM     14  H   UNL     1       4.216   5.863  15.909  0.00  0.00    +0.000 HD
BRANCH  13  15
ATOM     15  S   UNL     1       6.158   5.017  16.771  0.00  0.00    +0.000 S 
ATOM     16  O   UNL     1       6.286   3.885  17.671  0.00  0.00    +0.000 OA
ATOM     17  O   UNL     1       6.645   4.899  15.411  0.00  0.00    +0.000 OA
BRANCH  15  18
ATOM     18  C   UNL     1       6.951   6.416  17.547  0.00  0.00    +0.000 A 
ATOM     19  C   UNL     1       7.805   6.249  18.645  0.00  0.00    +0.000 A 
ATOM     20  C   UNL     1       8.523   7.350  19.148  0.00  0.00    +0.000 A 
ATOM     21  C   UNL     1       8.405   8.607  18.545  0.00  0.00    +0.000 A 
ATOM     22  C   UNL     1       9.177   9.798  19.049  0.00  0.00    +0.000 C 
ATOM     23  C   UNL     1       7.561   8.757  17.438  0.00  0.00    +0.000 A 
ATOM     24  C   UNL     1       6.842   7.668  16.938  0.00  0.00    +0.000 A 
ENDBRANCH  15  18
ENDBRANCH  13  15
ENDBRANCH   6  13
TORSDOF 5
ENDMDL
MODEL 8
REMARK VINA RESULT:      -7.2      2.543      6.254
REMARK  Name = 
REMARK  7 active torsions:
REMARK  status: ('A' for Active; 'I' for Inactive)
REMARK    1  A    between atoms: C_1  and  O_2
REMARK    2  A    between atoms: O_2  and  C_3
REMARK    3  A    between atoms: C_6  and  S_7
REMARK    4  A    between atoms: C_12  and  N_13
REMARK    5  A    between atoms: N_13  and  S_14
REMARK    6  A    between atoms: S_14  and  C_17
REMARK    7  A    between atoms: C_20  and  C_21
REMARK                            x       y       z     vdW  Elec       q    Type
REMARK                         _______ _______ _______ _____ _____    ______ ____
ROOT
ATOM      1  C   UNL     1       6.810   5.388  18.996  0.00  0.00    +0.000 A 
ATOM      2  C   UNL     1       7.305   6.405  18.159  0.00  0.00    +0.000 A 
ATOM      3  C   UNL     1       7.185   6.298  16.781  0.00  0.00    +0.000 A 
ATOM      4  C   UNL     1       6.516   5.204  16.239  0.00  0.00    +0.000 A 
ATOM      5  C   UNL     1       5.890   4.260  17.052  0.00  0.00    +0.000 A 
ATOM      6  C   UNL     1       6.022   4.358  18.435  0.00  0.00    +0.000 A 
ENDROOT
BRANCH   4   7
ATOM      7  S   UNL     1       6.574   4.995  14.448  0.00  0.00    +0.000 S 
ATOM      8  O   UNL     1       6.355   3.560  14.315  0.00  0.00    +0.000 OA
ATOM      9  O   UNL     1       5.477   5.857  14.029  0.00  0.00    +0.000 OA
ATOM     10  O   UNL     1       7.914   5.470  14.103  0.00  0.00    +0.000 OA
ENDBRANCH   4   7
BRANCH   1  12
ATOM     11  C   UNL     1       8.561   5.276  20.552  0.00  0.00    +0.000 C 
ATOM     12  O   UNL     1       7.149   5.322  20.336  0.00  0.00    +0.000 OA
ENDBRANCH   1  12
BRANCH   6  13
ATOM     13  N   UNL     1       5.418   3.325  19.207  0.00  0.00    +0.000 N 
ATOM     14  H   UNL     1       5.910   2.969  20.019  0.00  0.00    +0.000 HD
BRANCH  13  15
ATOM     15  S   UNL     1       3.750   3.160  19.292  0.00  0.00    +0.000 S 
ATOM     16  O   UNL     1       3.395   2.396  18.109  0.00  0.00    +0.000 OA
ATOM     17  O   UNL     1       3.400   2.645  20.600  0.00  0.00    +0.000 OA
BRANCH  15  18
ATOM     18  C   UNL     1       3.049   4.792  19.109  0.00  0.00    +0.000 A 
ATOM     19  C   UNL     1       2.756   5.586  20.225  0.00  0.00    +0.000 A 
ATOM     20  C   UNL     1       2.335   6.916  20.047  0.00  0.00    +0.000 A 
ATOM     21  C   UNL     1       2.228   7.460  18.763  0.00  0.00    +0.000 A 
ATOM     22  C   UNL     1       1.800   8.887  18.544  0.00  0.00    +0.000 C 
ATOM     23  C   UNL     1       2.540   6.661  17.655  0.00  0.00    +0.000 A 
ATOM     24  C   UNL     1       2.952   5.337  17.826  0.00  0.00    +0.000 A 
ENDBRANCH  15  18
ENDBRANCH  13  15
ENDBRANCH   6  13
TORSDOF 5
ENDMDL
MODEL 9
REMARK VINA RESULT:      -7.2      2.709      3.904
REMARK  Name = 
REMARK  7 active torsions:
REMARK  status: ('A' for Active; 'I' for Inactive)
REMARK    1  A    between atoms: C_1  and  O_2
REMARK    2  A    between atoms: O_2  and  C_3
REMARK    3  A    between atoms: C_6  and  S_7
REMARK    4  A    between atoms: C_12  and  N_13
REMARK    5  A    between atoms: N_13  and  S_14
REMARK    6  A    between atoms: S_14  and  C_17
REMARK    7  A    between atoms: C_20  and  C_21
REMARK                            x       y       z     vdW  Elec       q    Type
REMARK                         _______ _______ _______ _____ _____    ______ ____
ROOT
ATOM      1  C   UNL     1       3.397   6.572  18.371  0.00  0.00    +0.000 A 
ATOM      2  C   UNL     1       2.574   6.590  19.511  0.00  0.00    +0.000 A 
ATOM      3  C   UNL     1       2.204   5.403  20.128  0.00  0.00    +0.000 A 
ATOM      4  C   UNL     1       2.706   4.199  19.642  0.00  0.00    +0.000 A 
ATOM      5  C   UNL     1       3.638   4.166  18.606  0.00  0.00    +0.000 A 
ATOM      6  C   UNL     1       4.000   5.355  17.976  0.00  0.00    +0.000 A 
ENDROOT
BRANCH   4   7
ATOM      7  S   UNL     1       2.031   2.675  20.331  0.00  0.00    +0.000 S 
ATOM      8  O   UNL     1       0.627   3.028  20.498  0.00  0.00    +0.000 OA
ATOM      9  O   UNL     1       2.336   1.727  19.268  0.00  0.00    +0.000 OA
ATOM     10  O   UNL     1       2.796   2.503  21.565  0.00  0.00    +0.000 OA
ENDBRANCH   4   7
BRANCH   1  12
ATOM     11  C   UNL     1       2.468   8.609  17.674  0.00  0.00    +0.000 C 
ATOM     12  O   UNL     1       3.560   7.692  17.576  0.00  0.00    +0.000 OA
ENDBRANCH   1  12
BRANCH   6  13
ATOM     13  N   UNL     1       4.903   5.248  16.881  0.00  0.00    +0.000 N 
ATOM     14  H   UNL     1       4.678   5.721  16.013  0.00  0.00    +0.000 HD
BRANCH  13  15
ATOM     15  S   UNL     1       6.547   5.012  17.125  0.00  0.00    +0.000 S 
ATOM     16  O   UNL     1       6.623   4.035  18.196  0.00  0.00    +0.000 OA
ATOM     17  O   UNL     1       7.167   4.714  15.850  0.00  0.00    +0.000 OA
BRANCH  15  18
ATOM     18  C   UNL     1       7.214   6.547  17.746  0.00  0.00    +0.000 A 
ATOM     19  C   UNL     1       8.094   6.568  18.836  0.00  0.00    +0.000 A 
ATOM     20  C   UNL     1       8.710   7.774  19.215  0.00  0.00    +0.000 A 
ATOM     21  C   UNL     1       8.467   8.951  18.498  0.00  0.00    +0.000 A 
ATOM     22  C   UNL     1       9.130  10.251  18.868  0.00  0.00    +0.000 C 
ATOM     23  C   UNL     1       7.598   8.913  17.399  0.00  0.00    +0.000 A 
ATOM     24  C   UNL     1       6.979   7.719  17.022  0.00  0.00    +0.000 A 
ENDBRANCH  15  18
ENDBRANCH  13  15
ENDBRANCH   6  13
TORSDOF 5
ENDMDL
