MODEL 1
REMARK VINA RESULT:      -7.2      0.000      0.000
REMARK  Name = 
REMARK  6 active torsions:
REMARK  status: ('A' for Active; 'I' for Inactive)
REMARK    1  A    between atoms: C_2  and  O_3
REMARK    2  A    between atoms: C_2  and  C_4
REMARK    3  A    between atoms: C_7  and  N_8
REMARK    4  A    between atoms: N_8  and  C_9
REMARK    5  A    between atoms: C_10  and  N_11
REMARK    6  A    between atoms: C_15  and  N_16
REMARK                            x       y       z     vdW  Elec       q    Type
REMARK                         _______ _______ _______ _____ _____    ______ ____
ROOT
ATOM      1  C   UNL     1       1.856   7.123  19.218  0.00  0.00    +0.000 A 
ATOM      2  C   UNL     1       1.506   6.456  20.424  0.00  0.00    +0.000 A 
ATOM      3  C   UNL     1       1.073   7.173  21.544  0.00  0.00    +0.000 A 
ATOM      4  C   UNL     1       0.883   8.545  21.424  0.00  0.00    +0.000 A 
ATOM      5  C   UNL     1       1.100   9.242  20.218  0.00  0.00    +0.000 A 
ATOM      6  C   UNL     1       0.723  10.591  20.007  0.00  0.00    +0.000 A 
ATOM      7  C   UNL     1       1.056  11.251  18.836  0.00  0.00    +0.000 A 
ATOM      8  C   UNL     1       1.779  10.548  17.910  0.00  0.00    +0.000 A 
ATOM      9  N   UNL     1       2.043   9.233  18.034  0.00  0.00    +0.000 NA
ATOM     10  C   UNL     1       1.686   8.544  19.140  0.00  0.00    +0.000 A 
ENDROOT
BRANCH   2  11
ATOM     11  N   UNL     1       1.592   4.988  20.557  0.00  0.00    +0.000 N 
ATOM     12  O   UNL     1       2.400   4.513  21.368  0.00  0.00    +0.000 OA
ATOM     13  O   UNL     1       0.852   4.304  19.835  0.00  0.00    +0.000 OA
ENDBRANCH   2  11
BRANCH   4  14
ATOM     14  N   UNL     1       0.508   9.276  22.633  0.00  0.00    +0.000 N 
ATOM     15  O   UNL     1       1.432   9.610  23.384  0.00  0.00    +0.000 OA
ATOM     16  O   UNL     1      -0.691   9.524  22.786  0.00  0.00    +0.000 OA
ENDBRANCH   4  14
BRANCH   1  17
ATOM     17  N   UNL     1       2.251   6.382  18.055  0.00  0.00    +0.000 N 
ATOM     18  H   UNL     1       1.563   5.684  17.755  0.00  0.00    +0.000 HD
BRANCH  17  22
ATOM     19  C   UNL     1       6.078   5.094  16.832  0.00  0.00    +0.000 A 
ATOM     20  C   UNL     1       5.771   6.458  16.816  0.00  0.00    +0.000 A 
ATOM     21  C   UNL     1       4.514   6.896  17.235  0.00  0.00    +0.000 A 
ATOM     22  C   UNL     1       3.540   5.980  17.647  0.00  0.00    +0.000 A 
ATOM     23  C   UNL     1       3.875   4.620  17.713  0.00  0.00    +0.000 A 
ATOM     24  C   UNL     1       5.137   4.174  17.307  0.00  0.00    +0.000 A 
BRANCH  19  26
ATOM     25  O   UNL     1       7.800   4.807  15.219  0.00  0.00    +0.000 OA
ATOM     26  C   UNL     1       7.424   4.680  16.372  0.00  0.00    +0.000 C 
BRANCH  26  27
ATOM     27  O   UNL     1       8.169   4.100  17.335  0.00  0.00    +0.000 OA
ATOM     28  H   UNL     1       8.246   3.132  17.267  0.00  0.00    +0.000 HD
ENDBRANCH  26  27
ENDBRANCH  19  26
ENDBRANCH  17  22
ENDBRANCH   1  17
TORSDOF 6
ENDMDL
MODEL 2
REMARK VINA RESULT:      -7.1      0.194      1.151
REMARK  Name = 
REMARK  6 active torsions:
REMARK  status: ('A' for Active; 'I' for Inactive)
REMARK    1  A    between atoms: C_2  and  O_3
REMARK    2  A    between atoms: C_2  and  C_4
REMARK    3  A    between atoms: C_7  and  N_8
REMARK    4  A    between atoms: N_8  and  C_9
REMARK    5  A    between atoms: C_10  and  N_11
REMARK    6  A    between atoms: C_15  and  N_16
REMARK                            x       y       z     vdW  Elec       q    Type
REMARK                         _______ _______ _______ _____ _____    ______ ____
ROOT
ATOM      1  C   UNL     1       1.860   7.116  19.262  0.00  0.00    +0.000 A 
ATOM      2  C   UNL     1       1.480   6.445  20.457  0.00  0.00    +0.000 A 
ATOM      3  C   UNL     1       1.010   7.158  21.564  0.00  0.00    +0.000 A 
ATOM      4  C   UNL     1       0.815   8.529  21.439  0.00  0.00    +0.000 A 
ATOM      5  C   UNL     1       1.062   9.228  20.241  0.00  0.00    +0.000 A 
ATOM      6  C   UNL     1       0.683  10.576  20.019  0.00  0.00    +0.000 A 
ATOM      7  C   UNL     1       1.046  11.238  18.858  0.00  0.00    +0.000 A 
ATOM      8  C   UNL     1       1.800  10.541  17.954  0.00  0.00    +0.000 A 
ATOM      9  N   UNL     1       2.069   9.227  18.085  0.00  0.00    +0.000 NA
ATOM     10  C   UNL     1       1.684   8.535  19.180  0.00  0.00    +0.000 A 
ENDROOT
BRANCH   2  11
ATOM     11  N   UNL     1       1.571   4.978  20.592  0.00  0.00    +0.000 N 
ATOM     12  O   UNL     1       2.404   4.506  21.379  0.00  0.00    +0.000 OA
ATOM     13  O   UNL     1       0.810   4.291  19.894  0.00  0.00    +0.000 OA
ENDBRANCH   2  11
BRANCH   4  14
ATOM     14  N   UNL     1       0.399   9.257  22.637  0.00  0.00    +0.000 N 
ATOM     15  O   UNL     1       1.301   9.619  23.402  0.00  0.00    +0.000 OA
ATOM     16  O   UNL     1      -0.808   9.475  22.768  0.00  0.00    +0.000 OA
ENDBRANCH   4  14
BRANCH   1  17
ATOM     17  N   UNL     1       2.294   6.378  18.110  0.00  0.00    +0.000 N 
ATOM     18  H   UNL     1       1.586   5.736  17.739  0.00  0.00    +0.000 HD
BRANCH  17  22
ATOM     19  C   UNL     1       6.175   5.027  17.154  0.00  0.00    +0.000 A 
ATOM     20  C   UNL     1       5.198   4.104  17.536  0.00  0.00    +0.000 A 
ATOM     21  C   UNL     1       3.906   4.538  17.837  0.00  0.00    +0.000 A 
ATOM     22  C   UNL     1       3.581   5.898  17.790  0.00  0.00    +0.000 A 
ATOM     23  C   UNL     1       4.551   6.810  17.351  0.00  0.00    +0.000 A 
ATOM     24  C   UNL     1       5.844   6.382  17.034  0.00  0.00    +0.000 A 
BRANCH  19  26
ATOM     25  O   UNL     1       8.305   4.132  17.710  0.00  0.00    +0.000 OA
ATOM     26  C   UNL     1       7.532   4.516  16.849  0.00  0.00    +0.000 C 
BRANCH  26  27
ATOM     27  O   UNL     1       7.847   4.568  15.539  0.00  0.00    +0.000 OA
ATOM     28  H   UNL     1       7.700   3.741  15.048  0.00  0.00    +0.000 HD
ENDBRANCH  26  27
ENDBRANCH  19  26
ENDBRANCH  17  22
ENDBRANCH   1  17
TORSDOF 6
ENDMDL
MODEL 3
REMARK VINA RESULT:      -7.1      0.150      1.074
REMARK  Name = 
REMARK  6 active torsions:
REMARK  status: ('A' for Active; 'I' for Inactive)
REMARK    1  A    between atoms: C_2  and  O_3
REMARK    2  A    between atoms: C_2  and  C_4
REMARK    3  A    between atoms: C_7  and  N_8
REMARK    4  A    between atoms: N_8  and  C_9
REMARK    5  A    between atoms: C_10  and  N_11
REMARK    6  A    between atoms: C_15  and  N_16
REMARK                            x       y       z     vdW  Elec       q    Type
REMARK                         _______ _______ _______ _____ _____    ______ ____
ROOT
ATOM      1  C   UNL     1       1.857   7.188  19.265  0.00  0.00    +0.000 A 
ATOM      2  C   UNL     1       1.469   6.532  20.465  0.00  0.00    +0.000 A 
ATOM      3  C   UNL     1       1.008   7.259  21.567  0.00  0.00    +0.000 A 
ATOM      4  C   UNL     1       0.830   8.631  21.431  0.00  0.00    +0.000 A 
ATOM      5  C   UNL     1       1.085   9.318  20.228  0.00  0.00    +0.000 A 
ATOM      6  C   UNL     1       0.723  10.669  19.996  0.00  0.00    +0.000 A 
ATOM      7  C   UNL     1       1.095  11.318  18.831  0.00  0.00    +0.000 A 
ATOM      8  C   UNL     1       1.840  10.604  17.931  0.00  0.00    +0.000 A 
ATOM      9  N   UNL     1       2.092   9.288  18.072  0.00  0.00    +0.000 NA
ATOM     10  C   UNL     1       1.699   8.610  19.173  0.00  0.00    +0.000 A 
ENDROOT
BRANCH   2  11
ATOM     11  N   UNL     1       1.541   5.064  20.611  0.00  0.00    +0.000 N 
ATOM     12  O   UNL     1       0.723   4.367  19.994  0.00  0.00    +0.000 OA
ATOM     13  O   UNL     1       2.416   4.606  21.360  0.00  0.00    +0.000 OA
ENDBRANCH   2  11
BRANCH   4  14
ATOM     14  N   UNL     1       0.424   9.374  22.625  0.00  0.00    +0.000 N 
ATOM     15  O   UNL     1      -0.770   9.686  22.699  0.00  0.00    +0.000 OA
ATOM     16  O   UNL     1       1.297   9.598  23.466  0.00  0.00    +0.000 OA
ENDBRANCH   4  14
BRANCH   1  17
ATOM     17  N   UNL     1       2.281   6.437  18.119  0.00  0.00    +0.000 N 
ATOM     18  H   UNL     1       1.591   5.752  17.794  0.00  0.00    +0.000 HD
BRANCH  17  22
ATOM     19  C   UNL     1       6.127   5.068  17.053  0.00  0.00    +0.000 A 
ATOM     20  C   UNL     1       5.814   6.423  16.914  0.00  0.00    +0.000 A 
ATOM     21  C   UNL     1       4.551   6.889  17.281  0.00  0.00    +0.000 A 
ATOM     22  C   UNL     1       3.576   6.008  17.761  0.00  0.00    +0.000 A 
ATOM     23  C   UNL     1       3.917   4.661  17.950  0.00  0.00    +0.000 A 
ATOM     24  C   UNL     1       5.186   4.188  17.598  0.00  0.00    +0.000 A 
BRANCH  19  26
ATOM     25  O   UNL     1       8.283   4.139  17.426  0.00  0.00    +0.000 OA
ATOM     26  C   UNL     1       7.481   4.623  16.646  0.00  0.00    +0.000 C 
BRANCH  26  27
ATOM     27  O   UNL     1       7.758   4.856  15.347  0.00  0.00    +0.000 OA
ATOM     28  H   UNL     1       8.159   5.724  15.162  0.00  0.00    +0.000 HD
ENDBRANCH  26  27
ENDBRANCH  19  26
ENDBRANCH  17  22
ENDBRANCH   1  17
TORSDOF 6
ENDMDL
MODEL 4
REMARK VINA RESULT:      -7.1      3.765      6.147
REMARK  Name = 
REMARK  6 active torsions:
REMARK  status: ('A' for Active; 'I' for Inactive)
REMARK    1  A    between atoms: C_2  and  O_3
REMARK    2  A    between atoms: C_2  and  C_4
REMARK    3  A    between atoms: C_7  and  N_8
REMARK    4  A    between atoms: N_8  and  C_9
REMARK    5  A    between atoms: C_10  and  N_11
REMARK    6  A    between atoms: C_15  and  N_16
REMARK                            x       y       z     vdW  Elec       q    Type
REMARK                         _______ _______ _______ _____ _____    ______ ____
ROOT
ATOM      1  C   UNL     1      -0.991  11.812  19.517  0.00  0.00    +0.000 A 
ATOM      2  C   UNL     1      -1.296  12.235  20.840  0.00  0.00    +0.000 A 
ATOM      3  C   UNL     1      -2.599  12.597  21.198  0.00  0.00    +0.000 A 
ATOM      4  C   UNL     1      -3.617  12.429  20.265  0.00  0.00    +0.000 A 
ATOM      5  C   UNL     1      -3.392  11.902  18.978  0.00  0.00    +0.000 A 
ATOM      6  C   UNL     1      -4.427  11.529  18.085  0.00  0.00    +0.000 A 
ATOM      7  C   UNL     1      -4.141  11.114  16.795  0.00  0.00    +0.000 A 
ATOM      8  C   UNL     1      -2.825  11.102  16.422  0.00  0.00    +0.000 A 
ATOM      9  N   UNL     1      -1.818  11.333  17.287  0.00  0.00    +0.000 NA
ATOM     10  C   UNL     1      -2.058  11.689  18.568  0.00  0.00    +0.000 A 
ENDROOT
BRANCH   2  11
ATOM     11  N   UNL     1      -0.262  12.324  21.890  0.00  0.00    +0.000 N 
ATOM     12  O   UNL     1      -0.467  11.757  22.972  0.00  0.00    +0.000 OA
ATOM     13  O   UNL     1       0.760  12.977  21.633  0.00  0.00    +0.000 OA
ENDBRANCH   2  11
BRANCH   4  14
ATOM     14  N   UNL     1      -4.952  12.891  20.643  0.00  0.00    +0.000 N 
ATOM     15  O   UNL     1      -5.636  12.109  21.314  0.00  0.00    +0.000 OA
ATOM     16  O   UNL     1      -5.270  14.028  20.288  0.00  0.00    +0.000 OA
ENDBRANCH   4  14
BRANCH   1  17
ATOM     17  N   UNL     1       0.335  11.394  19.166  0.00  0.00    +0.000 N 
ATOM     18  H   UNL     1       0.725  11.889  18.358  0.00  0.00    +0.000 HD
BRANCH  17  22
ATOM     19  C   UNL     1       2.142   7.588  19.387  0.00  0.00    +0.000 A 
ATOM     20  C   UNL     1       1.506   8.116  20.514  0.00  0.00    +0.000 A 
ATOM     21  C   UNL     1       0.889   9.366  20.446  0.00  0.00    +0.000 A 
ATOM     22  C   UNL     1       0.925  10.117  19.266  0.00  0.00    +0.000 A 
ATOM     23  C   UNL     1       1.516   9.555  18.125  0.00  0.00    +0.000 A 
ATOM     24  C   UNL     1       2.124   8.297  18.181  0.00  0.00    +0.000 A 
BRANCH  19  26
ATOM     25  O   UNL     1       3.397   5.729  18.600  0.00  0.00    +0.000 OA
ATOM     26  C   UNL     1       2.785   6.258  19.512  0.00  0.00    +0.000 C 
BRANCH  26  27
ATOM     27  O   UNL     1       2.582   5.670  20.708  0.00  0.00    +0.000 OA
ATOM     28  H   UNL     1       1.661   5.691  21.023  0.00  0.00    +0.000 HD
ENDBRANCH  26  27
ENDBRANCH  19  26
ENDBRANCH  17  22
ENDBRANCH   1  17
TORSDOF 6
ENDMDL
MODEL 5
REMARK VINA RESULT:      -6.8      3.730      6.082
REMARK  Name = 
REMARK  6 active torsions:
REMARK  status: ('A' for Active; 'I' for Inactive)
REMARK    1  A    between atoms: C_2  and  O_3
REMARK    2  A    between atoms: C_2  and  C_4
REMARK    3  A    between atoms: C_7  and  N_8
REMARK    4  A    between atoms: N_8  and  C_9
REMARK    5  A    between atoms: C_10  and  N_11
REMARK    6  A    between atoms: C_15  and  N_16
REMARK                            x       y       z     vdW  Elec       q    Type
REMARK                         _______ _______ _______ _____ _____    ______ ____
ROOT
ATOM      1  C   UNL     1      -0.927  11.842  19.516  0.00  0.00    +0.000 A 
ATOM      2  C   UNL     1      -1.255  12.248  20.839  0.00  0.00    +0.000 A 
ATOM      3  C   UNL     1      -2.569  12.574  21.188  0.00  0.00    +0.000 A 
ATOM      4  C   UNL     1      -3.574  12.387  20.244  0.00  0.00    +0.000 A 
ATOM      5  C   UNL     1      -3.324  11.874  18.956  0.00  0.00    +0.000 A 
ATOM      6  C   UNL     1      -4.342  11.482  18.051  0.00  0.00    +0.000 A 
ATOM      7  C   UNL     1      -4.034  11.084  16.760  0.00  0.00    +0.000 A 
ATOM      8  C   UNL     1      -2.714  11.107  16.399  0.00  0.00    +0.000 A 
ATOM      9  N   UNL     1      -1.722  11.358  17.275  0.00  0.00    +0.000 NA
ATOM     10  C   UNL     1      -1.982  11.698  18.557  0.00  0.00    +0.000 A 
ENDROOT
BRANCH   2  11
ATOM     11  N   UNL     1      -0.233  12.356  21.898  0.00  0.00    +0.000 N 
ATOM     12  O   UNL     1       0.810  12.980  21.655  0.00  0.00    +0.000 OA
ATOM     13  O   UNL     1      -0.469  11.799  22.980  0.00  0.00    +0.000 OA
ENDBRANCH   2  11
BRANCH   4  14
ATOM     14  N   UNL     1      -4.924  12.812  20.613  0.00  0.00    +0.000 N 
ATOM     15  O   UNL     1      -5.581  12.023  21.302  0.00  0.00    +0.000 OA
ATOM     16  O   UNL     1      -5.280  13.930  20.233  0.00  0.00    +0.000 OA
ENDBRANCH   4  14
BRANCH   1  17
ATOM     17  N   UNL     1       0.412  11.460  19.174  0.00  0.00    +0.000 N 
ATOM     18  H   UNL     1       0.845  12.059  18.464  0.00  0.00    +0.000 HD
BRANCH  17  22
ATOM     19  C   UNL     1       2.096   7.592  19.093  0.00  0.00    +0.000 A 
ATOM     20  C   UNL     1       2.137   8.387  17.944  0.00  0.00    +0.000 A 
ATOM     21  C   UNL     1       1.599   9.674  17.965  0.00  0.00    +0.000 A 
ATOM     22  C   UNL     1       0.988  10.174  19.121  0.00  0.00    +0.000 A 
ATOM     23  C   UNL     1       1.002   9.392  20.284  0.00  0.00    +0.000 A 
ATOM     24  C   UNL     1       1.551   8.106  20.276  0.00  0.00    +0.000 A 
BRANCH  19  26
ATOM     25  O   UNL     1       3.614   5.870  19.709  0.00  0.00    +0.000 OA
ATOM     26  C   UNL     1       2.677   6.231  19.018  0.00  0.00    +0.000 C 
BRANCH  26  27
ATOM     27  O   UNL     1       2.107   5.452  18.076  0.00  0.00    +0.000 OA
ATOM     28  H   UNL     1       1.167   5.249  18.226  0.00  0.00    +0.000 HD
ENDBRANCH  26  27
ENDBRANCH  19  26
ENDBRANCH  17  22
ENDBRANCH   1  17
TORSDOF 6
ENDMDL
MODEL 6
REMARK VINA RESULT:      -6.7      3.153      4.521
REMARK  Name = 
REMARK  6 active torsions:
REMARK  status: ('A' for Active; 'I' for Inactive)
REMARK    1  A    between atoms: C_2  and  O_3
REMARK    2  A    between atoms: C_2  and  C_4
REMARK    3  A    between atoms: C_7  and  N_8
REMARK    4  A    between atoms: N_8  and  C_9
REMARK    5  A    between atoms: C_10  and  N_11
REMARK    6  A    between atoms: C_15  and  N_16
REMARK                            x       y       z     vdW  Elec       q    Type
REMARK                         _______ _______ _______ _____ _____    ______ ____
ROOT
ATOM      1  C   UNL     1       1.287   8.551  20.170  0.00  0.00    +0.000 A 
ATOM      2  C   UNL     1       1.277   8.979  18.814  0.00  0.00    +0.000 A 
ATOM      3  C   UNL     1       0.427  10.004  18.389  0.00  0.00    +0.000 A 
ATOM      4  C   UNL     1      -0.332  10.678  19.340  0.00  0.00    +0.000 A 
ATOM      5  C   UNL     1      -0.273  10.376  20.715  0.00  0.00    +0.000 A 
ATOM      6  C   UNL     1      -0.872  11.170  21.725  0.00  0.00    +0.000 A 
ATOM      7  C   UNL     1      -0.866  10.764  23.049  0.00  0.00    +0.000 A 
ATOM      8  C   UNL     1      -0.279   9.560  23.329  0.00  0.00    +0.000 A 
ATOM      9  N   UNL     1       0.401   8.848  22.410  0.00  0.00    +0.000 NA
ATOM     10  C   UNL     1       0.462   9.241  21.118  0.00  0.00    +0.000 A 
ENDROOT
BRANCH   2  11
ATOM     11  N   UNL     1       2.147   8.361  17.794  0.00  0.00    +0.000 N 
ATOM     12  O   UNL     1       1.833   7.251  17.341  0.00  0.00    +0.000 OA
ATOM     13  O   UNL     1       3.161   8.987  17.452  0.00  0.00    +0.000 OA
ENDBRANCH   2  11
BRANCH   4  14
ATOM     14  N   UNL     1      -1.269  11.689  18.854  0.00  0.00    +0.000 N 
ATOM     15  O   UNL     1      -0.804  12.815  18.643  0.00  0.00    +0.000 OA
ATOM     16  O   UNL     1      -2.433  11.327  18.666  0.00  0.00    +0.000 OA
ENDBRANCH   4  14
BRANCH   1  17
ATOM     17  N   UNL     1       2.196   7.534  20.614  0.00  0.00    +0.000 N 
ATOM     18  H   UNL     1       3.128   7.887  20.853  0.00  0.00    +0.000 HD
BRANCH  17  22
ATOM     19  C   UNL     1       2.389   3.490  19.426  0.00  0.00    +0.000 A 
ATOM     20  C   UNL     1       3.515   4.306  19.284  0.00  0.00    +0.000 A 
ATOM     21  C   UNL     1       3.468   5.640  19.690  0.00  0.00    +0.000 A 
ATOM     22  C   UNL     1       2.291   6.185  20.215  0.00  0.00    +0.000 A 
ATOM     23  C   UNL     1       1.184   5.345  20.406  0.00  0.00    +0.000 A 
ATOM     24  C   UNL     1       1.228   4.004  20.014  0.00  0.00    +0.000 A 
BRANCH  19  26
ATOM     25  O   UNL     1       3.555   1.526  18.771  0.00  0.00    +0.000 OA
ATOM     26  C   UNL     1       2.490   2.082  18.975  0.00  0.00    +0.000 C 
BRANCH  26  27
ATOM     27  O   UNL     1       1.294   1.497  18.759  0.00  0.00    +0.000 OA
ATOM     28  H   UNL     1       1.292   0.813  18.067  0.00  0.00    +0.000 HD
ENDBRANCH  26  27
ENDBRANCH  19  26
ENDBRANCH  17  22
ENDBRANCH   1  17
TORSDOF 6
ENDMDL
MODEL 7
REMARK VINA RESULT:      -6.5      3.758      6.205
REMARK  Name = 
REMARK  6 active torsions:
REMARK  status: ('A' for Active; 'I' for Inactive)
REMARK    1  A    between atoms: C_2  and  O_3
REMARK    2  A    between atoms: C_2  and  C_4
REMARK    3  A    between atoms: C_7  and  N_8
REMARK    4  A    between atoms: N_8  and  C_9
REMARK    5  A    between atoms: C_10  and  N_11
REMARK    6  A    between atoms: C_15  and  N_16
REMARK                            x       y       z     vdW  Elec       q    Type
REMARK                         _______ _______ _______ _____ _____    ______ ____
ROOT
ATOM      1  C   UNL     1       5.718   6.204  17.309  0.00  0.00    +0.000 A 
ATOM      2  C   UNL     1       6.171   4.857  17.320  0.00  0.00    +0.000 A 
ATOM      3  C   UNL     1       5.334   3.818  17.740  0.00  0.00    +0.000 A 
ATOM      4  C   UNL     1       4.009   4.114  18.044  0.00  0.00    +0.000 A 
ATOM      5  C   UNL     1       3.474   5.412  17.937  0.00  0.00    +0.000 A 
ATOM      6  C   UNL     1       2.092   5.708  18.040  0.00  0.00    +0.000 A 
ATOM      7  C   UNL     1       1.639   7.017  18.029  0.00  0.00    +0.000 A 
ATOM      8  C   UNL     1       2.585   8.002  17.937  0.00  0.00    +0.000 A 
ATOM      9  N   UNL     1       3.888   7.745  17.716  0.00  0.00    +0.000 NA
ATOM     10  C   UNL     1       4.358   6.479  17.667  0.00  0.00    +0.000 A 
ENDROOT
BRANCH   2  11
ATOM     11  N   UNL     1       7.538   4.489  16.901  0.00  0.00    +0.000 N 
ATOM     12  O   UNL     1       8.336   4.095  17.764  0.00  0.00    +0.000 OA
ATOM     13  O   UNL     1       7.821   4.607  15.700  0.00  0.00    +0.000 OA
ENDBRANCH   2  11
BRANCH   4  14
ATOM     14  N   UNL     1       3.182   3.022  18.557  0.00  0.00    +0.000 N 
ATOM     15  O   UNL     1       3.080   2.938  19.786  0.00  0.00    +0.000 OA
ATOM     16  O   UNL     1       2.633   2.298  17.722  0.00  0.00    +0.000 OA
ENDBRANCH   4  14
BRANCH   1  17
ATOM     17  N   UNL     1       6.563   7.261  16.830  0.00  0.00    +0.000 N 
ATOM     18  H   UNL     1       6.976   7.076  15.910  0.00  0.00    +0.000 HD
BRANCH  17  22
ATOM     19  C   UNL     1       9.015   9.947  18.967  0.00  0.00    +0.000 A 
ATOM     20  C   UNL     1       9.061   8.583  19.267  0.00  0.00    +0.000 A 
ATOM     21  C   UNL     1       8.267   7.684  18.554  0.00  0.00    +0.000 A 
ATOM     22  C   UNL     1       7.398   8.135  17.555  0.00  0.00    +0.000 A 
ATOM     23  C   UNL     1       7.400   9.497  17.223  0.00  0.00    +0.000 A 
ATOM     24  C   UNL     1       8.202  10.404  17.923  0.00  0.00    +0.000 A 
BRANCH  19  26
ATOM     25  O   UNL     1      10.792  11.497  19.266  0.00  0.00    +0.000 OA
ATOM     26  C   UNL     1       9.874  10.862  19.756  0.00  0.00    +0.000 C 
BRANCH  26  27
ATOM     27  O   UNL     1       9.579  10.880  21.071  0.00  0.00    +0.000 OA
ATOM     28  H   UNL     1       9.774  11.719  21.524  0.00  0.00    +0.000 HD
ENDBRANCH  26  27
ENDBRANCH  19  26
ENDBRANCH  17  22
ENDBRANCH   1  17
TORSDOF 6
ENDMDL
MODEL 8
REMARK VINA RESULT:      -6.5      5.484     10.493
REMARK  Name = 
REMARK  6 active torsions:
REMARK  status: ('A' for Active; 'I' for Inactive)
REMARK    1  A    between atoms: C_2  and  O_3
REMARK    2  A    between atoms: C_2  and  C_4
REMARK    3  A    between atoms: C_7  and  N_8
REMARK    4  A    between atoms: N_8  and  C_9
REMARK    5  A    between atoms: C_10  and  N_11
REMARK    6  A    between atoms: C_15  and  N_16
REMARK                            x       y       z     vdW  Elec       q    Type
REMARK                         _______ _______ _______ _____ _____    ______ ____
ROOT
ATOM      1  C   UNL     1      -1.897  12.447  19.783  0.00  0.00    +0.000 A 
ATOM      2  C   UNL     1      -0.579  12.567  20.302  0.00  0.00    +0.000 A 
ATOM      3  C   UNL     1       0.432  11.683  19.913  0.00  0.00    +0.000 A 
ATOM      4  C   UNL     1       0.154  10.748  18.922  0.00  0.00    +0.000 A 
ATOM      5  C   UNL     1      -1.101  10.661  18.287  0.00  0.00    +0.000 A 
ATOM      6  C   UNL     1      -1.354   9.864  17.143  0.00  0.00    +0.000 A 
ATOM      7  C   UNL     1      -2.633   9.741  16.627  0.00  0.00    +0.000 A 
ATOM      8  C   UNL     1      -3.636  10.402  17.284  0.00  0.00    +0.000 A 
ATOM      9  N   UNL     1      -3.404  11.258  18.297  0.00  0.00    +0.000 NA
ATOM     10  C   UNL     1      -2.160  11.445  18.792  0.00  0.00    +0.000 A 
ENDROOT
BRANCH   2  11
ATOM     11  N   UNL     1      -0.216  13.616  21.276  0.00  0.00    +0.000 N 
ATOM     12  O   UNL     1      -0.006  13.285  22.452  0.00  0.00    +0.000 OA
ATOM     13  O   UNL     1      -0.154  14.783  20.864  0.00  0.00    +0.000 OA
ENDBRANCH   2  11
BRANCH   4  14
ATOM     14  N   UNL     1       1.207   9.787  18.596  0.00  0.00    +0.000 N 
ATOM     15  O   UNL     1       1.320   8.815  19.353  0.00  0.00    +0.000 OA
ATOM     16  O   UNL     1       1.870  10.009  17.580  0.00  0.00    +0.000 OA
ENDBRANCH   4  14
BRANCH   1  17
ATOM     17  N   UNL     1      -2.920  13.386  20.144  0.00  0.00    +0.000 N 
ATOM     18  H   UNL     1      -2.608  14.362  20.132  0.00  0.00    +0.000 HD
BRANCH  17  22
ATOM     19  C   UNL     1      -6.040  12.970  22.954  0.00  0.00    +0.000 A 
ATOM     20  C   UNL     1      -6.345  13.078  21.594  0.00  0.00    +0.000 A 
ATOM     21  C   UNL     1      -5.320  13.197  20.655  0.00  0.00    +0.000 A 
ATOM     22  C   UNL     1      -3.981  13.241  21.061  0.00  0.00    +0.000 A 
ATOM     23  C   UNL     1      -3.682  13.076  22.421  0.00  0.00    +0.000 A 
ATOM     24  C   UNL     1      -4.703  12.942  23.367  0.00  0.00    +0.000 A 
BRANCH  19  26
ATOM     25  O   UNL     1      -7.917  11.890  23.934  0.00  0.00    +0.000 OA
ATOM     26  C   UNL     1      -7.164  12.849  23.911  0.00  0.00    +0.000 C 
BRANCH  26  27
ATOM     27  O   UNL     1      -7.308  13.924  24.713  0.00  0.00    +0.000 OA
ATOM     28  H   UNL     1      -8.104  14.458  24.544  0.00  0.00    +0.000 HD
ENDBRANCH  26  27
ENDBRANCH  19  26
ENDBRANCH  17  22
ENDBRANCH   1  17
TORSDOF 6
ENDMDL
MODEL 9
REMARK VINA RESULT:      -6.5      2.769      7.143
REMARK  Name = 
REMARK  6 active torsions:
REMARK  status: ('A' for Active; 'I' for Inactive)
REMARK    1  A    between atoms: C_2  and  O_3
REMARK    2  A    between atoms: C_2  and  C_4
REMARK    3  A    between atoms: C_7  and  N_8
REMARK    4  A    between atoms: N_8  and  C_9
REMARK    5  A    between atoms: C_10  and  N_11
REMARK    6  A    between atoms: C_15  and  N_16
REMARK                            x       y       z     vdW  Elec       q    Type
REMARK                         _______ _______ _______ _____ _____    ______ ____
ROOT
ATOM      1  C   UNL     1       3.584   5.200  18.541  0.00  0.00    +0.000 A 
ATOM      2  C   UNL     1       4.965   4.956  18.772  0.00  0.00    +0.000 A 
ATOM      3  C   UNL     1       5.402   3.747  19.323  0.00  0.00    +0.000 A 
ATOM      4  C   UNL     1       4.468   2.740  19.540  0.00  0.00    +0.000 A 
ATOM      5  C   UNL     1       3.104   2.882  19.218  0.00  0.00    +0.000 A 
ATOM      6  C   UNL     1       2.172   1.815  19.235  0.00  0.00    +0.000 A 
ATOM      7  C   UNL     1       0.824   2.040  19.009  0.00  0.00    +0.000 A 
ATOM      8  C   UNL     1       0.437   3.335  18.793  0.00  0.00    +0.000 A 
ATOM      9  N   UNL     1       1.315   4.346  18.652  0.00  0.00    +0.000 NA
ATOM     10  C   UNL     1       2.643   4.153  18.813  0.00  0.00    +0.000 A 
ENDROOT
BRANCH   2  11
ATOM     11  N   UNL     1       5.999   5.961  18.455  0.00  0.00    +0.000 N 
ATOM     12  O   UNL     1       5.844   6.676  17.455  0.00  0.00    +0.000 OA
ATOM     13  O   UNL     1       6.983   6.028  19.207  0.00  0.00    +0.000 OA
ENDBRANCH   2  11
BRANCH   4  14
ATOM     14  N   UNL     1       4.942   1.519  20.191  0.00  0.00    +0.000 N 
ATOM     15  O   UNL     1       5.227   1.609  21.391  0.00  0.00    +0.000 OA
ATOM     16  O   UNL     1       4.987   0.499  19.499  0.00  0.00    +0.000 OA
ENDBRANCH   4  14
BRANCH   1  17
ATOM     17  N   UNL     1       3.144   6.420  17.928  0.00  0.00    +0.000 N 
ATOM     18  H   UNL     1       3.774   6.768  17.199  0.00  0.00    +0.000 HD
BRANCH  17  22
ATOM     19  C   UNL     1       1.056   9.624  19.711  0.00  0.00    +0.000 A 
ATOM     20  C   UNL     1       1.314   9.647  18.337  0.00  0.00    +0.000 A 
ATOM     21  C   UNL     1       1.988   8.585  17.735  0.00  0.00    +0.000 A 
ATOM     22  C   UNL     1       2.439   7.501  18.497  0.00  0.00    +0.000 A 
ATOM     23  C   UNL     1       2.127   7.459  19.863  0.00  0.00    +0.000 A 
ATOM     24  C   UNL     1       1.440   8.514  20.472  0.00  0.00    +0.000 A 
BRANCH  19  26
ATOM     25  O   UNL     1      -0.710  11.208  19.858  0.00  0.00    +0.000 OA
ATOM     26  C   UNL     1       0.341  10.779  20.303  0.00  0.00    +0.000 C 
BRANCH  26  27
ATOM     27  O   UNL     1       0.991  11.341  21.342  0.00  0.00    +0.000 OA
ATOM     28  H   UNL     1       1.946  11.155  21.378  0.00  0.00    +0.000 HD
ENDBRANCH  26  27
ENDBRANCH  19  26
ENDBRANCH  17  22
ENDBRANCH   1  17
TORSDOF 6
ENDMDL
