MODEL 1
REMARK VINA RESULT:      -7.4      0.000      0.000
REMARK  Name = 
REMARK  10 active torsions:
REMARK  status: ('A' for Active; 'I' for Inactive)
REMARK    1  A    between atoms: C_1  and  C_2
REMARK    2  A    between atoms: C_2  and  N_3
REMARK    3  A    between atoms: N_3  and  C_4
REMARK    4  A    between atoms: N_3  and  C_6
REMARK    5  A    between atoms: C_4  and  C_5
REMARK    6  A    between atoms: C_6  and  C_7
REMARK    7  A    between atoms: C_7  and  C_8
REMARK    8  A    between atoms: C_8  and  N_9
REMARK    9  A    between atoms: N_9  and  C_10
REMARK   10  A    between atoms: C_12  and  C_13
REMARK                            x       y       z     vdW  Elec       q    Type
REMARK                         _______ _______ _______ _____ _____    ______ ____
ROOT
ATOM      1  C   UNL     1       2.702   6.358  19.788  0.00  0.00    +0.000 A 
ATOM      2  N   UNL     1       3.620   5.747  19.018  0.00  0.00    +0.000 NA
ATOM      3  C   UNL     1       4.014   6.373  17.898  0.00  0.00    +0.000 A 
ATOM      4  N   UNL     1       3.540   7.558  17.482  0.00  0.00    +0.000 NA
ATOM      5  C   UNL     1       2.626   8.160  18.245  0.00  0.00    +0.000 A 
ATOM      6  C   UNL     1       2.157   9.400  17.839  0.00  0.00    +0.000 A 
ATOM      7  C   UNL     1       1.231  10.124  18.592  0.00  0.00    +0.000 A 
ATOM      8  C   UNL     1       0.745   9.589  19.776  0.00  0.00    +0.000 A 
ATOM      9  C   UNL     1       1.184   8.333  20.189  0.00  0.00    +0.000 A 
ATOM     10  C   UNL     1       2.143   7.603  19.435  0.00  0.00    +0.000 A 
ENDROOT
BRANCH   3  11
ATOM     11  C   UNL     1       5.085   5.752  17.092  0.00  0.00    +0.000 A 
ATOM     12  C   UNL     1       6.176   5.091  17.689  0.00  0.00    +0.000 A 
ATOM     13  C   UNL     1       7.207   4.541  16.918  0.00  0.00    +0.000 A 
ATOM     14  C   UNL     1       7.168   4.638  15.530  0.00  0.00    +0.000 A 
ATOM     15  C   UNL     1       6.100   5.276  14.909  0.00  0.00    +0.000 A 
ATOM     16  C   UNL     1       5.072   5.819  15.683  0.00  0.00    +0.000 A 
ENDBRANCH   3  11
BRANCH   1  17
ATOM     17  N   UNL     1       2.242   5.686  20.948  0.00  0.00    +0.000 N 
ATOM     18  H   UNL     1       3.034   5.250  21.408  0.00  0.00    +0.000 HD
BRANCH  17  19
ATOM     19  C   UNL     1       1.218   4.669  20.677  0.00  0.00    +0.000 C 
BRANCH  19  20
ATOM     20  C   UNL     1       1.804   3.290  20.987  0.00  0.00    +0.000 C 
BRANCH  20  21
ATOM     21  C   UNL     1       1.733   2.326  19.796  0.00  0.00    +0.000 C 
BRANCH  21  22
ATOM     22  N   UNL     1       3.037   1.859  19.284  0.00  0.00    +0.000 NA
BRANCH  22  24
ATOM     23  C   UNL     1       2.357   3.171  17.235  0.00  0.00    +0.000 C 
ATOM     24  C   UNL     1       3.153   2.009  17.824  0.00  0.00    +0.000 C 
ENDBRANCH  22  24
BRANCH  22  25
ATOM     25  C   UNL     1       4.154   2.459  20.039  0.00  0.00    +0.000 C 
ATOM     26  C   UNL     1       5.069   1.486  20.779  0.00  0.00    +0.000 C 
ENDBRANCH  22  25
ENDBRANCH  21  22
ENDBRANCH  20  21
ENDBRANCH  19  20
ENDBRANCH  17  19
ENDBRANCH   1  17
TORSDOF 8
ENDMDL
MODEL 2
REMARK VINA RESULT:      -7.3      0.879      1.210
REMARK  Name = 
REMARK  10 active torsions:
REMARK  status: ('A' for Active; 'I' for Inactive)
REMARK    1  A    between atoms: C_1  and  C_2
REMARK    2  A    between atoms: C_2  and  N_3
REMARK    3  A    between atoms: N_3  and  C_4
REMARK    4  A    between atoms: N_3  and  C_6
REMARK    5  A    between atoms: C_4  and  C_5
REMARK    6  A    between atoms: C_6  and  C_7
REMARK    7  A    between atoms: C_7  and  C_8
REMARK    8  A    between atoms: C_8  and  N_9
REMARK    9  A    between atoms: N_9  and  C_10
REMARK   10  A    between atoms: C_12  and  C_13
REMARK                            x       y       z     vdW  Elec       q    Type
REMARK                         _______ _______ _______ _____ _____    ______ ____
ROOT
ATOM      1  C   UNL     1       2.414   6.623  19.877  0.00  0.00    +0.000 A 
ATOM      2  N   UNL     1       3.331   5.970  19.140  0.00  0.00    +0.000 NA
ATOM      3  C   UNL     1       3.768   6.562  18.018  0.00  0.00    +0.000 A 
ATOM      4  N   UNL     1       3.339   7.752  17.569  0.00  0.00    +0.000 NA
ATOM      5  C   UNL     1       2.427   8.396  18.299  0.00  0.00    +0.000 A 
ATOM      6  C   UNL     1       2.006   9.641  17.859  0.00  0.00    +0.000 A 
ATOM      7  C   UNL     1       1.085  10.406  18.576  0.00  0.00    +0.000 A 
ATOM      8  C   UNL     1       0.557   9.910  19.759  0.00  0.00    +0.000 A 
ATOM      9  C   UNL     1       0.949   8.650  20.206  0.00  0.00    +0.000 A 
ATOM     10  C   UNL     1       1.902   7.877  19.488  0.00  0.00    +0.000 A 
ENDROOT
BRANCH   3  11
ATOM     11  C   UNL     1       4.837   5.893  17.249  0.00  0.00    +0.000 A 
ATOM     12  C   UNL     1       4.625   4.665  16.593  0.00  0.00    +0.000 A 
ATOM     13  C   UNL     1       5.656   4.019  15.901  0.00  0.00    +0.000 A 
ATOM     14  C   UNL     1       6.925   4.588  15.848  0.00  0.00    +0.000 A 
ATOM     15  C   UNL     1       7.166   5.805  16.478  0.00  0.00    +0.000 A 
ATOM     16  C   UNL     1       6.132   6.447  17.163  0.00  0.00    +0.000 A 
ENDBRANCH   3  11
BRANCH   1  17
ATOM     17  N   UNL     1       1.909   5.988  21.039  0.00  0.00    +0.000 N 
ATOM     18  H   UNL     1       2.076   6.590  21.839  0.00  0.00    +0.000 HD
BRANCH  17  19
ATOM     19  C   UNL     1       2.496   4.667  21.296  0.00  0.00    +0.000 C 
BRANCH  19  20
ATOM     20  C   UNL     1       1.400   3.609  21.161  0.00  0.00    +0.000 C 
BRANCH  20  21
ATOM     21  C   UNL     1       1.935   2.243  20.712  0.00  0.00    +0.000 C 
BRANCH  21  22
ATOM     22  N   UNL     1       1.767   1.941  19.277  0.00  0.00    +0.000 NA
BRANCH  22  24
ATOM     23  C   UNL     1       1.348   3.761  17.575  0.00  0.00    +0.000 C 
ATOM     24  C   UNL     1       0.776   2.818  18.632  0.00  0.00    +0.000 C 
ENDBRANCH  22  24
BRANCH  22  25
ATOM     25  C   UNL     1       3.068   1.895  18.584  0.00  0.00    +0.000 C 
ATOM     26  C   UNL     1       4.297   2.223  19.430  0.00  0.00    +0.000 C 
ENDBRANCH  22  25
ENDBRANCH  21  22
ENDBRANCH  20  21
ENDBRANCH  19  20
ENDBRANCH  17  19
ENDBRANCH   1  17
TORSDOF 8
ENDMDL
MODEL 3
REMARK VINA RESULT:      -7.3      0.621      1.634
REMARK  Name = 
REMARK  10 active torsions:
REMARK  status: ('A' for Active; 'I' for Inactive)
REMARK    1  A    between atoms: C_1  and  C_2
REMARK    2  A    between atoms: C_2  and  N_3
REMARK    3  A    between atoms: N_3  and  C_4
REMARK    4  A    between atoms: N_3  and  C_6
REMARK    5  A    between atoms: C_4  and  C_5
REMARK    6  A    between atoms: C_6  and  C_7
REMARK    7  A    between atoms: C_7  and  C_8
REMARK    8  A    between atoms: C_8  and  N_9
REMARK    9  A    between atoms: N_9  and  C_10
REMARK   10  A    between atoms: C_12  and  C_13
REMARK                            x       y       z     vdW  Elec       q    Type
REMARK                         _______ _______ _______ _____ _____    ______ ____
ROOT
ATOM      1  C   UNL     1       2.595   6.518  19.964  0.00  0.00    +0.000 A 
ATOM      2  N   UNL     1       3.541   5.877  19.254  0.00  0.00    +0.000 NA
ATOM      3  C   UNL     1       3.944   6.434  18.102  0.00  0.00    +0.000 A 
ATOM      4  N   UNL     1       3.453   7.577  17.597  0.00  0.00    +0.000 NA
ATOM      5  C   UNL     1       2.512   8.209  18.300  0.00  0.00    +0.000 A 
ATOM      6  C   UNL     1       2.026   9.408  17.802  0.00  0.00    +0.000 A 
ATOM      7  C   UNL     1       1.069  10.160  18.486  0.00  0.00    +0.000 A 
ATOM      8  C   UNL     1       0.572   9.697  19.695  0.00  0.00    +0.000 A 
ATOM      9  C   UNL     1       1.029   8.482  20.202  0.00  0.00    +0.000 A 
ATOM     10  C   UNL     1       2.018   7.724  19.516  0.00  0.00    +0.000 A 
ENDROOT
BRANCH   3  11
ATOM     11  C   UNL     1       5.043   5.783  17.360  0.00  0.00    +0.000 A 
ATOM     12  C   UNL     1       6.134   5.187  18.020  0.00  0.00    +0.000 A 
ATOM     13  C   UNL     1       7.192   4.609  17.308  0.00  0.00    +0.000 A 
ATOM     14  C   UNL     1       7.180   4.613  15.916  0.00  0.00    +0.000 A 
ATOM     15  C   UNL     1       6.113   5.186  15.233  0.00  0.00    +0.000 A 
ATOM     16  C   UNL     1       5.059   5.758  15.949  0.00  0.00    +0.000 A 
ENDBRANCH   3  11
BRANCH   1  17
ATOM     17  N   UNL     1       2.127   5.917  21.159  0.00  0.00    +0.000 N 
ATOM     18  H   UNL     1       2.571   6.372  21.949  0.00  0.00    +0.000 HD
BRANCH  17  19
ATOM     19  C   UNL     1       2.373   4.471  21.231  0.00  0.00    +0.000 C 
BRANCH  19  20
ATOM     20  C   UNL     1       1.141   3.737  20.702  0.00  0.00    +0.000 C 
BRANCH  20  21
ATOM     21  C   UNL     1       1.491   2.580  19.756  0.00  0.00    +0.000 C 
BRANCH  21  22
ATOM     22  N   UNL     1       2.657   2.812  18.882  0.00  0.00    +0.000 NA
BRANCH  22  24
ATOM     23  C   UNL     1       4.671   1.963  20.151  0.00  0.00    +0.000 C 
ATOM     24  C   UNL     1       3.675   1.756  19.012  0.00  0.00    +0.000 C 
ENDBRANCH  22  24
BRANCH  22  25
ATOM     25  C   UNL     1       2.241   3.074  17.491  0.00  0.00    +0.000 C 
ATOM     26  C   UNL     1       1.265   4.231  17.284  0.00  0.00    +0.000 C 
ENDBRANCH  22  25
ENDBRANCH  21  22
ENDBRANCH  20  21
ENDBRANCH  19  20
ENDBRANCH  17  19
ENDBRANCH   1  17
TORSDOF 8
ENDMDL
MODEL 4
REMARK VINA RESULT:      -7.1      1.625      5.959
REMARK  Name = 
REMARK  10 active torsions:
REMARK  status: ('A' for Active; 'I' for Inactive)
REMARK    1  A    between atoms: C_1  and  C_2
REMARK    2  A    between atoms: C_2  and  N_3
REMARK    3  A    between atoms: N_3  and  C_4
REMARK    4  A    between atoms: N_3  and  C_6
REMARK    5  A    between atoms: C_4  and  C_5
REMARK    6  A    between atoms: C_6  and  C_7
REMARK    7  A    between atoms: C_7  and  C_8
REMARK    8  A    between atoms: C_8  and  N_9
REMARK    9  A    between atoms: N_9  and  C_10
REMARK   10  A    between atoms: C_12  and  C_13
REMARK                            x       y       z     vdW  Elec       q    Type
REMARK                         _______ _______ _______ _____ _____    ______ ____
ROOT
ATOM      1  C   UNL     1       4.634   4.998  19.300  0.00  0.00    +0.000 A 
ATOM      2  N   UNL     1       4.096   6.229  19.359  0.00  0.00    +0.000 NA
ATOM      3  C   UNL     1       2.812   6.368  18.994  0.00  0.00    +0.000 A 
ATOM      4  N   UNL     1       2.033   5.367  18.555  0.00  0.00    +0.000 NA
ATOM      5  C   UNL     1       2.569   4.148  18.494  0.00  0.00    +0.000 A 
ATOM      6  C   UNL     1       1.760   3.103  18.075  0.00  0.00    +0.000 A 
ATOM      7  C   UNL     1       2.222   1.787  18.017  0.00  0.00    +0.000 A 
ATOM      8  C   UNL     1       3.532   1.506  18.372  0.00  0.00    +0.000 A 
ATOM      9  C   UNL     1       4.370   2.544  18.773  0.00  0.00    +0.000 A 
ATOM     10  C   UNL     1       3.896   3.883  18.852  0.00  0.00    +0.000 A 
ENDROOT
BRANCH   3  11
ATOM     11  C   UNL     1       2.188   7.700  19.137  0.00  0.00    +0.000 A 
ATOM     12  C   UNL     1       1.586   8.113  20.341  0.00  0.00    +0.000 A 
ATOM     13  C   UNL     1       0.960   9.361  20.454  0.00  0.00    +0.000 A 
ATOM     14  C   UNL     1       0.926  10.225  19.364  0.00  0.00    +0.000 A 
ATOM     15  C   UNL     1       1.520   9.852  18.163  0.00  0.00    +0.000 A 
ATOM     16  C   UNL     1       2.145   8.607  18.057  0.00  0.00    +0.000 A 
ENDBRANCH   3  11
BRANCH   1  17
ATOM     17  N   UNL     1       6.002   4.844  19.637  0.00  0.00    +0.000 N 
ATOM     18  H   UNL     1       6.132   5.112  20.607  0.00  0.00    +0.000 HD
BRANCH  17  19
ATOM     19  C   UNL     1       6.912   5.629  18.793  0.00  0.00    +0.000 C 
BRANCH  19  20
ATOM     20  C   UNL     1       7.586   4.689  17.793  0.00  0.00    +0.000 C 
BRANCH  20  21
ATOM     21  C   UNL     1       7.323   5.077  16.332  0.00  0.00    +0.000 C 
BRANCH  21  22
ATOM     22  N   UNL     1       5.976   4.748  15.825  0.00  0.00    +0.000 NA
BRANCH  22  24
ATOM     23  C   UNL     1       4.926   7.022  16.158  0.00  0.00    +0.000 C 
ATOM     24  C   UNL     1       5.316   5.903  15.194  0.00  0.00    +0.000 C 
ENDBRANCH  22  24
BRANCH  22  25
ATOM     25  C   UNL     1       6.002   3.538  14.981  0.00  0.00    +0.000 C 
ATOM     26  C   UNL     1       6.147   3.766  13.478  0.00  0.00    +0.000 C 
ENDBRANCH  22  25
ENDBRANCH  21  22
ENDBRANCH  20  21
ENDBRANCH  19  20
ENDBRANCH  17  19
ENDBRANCH   1  17
TORSDOF 8
ENDMDL
MODEL 5
REMARK VINA RESULT:      -7.1      1.624      6.039
REMARK  Name = 
REMARK  10 active torsions:
REMARK  status: ('A' for Active; 'I' for Inactive)
REMARK    1  A    between atoms: C_1  and  C_2
REMARK    2  A    between atoms: C_2  and  N_3
REMARK    3  A    between atoms: N_3  and  C_4
REMARK    4  A    between atoms: N_3  and  C_6
REMARK    5  A    between atoms: C_4  and  C_5
REMARK    6  A    between atoms: C_6  and  C_7
REMARK    7  A    between atoms: C_7  and  C_8
REMARK    8  A    between atoms: C_8  and  N_9
REMARK    9  A    between atoms: N_9  and  C_10
REMARK   10  A    between atoms: C_12  and  C_13
REMARK                            x       y       z     vdW  Elec       q    Type
REMARK                         _______ _______ _______ _____ _____    ______ ____
ROOT
ATOM      1  C   UNL     1       4.690   5.067  19.214  0.00  0.00    +0.000 A 
ATOM      2  N   UNL     1       4.154   6.301  19.201  0.00  0.00    +0.000 NA
ATOM      3  C   UNL     1       2.868   6.420  18.837  0.00  0.00    +0.000 A 
ATOM      4  N   UNL     1       2.084   5.396  18.466  0.00  0.00    +0.000 NA
ATOM      5  C   UNL     1       2.619   4.174  18.475  0.00  0.00    +0.000 A 
ATOM      6  C   UNL     1       1.805   3.107  18.127  0.00  0.00    +0.000 A 
ATOM      7  C   UNL     1       2.264   1.789  18.145  0.00  0.00    +0.000 A 
ATOM      8  C   UNL     1       3.577   1.527  18.508  0.00  0.00    +0.000 A 
ATOM      9  C   UNL     1       4.419   2.587  18.838  0.00  0.00    +0.000 A 
ATOM     10  C   UNL     1       3.948   3.928  18.839  0.00  0.00    +0.000 A 
ENDROOT
BRANCH   3  11
ATOM     11  C   UNL     1       2.247   7.759  18.904  0.00  0.00    +0.000 A 
ATOM     12  C   UNL     1       2.327   8.670  17.833  0.00  0.00    +0.000 A 
ATOM     13  C   UNL     1       1.771   9.952  17.922  0.00  0.00    +0.000 A 
ATOM     14  C   UNL     1       1.118  10.350  19.085  0.00  0.00    +0.000 A 
ATOM     15  C   UNL     1       1.013   9.471  20.158  0.00  0.00    +0.000 A 
ATOM     16  C   UNL     1       1.567   8.193  20.062  0.00  0.00    +0.000 A 
ENDBRANCH   3  11
BRANCH   1  17
ATOM     17  N   UNL     1       6.060   4.932  19.550  0.00  0.00    +0.000 N 
ATOM     18  H   UNL     1       6.211   5.327  20.473  0.00  0.00    +0.000 HD
BRANCH  17  19
ATOM     19  C   UNL     1       6.971   5.574  18.594  0.00  0.00    +0.000 C 
BRANCH  19  20
ATOM     20  C   UNL     1       7.469   4.517  17.606  0.00  0.00    +0.000 C 
BRANCH  20  21
ATOM     21  C   UNL     1       7.319   4.947  16.140  0.00  0.00    +0.000 C 
BRANCH  21  22
ATOM     22  N   UNL     1       6.182   4.342  15.419  0.00  0.00    +0.000 NA
BRANCH  22  24
ATOM     23  C   UNL     1       4.998   6.561  15.660  0.00  0.00    +0.000 C 
ATOM     24  C   UNL     1       4.912   5.037  15.690  0.00  0.00    +0.000 C 
ENDBRANCH  22  24
BRANCH  22  25
ATOM     25  C   UNL     1       6.483   4.182  13.984  0.00  0.00    +0.000 C 
ATOM     26  C   UNL     1       7.619   5.040  13.431  0.00  0.00    +0.000 C 
ENDBRANCH  22  25
ENDBRANCH  21  22
ENDBRANCH  20  21
ENDBRANCH  19  20
ENDBRANCH  17  19
ENDBRANCH   1  17
TORSDOF 8
ENDMDL
MODEL 6
REMARK VINA RESULT:      -7.0      1.844      5.719
REMARK  Name = 
REMARK  10 active torsions:
REMARK  status: ('A' for Active; 'I' for Inactive)
REMARK    1  A    between atoms: C_1  and  C_2
REMARK    2  A    between atoms: C_2  and  N_3
REMARK    3  A    between atoms: N_3  and  C_4
REMARK    4  A    between atoms: N_3  and  C_6
REMARK    5  A    between atoms: C_4  and  C_5
REMARK    6  A    between atoms: C_6  and  C_7
REMARK    7  A    between atoms: C_7  and  C_8
REMARK    8  A    between atoms: C_8  and  N_9
REMARK    9  A    between atoms: N_9  and  C_10
REMARK   10  A    between atoms: C_12  and  C_13
REMARK                            x       y       z     vdW  Elec       q    Type
REMARK                         _______ _______ _______ _____ _____    ______ ____
ROOT
ATOM      1  C   UNL     1       2.919   6.077  18.573  0.00  0.00    +0.000 A 
ATOM      2  N   UNL     1       3.846   6.014  17.600  0.00  0.00    +0.000 NA
ATOM      3  C   UNL     1       4.351   4.808  17.296  0.00  0.00    +0.000 A 
ATOM      4  N   UNL     1       4.011   3.664  17.908  0.00  0.00    +0.000 NA
ATOM      5  C   UNL     1       3.095   3.729  18.876  0.00  0.00    +0.000 A 
ATOM      6  C   UNL     1       2.714   2.546  19.489  0.00  0.00    +0.000 A 
ATOM      7  C   UNL     1       1.735   2.510  20.484  0.00  0.00    +0.000 A 
ATOM      8  C   UNL     1       1.128   3.690  20.890  0.00  0.00    +0.000 A 
ATOM      9  C   UNL     1       1.515   4.893  20.303  0.00  0.00    +0.000 A 
ATOM     10  C   UNL     1       2.497   4.930  19.276  0.00  0.00    +0.000 A 
ENDROOT
BRANCH   3  11
ATOM     11  C   UNL     1       5.304   4.717  16.170  0.00  0.00    +0.000 A 
ATOM     12  C   UNL     1       6.606   5.246  16.253  0.00  0.00    +0.000 A 
ATOM     13  C   UNL     1       7.487   5.192  15.167  0.00  0.00    +0.000 A 
ATOM     14  C   UNL     1       7.086   4.602  13.972  0.00  0.00    +0.000 A 
ATOM     15  C   UNL     1       5.810   4.062  13.859  0.00  0.00    +0.000 A 
ATOM     16  C   UNL     1       4.936   4.116  14.947  0.00  0.00    +0.000 A 
ENDBRANCH   3  11
BRANCH   1  17
ATOM     17  N   UNL     1       2.412   7.349  18.938  0.00  0.00    +0.000 N 
ATOM     18  H   UNL     1       1.413   7.269  19.096  0.00  0.00    +0.000 HD
BRANCH  17  19
ATOM     19  C   UNL     1       2.661   8.395  17.938  0.00  0.00    +0.000 C 
BRANCH  19  20
ATOM     20  C   UNL     1       1.397   9.244  17.791  0.00  0.00    +0.000 C 
BRANCH  20  21
ATOM     21  C   UNL     1       1.077  10.068  19.046  0.00  0.00    +0.000 C 
BRANCH  21  22
ATOM     22  N   UNL     1      -0.288   9.895  19.582  0.00  0.00    +0.000 NA
BRANCH  22  24
ATOM     23  C   UNL     1      -0.240   8.579  21.738  0.00  0.00    +0.000 C 
ATOM     24  C   UNL     1      -0.323   9.941  21.053  0.00  0.00    +0.000 C 
ENDBRANCH  22  24
BRANCH  22  25
ATOM     25  C   UNL     1      -1.239  10.816  18.931  0.00  0.00    +0.000 C 
ATOM     26  C   UNL     1      -2.213  10.188  17.934  0.00  0.00    +0.000 C 
ENDBRANCH  22  25
ENDBRANCH  21  22
ENDBRANCH  20  21
ENDBRANCH  19  20
ENDBRANCH  17  19
ENDBRANCH   1  17
TORSDOF 8
ENDMDL
MODEL 7
REMARK VINA RESULT:      -7.0      1.637      5.925
REMARK  Name = 
REMARK  10 active torsions:
REMARK  status: ('A' for Active; 'I' for Inactive)
REMARK    1  A    between atoms: C_1  and  C_2
REMARK    2  A    between atoms: C_2  and  N_3
REMARK    3  A    between atoms: N_3  and  C_4
REMARK    4  A    between atoms: N_3  and  C_6
REMARK    5  A    between atoms: C_4  and  C_5
REMARK    6  A    between atoms: C_6  and  C_7
REMARK    7  A    between atoms: C_7  and  C_8
REMARK    8  A    between atoms: C_8  and  N_9
REMARK    9  A    between atoms: N_9  and  C_10
REMARK   10  A    between atoms: C_12  and  C_13
REMARK                            x       y       z     vdW  Elec       q    Type
REMARK                         _______ _______ _______ _____ _____    ______ ____
ROOT
ATOM      1  C   UNL     1       4.420   4.702  19.081  0.00  0.00    +0.000 A 
ATOM      2  N   UNL     1       4.010   5.983  19.045  0.00  0.00    +0.000 NA
ATOM      3  C   UNL     1       2.700   6.215  18.862  0.00  0.00    +0.000 A 
ATOM      4  N   UNL     1       1.775   5.258  18.691  0.00  0.00    +0.000 NA
ATOM      5  C   UNL     1       2.184   3.989  18.722  0.00  0.00    +0.000 A 
ATOM      6  C   UNL     1       1.228   2.996  18.581  0.00  0.00    +0.000 A 
ATOM      7  C   UNL     1       1.556   1.640  18.640  0.00  0.00    +0.000 A 
ATOM      8  C   UNL     1       2.877   1.263  18.830  0.00  0.00    +0.000 A 
ATOM      9  C   UNL     1       3.857   2.246  18.950  0.00  0.00    +0.000 A 
ATOM     10  C   UNL     1       3.523   3.628  18.910  0.00  0.00    +0.000 A 
ENDROOT
BRANCH   3  11
ATOM     11  C   UNL     1       2.228   7.614  18.908  0.00  0.00    +0.000 A 
ATOM     12  C   UNL     1       2.401   8.494  17.823  0.00  0.00    +0.000 A 
ATOM     13  C   UNL     1       1.987   9.830  17.892  0.00  0.00    +0.000 A 
ATOM     14  C   UNL     1       1.388  10.315  19.051  0.00  0.00    +0.000 A 
ATOM     15  C   UNL     1       1.195   9.470  20.138  0.00  0.00    +0.000 A 
ATOM     16  C   UNL     1       1.606   8.138  20.062  0.00  0.00    +0.000 A 
ENDBRANCH   3  11
BRANCH   1  17
ATOM     17  N   UNL     1       5.806   4.443  19.227  0.00  0.00    +0.000 N 
ATOM     18  H   UNL     1       5.934   3.757  19.963  0.00  0.00    +0.000 HD
BRANCH  17  19
ATOM     19  C   UNL     1       6.603   5.638  19.534  0.00  0.00    +0.000 C 
BRANCH  19  20
ATOM     20  C   UNL     1       7.752   5.731  18.529  0.00  0.00    +0.000 C 
BRANCH  20  21
ATOM     21  C   UNL     1       7.714   4.624  17.467  0.00  0.00    +0.000 C 
BRANCH  21  22
ATOM     22  N   UNL     1       7.145   5.020  16.164  0.00  0.00    +0.000 NA
BRANCH  22  24
ATOM     23  C   UNL     1       6.252   3.835  14.120  0.00  0.00    +0.000 C 
ATOM     24  C   UNL     1       6.205   4.018  15.635  0.00  0.00    +0.000 C 
ENDBRANCH  22  24
BRANCH  22  25
ATOM     25  C   UNL     1       6.597   6.389  16.213  0.00  0.00    +0.000 C 
ATOM     26  C   UNL     1       5.099   6.527  15.949  0.00  0.00    +0.000 C 
ENDBRANCH  22  25
ENDBRANCH  21  22
ENDBRANCH  20  21
ENDBRANCH  19  20
ENDBRANCH  17  19
ENDBRANCH   1  17
TORSDOF 8
ENDMDL
MODEL 8
REMARK VINA RESULT:      -6.9      1.134      5.029
REMARK  Name = 
REMARK  10 active torsions:
REMARK  status: ('A' for Active; 'I' for Inactive)
REMARK    1  A    between atoms: C_1  and  C_2
REMARK    2  A    between atoms: C_2  and  N_3
REMARK    3  A    between atoms: N_3  and  C_4
REMARK    4  A    between atoms: N_3  and  C_6
REMARK    5  A    between atoms: C_4  and  C_5
REMARK    6  A    between atoms: C_6  and  C_7
REMARK    7  A    between atoms: C_7  and  C_8
REMARK    8  A    between atoms: C_8  and  N_9
REMARK    9  A    between atoms: N_9  and  C_10
REMARK   10  A    between atoms: C_12  and  C_13
REMARK                            x       y       z     vdW  Elec       q    Type
REMARK                         _______ _______ _______ _____ _____    ______ ____
ROOT
ATOM      1  C   UNL     1       5.092   4.727  18.427  0.00  0.00    +0.000 A 
ATOM      2  N   UNL     1       4.245   5.628  18.958  0.00  0.00    +0.000 NA
ATOM      3  C   UNL     1       3.793   6.607  18.159  0.00  0.00    +0.000 A 
ATOM      4  N   UNL     1       4.143   6.762  16.873  0.00  0.00    +0.000 NA
ATOM      5  C   UNL     1       4.986   5.871  16.349  0.00  0.00    +0.000 A 
ATOM      6  C   UNL     1       5.325   6.006  15.012  0.00  0.00    +0.000 A 
ATOM      7  C   UNL     1       6.168   5.099  14.368  0.00  0.00    +0.000 A 
ATOM      8  C   UNL     1       6.702   4.036  15.080  0.00  0.00    +0.000 A 
ATOM      9  C   UNL     1       6.394   3.896  16.432  0.00  0.00    +0.000 A 
ATOM     10  C   UNL     1       5.520   4.807  17.086  0.00  0.00    +0.000 A 
ENDROOT
BRANCH   3  11
ATOM     11  C   UNL     1       2.796   7.549  18.708  0.00  0.00    +0.000 A 
ATOM     12  C   UNL     1       2.242   7.380  19.991  0.00  0.00    +0.000 A 
ATOM     13  C   UNL     1       1.266   8.254  20.486  0.00  0.00    +0.000 A 
ATOM     14  C   UNL     1       0.825   9.320  19.709  0.00  0.00    +0.000 A 
ATOM     15  C   UNL     1       1.359   9.521  18.440  0.00  0.00    +0.000 A 
ATOM     16  C   UNL     1       2.334   8.648  17.953  0.00  0.00    +0.000 A 
ENDBRANCH   3  11
BRANCH   1  17
ATOM     17  N   UNL     1       5.615   3.716  19.271  0.00  0.00    +0.000 N 
ATOM     18  H   UNL     1       6.166   3.075  18.710  0.00  0.00    +0.000 HD
BRANCH  17  19
ATOM     19  C   UNL     1       4.586   2.961  19.998  0.00  0.00    +0.000 C 
BRANCH  19  20
ATOM     20  C   UNL     1       4.109   1.807  19.115  0.00  0.00    +0.000 C 
BRANCH  20  21
ATOM     21  C   UNL     1       2.617   1.896  18.766  0.00  0.00    +0.000 C 
BRANCH  21  22
ATOM     22  N   UNL     1       1.899   3.044  19.354  0.00  0.00    +0.000 NA
BRANCH  22  24
ATOM     23  C   UNL     1       1.893   3.785  16.938  0.00  0.00    +0.000 C 
ATOM     24  C   UNL     1       1.276   3.900  18.331  0.00  0.00    +0.000 C 
ENDBRANCH  22  24
BRANCH  22  25
ATOM     25  C   UNL     1       0.972   2.609  20.416  0.00  0.00    +0.000 C 
ATOM     26  C   UNL     1       1.479   2.741  21.851  0.00  0.00    +0.000 C 
ENDBRANCH  22  25
ENDBRANCH  21  22
ENDBRANCH  20  21
ENDBRANCH  19  20
ENDBRANCH  17  19
ENDBRANCH   1  17
TORSDOF 8
ENDMDL
MODEL 9
REMARK VINA RESULT:      -6.9      4.030      7.961
REMARK  Name = 
REMARK  10 active torsions:
REMARK  status: ('A' for Active; 'I' for Inactive)
REMARK    1  A    between atoms: C_1  and  C_2
REMARK    2  A    between atoms: C_2  and  N_3
REMARK    3  A    between atoms: N_3  and  C_4
REMARK    4  A    between atoms: N_3  and  C_6
REMARK    5  A    between atoms: C_4  and  C_5
REMARK    6  A    between atoms: C_6  and  C_7
REMARK    7  A    between atoms: C_7  and  C_8
REMARK    8  A    between atoms: C_8  and  N_9
REMARK    9  A    between atoms: N_9  and  C_10
REMARK   10  A    between atoms: C_12  and  C_13
REMARK                            x       y       z     vdW  Elec       q    Type
REMARK                         _______ _______ _______ _____ _____    ______ ____
ROOT
ATOM      1  C   UNL     1       6.598   5.833  16.347  0.00  0.00    +0.000 A 
ATOM      2  N   UNL     1       5.625   5.700  17.267  0.00  0.00    +0.000 NA
ATOM      3  C   UNL     1       4.584   4.909  16.965  0.00  0.00    +0.000 A 
ATOM      4  N   UNL     1       4.435   4.257  15.802  0.00  0.00    +0.000 NA
ATOM      5  C   UNL     1       5.398   4.393  14.889  0.00  0.00    +0.000 A 
ATOM      6  C   UNL     1       5.268   3.695  13.699  0.00  0.00    +0.000 A 
ATOM      7  C   UNL     1       6.244   3.744  12.702  0.00  0.00    +0.000 A 
ATOM      8  C   UNL     1       7.375   4.524  12.889  0.00  0.00    +0.000 A 
ATOM      9  C   UNL     1       7.514   5.253  14.068  0.00  0.00    +0.000 A 
ATOM     10  C   UNL     1       6.531   5.189  15.094  0.00  0.00    +0.000 A 
ENDROOT
BRANCH   3  11
ATOM     11  C   UNL     1       3.555   4.688  18.002  0.00  0.00    +0.000 A 
ATOM     12  C   UNL     1       2.396   3.929  17.750  0.00  0.00    +0.000 A 
ATOM     13  C   UNL     1       1.407   3.760  18.727  0.00  0.00    +0.000 A 
ATOM     14  C   UNL     1       1.557   4.346  19.980  0.00  0.00    +0.000 A 
ATOM     15  C   UNL     1       2.694   5.095  20.265  0.00  0.00    +0.000 A 
ATOM     16  C   UNL     1       3.679   5.257  19.288  0.00  0.00    +0.000 A 
ENDBRANCH   3  11
BRANCH   1  17
ATOM     17  N   UNL     1       7.680   6.702  16.632  0.00  0.00    +0.000 N 
ATOM     18  H   UNL     1       8.547   6.179  16.562  0.00  0.00    +0.000 HD
BRANCH  17  19
ATOM     19  C   UNL     1       7.601   7.332  17.956  0.00  0.00    +0.000 C 
BRANCH  19  20
ATOM     20  C   UNL     1       7.919   8.821  17.810  0.00  0.00    +0.000 C 
BRANCH  20  21
ATOM     21  C   UNL     1       9.007   9.302  18.780  0.00  0.00    +0.000 C 
BRANCH  21  22
ATOM     22  N   UNL     1       8.903  10.715  19.194  0.00  0.00    +0.000 NA
BRANCH  22  24
ATOM     23  C   UNL     1       8.962  12.131  21.285  0.00  0.00    +0.000 C 
ATOM     24  C   UNL     1       9.553  10.969  20.490  0.00  0.00    +0.000 C 
ENDBRANCH  22  24
BRANCH  22  25
ATOM     25  C   UNL     1       9.340  11.622  18.116  0.00  0.00    +0.000 C 
ATOM     26  C   UNL     1      10.841  11.663  17.835  0.00  0.00    +0.000 C 
ENDBRANCH  22  25
ENDBRANCH  21  22
ENDBRANCH  20  21
ENDBRANCH  19  20
ENDBRANCH  17  19
ENDBRANCH   1  17
TORSDOF 8
ENDMDL
