MODEL 1
REMARK VINA RESULT:      -7.5      0.000      0.000
REMARK  Name = 
REMARK  3 active torsions:
REMARK  status: ('A' for Active; 'I' for Inactive)
REMARK    1  A    between atoms: O_1  and  C_2
REMARK    2  A    between atoms: C_12  and  C_13
REMARK    3  A    between atoms: C_14  and  O_15
REMARK                            x       y       z     vdW  Elec       q    Type
REMARK                         _______ _______ _______ _____ _____    ______ ____
ROOT
ATOM      1  C   UNL     1       6.723   5.237  18.853  0.00  0.00    +0.000 A 
ATOM      2  C   UNL     1       7.861   5.582  18.123  0.00  0.00    +0.000 A 
ATOM      3  C   UNL     1       7.889   5.349  16.759  0.00  0.00    +0.000 A 
ATOM      4  C   UNL     1       6.771   4.837  16.099  0.00  0.00    +0.000 A 
ATOM      5  C   UNL     1       6.899   4.503  14.745  0.00  0.00    +0.000 A 
ATOM      6  C   UNL     1       5.826   3.970  14.046  0.00  0.00    +0.000 A 
ATOM      7 BR   UNL     1       6.061   3.359  12.276  0.00  0.00    +0.000 Br
ATOM      8  C   UNL     1       4.586   3.888  14.653  0.00  0.00    +0.000 A 
ATOM      9  C   UNL     1       4.445   4.283  15.990  0.00  0.00    +0.000 A 
ATOM     10  C   UNL     1       5.550   4.630  16.808  0.00  0.00    +0.000 A 
ATOM     11  C   UNL     1       5.529   4.746  18.254  0.00  0.00    +0.000 A 
ENDROOT
BRANCH  11  12
ATOM     12  C   UNL     1       4.328   4.329  19.120  0.00  0.00    +0.000 A 
ATOM     13  C   UNL     1       4.290   3.072  19.783  0.00  0.00    +0.000 A 
ATOM     14  C   UNL     1       3.238   2.669  20.604  0.00  0.00    +0.000 A 
ATOM     15  C   UNL     1       2.221   3.556  20.908  0.00  0.00    +0.000 A 
ATOM     16  C   UNL     1       2.223   4.838  20.366  0.00  0.00    +0.000 A 
ATOM     17  C   UNL     1       1.276   5.756  20.844  0.00  0.00    +0.000 A 
ATOM     18  C   UNL     1       1.266   7.066  20.389  0.00  0.00    +0.000 A 
ATOM     19  C   UNL     1       2.101   7.414  19.342  0.00  0.00    +0.000 A 
ATOM     20 BR   UNL     1       2.141   9.208  18.742  0.00  0.00    +0.000 Br
ATOM     21  C   UNL     1       2.978   6.475  18.786  0.00  0.00    +0.000 A 
ATOM     22  C   UNL     1       3.195   5.209  19.386  0.00  0.00    +0.000 A 
BRANCH  13  23
ATOM     23  O   UNL     1       5.291   2.135  19.716  0.00  0.00    +0.000 OA
ATOM     24  H   UNL     1       5.208   1.712  18.841  0.00  0.00    +0.000 HD
ENDBRANCH  13  23
ENDBRANCH  11  12
BRANCH   1  25
ATOM     25  O   UNL     1       6.793   5.428  20.215  0.00  0.00    +0.000 OA
ATOM     26  H   UNL     1       6.454   4.636  20.670  0.00  0.00    +0.000 HD
ENDBRANCH   1  25
TORSDOF 3
ENDMDL
MODEL 2
REMARK VINA RESULT:      -7.0      1.327      1.400
REMARK  Name = 
REMARK  3 active torsions:
REMARK  status: ('A' for Active; 'I' for Inactive)
REMARK    1  A    between atoms: O_1  and  C_2
REMARK    2  A    between atoms: C_12  and  C_13
REMARK    3  A    between atoms: C_14  and  O_15
REMARK                            x       y       z     vdW  Elec       q    Type
REMARK                         _______ _______ _______ _____ _____    ______ ____
ROOT
ATOM      1  C   UNL     1       6.033   4.763  18.708  0.00  0.00    +0.000 A 
ATOM      2  C   UNL     1       7.244   5.356  18.346  0.00  0.00    +0.000 A 
ATOM      3  C   UNL     1       7.615   5.384  17.014  0.00  0.00    +0.000 A 
ATOM      4  C   UNL     1       6.764   4.888  16.025  0.00  0.00    +0.000 A 
ATOM      5  C   UNL     1       7.243   4.827  14.711  0.00  0.00    +0.000 A 
ATOM      6  C   UNL     1       6.447   4.322  13.693  0.00  0.00    +0.000 A 
ATOM      7 BR   UNL     1       7.165   4.078  11.964  0.00  0.00    +0.000 Br
ATOM      8  C   UNL     1       5.128   3.998  13.952  0.00  0.00    +0.000 A 
ATOM      9  C   UNL     1       4.631   4.121  15.256  0.00  0.00    +0.000 A 
ATOM     10  C   UNL     1       5.458   4.425  16.367  0.00  0.00    +0.000 A 
ATOM     11  C   UNL     1       5.092   4.269  17.763  0.00  0.00    +0.000 A 
ENDROOT
BRANCH  11  12
ATOM     12  C   UNL     1       3.801   3.573  18.227  0.00  0.00    +0.000 A 
ATOM     13  C   UNL     1       3.637   2.165  18.124  0.00  0.00    +0.000 A 
ATOM     14  C   UNL     1       2.498   1.492  18.564  0.00  0.00    +0.000 A 
ATOM     15  C   UNL     1       1.512   2.177  19.248  0.00  0.00    +0.000 A 
ATOM     16  C   UNL     1       1.631   3.547  19.465  0.00  0.00    +0.000 A 
ATOM     17  C   UNL     1       0.701   4.163  20.317  0.00  0.00    +0.000 A 
ATOM     18  C   UNL     1       0.804   5.511  20.622  0.00  0.00    +0.000 A 
ATOM     19  C   UNL     1       1.742   6.277  19.953  0.00  0.00    +0.000 A 
ATOM     20 BR   UNL     1       1.934   8.107  20.392  0.00  0.00    +0.000 Br
ATOM     21  C   UNL     1       2.608   5.691  19.021  0.00  0.00    +0.000 A 
ATOM     22  C   UNL     1       2.702   4.284  18.870  0.00  0.00    +0.000 A 
BRANCH  13  23
ATOM     23  O   UNL     1       4.585   1.313  17.613  0.00  0.00    +0.000 OA
ATOM     24  H   UNL     1       4.169   0.872  16.849  0.00  0.00    +0.000 HD
ENDBRANCH  13  23
ENDBRANCH  11  12
BRANCH   1  25
ATOM     25  O   UNL     1       5.764   4.704  20.058  0.00  0.00    +0.000 OA
ATOM     26  H   UNL     1       5.381   5.551  20.348  0.00  0.00    +0.000 HD
ENDBRANCH   1  25
TORSDOF 3
ENDMDL
MODEL 3
REMARK VINA RESULT:      -6.3      4.181      6.635
REMARK  Name = 
REMARK  3 active torsions:
REMARK  status: ('A' for Active; 'I' for Inactive)
REMARK    1  A    between atoms: O_1  and  C_2
REMARK    2  A    between atoms: C_12  and  C_13
REMARK    3  A    between atoms: C_14  and  O_15
REMARK                            x       y       z     vdW  Elec       q    Type
REMARK                         _______ _______ _______ _____ _____    ______ ____
ROOT
ATOM      1  C   UNL     1       2.254   9.157  18.281  0.00  0.00    +0.000 A 
ATOM      2  C   UNL     1       3.117   8.436  17.454  0.00  0.00    +0.000 A 
ATOM      3  C   UNL     1       3.394   7.114  17.750  0.00  0.00    +0.000 A 
ATOM      4  C   UNL     1       2.770   6.476  18.824  0.00  0.00    +0.000 A 
ATOM      5  C   UNL     1       3.182   5.179  19.152  0.00  0.00    +0.000 A 
ATOM      6  C   UNL     1       2.610   4.508  20.223  0.00  0.00    +0.000 A 
ATOM      7 BR   UNL     1       3.297   2.836  20.766  0.00  0.00    +0.000 Br
ATOM      8  C   UNL     1       1.537   5.070  20.890  0.00  0.00    +0.000 A 
ATOM      9  C   UNL     1       1.083   6.342  20.517  0.00  0.00    +0.000 A 
ATOM     10  C   UNL     1       1.766   7.155  19.578  0.00  0.00    +0.000 A 
ATOM     11  C   UNL     1       1.548   8.575  19.370  0.00  0.00    +0.000 A 
ENDROOT
BRANCH  11  12
ATOM     12  C   UNL     1       0.655   9.436  20.280  0.00  0.00    +0.000 A 
ATOM     13  C   UNL     1       1.007   9.702  21.632  0.00  0.00    +0.000 A 
ATOM     14  C   UNL     1       0.245  10.504  22.479  0.00  0.00    +0.000 A 
ATOM     15  C   UNL     1      -0.848  11.190  21.982  0.00  0.00    +0.000 A 
ATOM     16  C   UNL     1      -1.215  11.052  20.646  0.00  0.00    +0.000 A 
ATOM     17  C   UNL     1      -2.213  11.902  20.146  0.00  0.00    +0.000 A 
ATOM     18  C   UNL     1      -2.580  11.855  18.810  0.00  0.00    +0.000 A 
ATOM     19  C   UNL     1      -2.061  10.853  18.010  0.00  0.00    +0.000 A 
ATOM     20 BR   UNL     1      -2.506  10.804  16.172  0.00  0.00    +0.000 Br
ATOM     21  C   UNL     1      -1.141   9.932  18.528  0.00  0.00    +0.000 A 
ATOM     22  C   UNL     1      -0.555  10.100  19.808  0.00  0.00    +0.000 A 
BRANCH  13  23
ATOM     23  O   UNL     1       2.143   9.227  22.240  0.00  0.00    +0.000 OA
ATOM     24  H   UNL     1       2.870   9.805  21.943  0.00  0.00    +0.000 HD
ENDBRANCH  13  23
ENDBRANCH  11  12
BRANCH   1  25
ATOM     25  O   UNL     1       2.083  10.488  17.969  0.00  0.00    +0.000 OA
ATOM     26  H   UNL     1       2.560  10.690  17.144  0.00  0.00    +0.000 HD
ENDBRANCH   1  25
TORSDOF 3
ENDMDL
MODEL 4
REMARK VINA RESULT:      -6.2      2.558      5.969
REMARK  Name = 
REMARK  3 active torsions:
REMARK  status: ('A' for Active; 'I' for Inactive)
REMARK    1  A    between atoms: O_1  and  C_2
REMARK    2  A    between atoms: C_12  and  C_13
REMARK    3  A    between atoms: C_14  and  O_15
REMARK                            x       y       z     vdW  Elec       q    Type
REMARK                         _______ _______ _______ _____ _____    ______ ____
ROOT
ATOM      1  C   UNL     1       2.015   5.704  20.458  0.00  0.00    +0.000 A 
ATOM      2  C   UNL     1       1.428   6.582  21.370  0.00  0.00    +0.000 A 
ATOM      3  C   UNL     1       1.306   7.921  21.042  0.00  0.00    +0.000 A 
ATOM      4  C   UNL     1       1.700   8.386  19.786  0.00  0.00    +0.000 A 
ATOM      5  C   UNL     1       1.671   9.767  19.555  0.00  0.00    +0.000 A 
ATOM      6  C   UNL     1       2.073  10.285  18.333  0.00  0.00    +0.000 A 
ATOM      7 BR   UNL     1       2.201  12.154  18.095  0.00  0.00    +0.000 Br
ATOM      8  C   UNL     1       2.380   9.428  17.293  0.00  0.00    +0.000 A 
ATOM      9  C   UNL     1       2.346   8.044  17.507  0.00  0.00    +0.000 A 
ATOM     10  C   UNL     1       2.152   7.471  18.789  0.00  0.00    +0.000 A 
ATOM     11  C   UNL     1       2.408   6.087  19.146  0.00  0.00    +0.000 A 
ENDROOT
BRANCH  11  12
ATOM     12  C   UNL     1       3.102   5.086  18.207  0.00  0.00    +0.000 A 
ATOM     13  C   UNL     1       2.413   3.958  17.682  0.00  0.00    +0.000 A 
ATOM     14  C   UNL     1       2.993   3.047  16.802  0.00  0.00    +0.000 A 
ATOM     15  C   UNL     1       4.259   3.284  16.298  0.00  0.00    +0.000 A 
ATOM     16  C   UNL     1       4.973   4.410  16.696  0.00  0.00    +0.000 A 
ATOM     17  C   UNL     1       6.170   4.703  16.025  0.00  0.00    +0.000 A 
ATOM     18  C   UNL     1       6.895   5.844  16.333  0.00  0.00    +0.000 A 
ATOM     19  C   UNL     1       6.507   6.607  17.420  0.00  0.00    +0.000 A 
ATOM     20 BR   UNL     1       7.451   8.196  17.825  0.00  0.00    +0.000 Br
ATOM     21  C   UNL     1       5.371   6.264  18.164  0.00  0.00    +0.000 A 
ATOM     22  C   UNL     1       4.469   5.260  17.729  0.00  0.00    +0.000 A 
BRANCH  13  23
ATOM     23  O   UNL     1       1.101   3.660  17.956  0.00  0.00    +0.000 OA
ATOM     24  H   UNL     1       1.073   2.703  18.138  0.00  0.00    +0.000 HD
ENDBRANCH  13  23
ENDBRANCH  11  12
BRANCH   1  25
ATOM     25  O   UNL     1       2.171   4.403  20.882  0.00  0.00    +0.000 OA
ATOM     26  H   UNL     1       2.930   4.002  20.421  0.00  0.00    +0.000 HD
ENDBRANCH   1  25
TORSDOF 3
ENDMDL
MODEL 5
REMARK VINA RESULT:      -6.2      8.791     11.760
REMARK  Name = 
REMARK  3 active torsions:
REMARK  status: ('A' for Active; 'I' for Inactive)
REMARK    1  A    between atoms: O_1  and  C_2
REMARK    2  A    between atoms: C_12  and  C_13
REMARK    3  A    between atoms: C_14  and  O_15
REMARK                            x       y       z     vdW  Elec       q    Type
REMARK                         _______ _______ _______ _____ _____    ______ ____
ROOT
ATOM      1  C   UNL     1      -2.620  11.560  17.637  0.00  0.00    +0.000 A 
ATOM      2  C   UNL     1      -3.876  11.379  17.055  0.00  0.00    +0.000 A 
ATOM      3  C   UNL     1      -5.013  11.560  17.823  0.00  0.00    +0.000 A 
ATOM      4  C   UNL     1      -4.918  11.986  19.149  0.00  0.00    +0.000 A 
ATOM      5  C   UNL     1      -6.090  12.031  19.913  0.00  0.00    +0.000 A 
ATOM      6  C   UNL     1      -6.050  12.426  21.242  0.00  0.00    +0.000 A 
ATOM      7 BR   UNL     1      -7.603  12.310  22.310  0.00  0.00    +0.000 Br
ATOM      8  C   UNL     1      -4.869  12.903  21.780  0.00  0.00    +0.000 A 
ATOM      9  C   UNL     1      -3.710  12.918  20.993  0.00  0.00    +0.000 A 
ATOM     10  C   UNL     1      -3.649  12.328  19.705  0.00  0.00    +0.000 A 
ATOM     11  C   UNL     1      -2.436  12.029  18.967  0.00  0.00    +0.000 A 
ENDROOT
BRANCH  11  12
ATOM     12  C   UNL     1      -1.026  12.154  19.570  0.00  0.00    +0.000 A 
ATOM     13  C   UNL     1      -0.333  11.022  20.080  0.00  0.00    +0.000 A 
ATOM     14  C   UNL     1       0.958  11.084  20.602  0.00  0.00    +0.000 A 
ATOM     15  C   UNL     1       1.677  12.263  20.527  0.00  0.00    +0.000 A 
ATOM     16  C   UNL     1       1.102  13.401  19.967  0.00  0.00    +0.000 A 
ATOM     17  C   UNL     1       1.926  14.515  19.747  0.00  0.00    +0.000 A 
ATOM     18  C   UNL     1       1.428  15.655  19.136  0.00  0.00    +0.000 A 
ATOM     19  C   UNL     1       0.070  15.740  18.888  0.00  0.00    +0.000 A 
ATOM     20 BR   UNL     1      -0.622  17.265  18.006  0.00  0.00    +0.000 Br
ATOM     21  C   UNL     1      -0.780  14.672  19.200  0.00  0.00    +0.000 A 
ATOM     22  C   UNL     1      -0.276  13.405  19.588  0.00  0.00    +0.000 A 
BRANCH  13  23
ATOM     23  O   UNL     1      -0.840   9.746  20.087  0.00  0.00    +0.000 OA
ATOM     24  H   UNL     1      -1.723   9.803  19.677  0.00  0.00    +0.000 HD
ENDBRANCH  13  23
ENDBRANCH  11  12
BRANCH   1  25
ATOM     25  O   UNL     1      -1.534  11.290  16.835  0.00  0.00    +0.000 OA
ATOM     26  H   UNL     1      -0.962  10.635  17.274  0.00  0.00    +0.000 HD
ENDBRANCH   1  25
TORSDOF 3
ENDMDL
MODEL 6
REMARK VINA RESULT:      -6.1      9.346     12.420
REMARK  Name = 
REMARK  3 active torsions:
REMARK  status: ('A' for Active; 'I' for Inactive)
REMARK    1  A    between atoms: O_1  and  C_2
REMARK    2  A    between atoms: C_12  and  C_13
REMARK    3  A    between atoms: C_14  and  O_15
REMARK                            x       y       z     vdW  Elec       q    Type
REMARK                         _______ _______ _______ _____ _____    ______ ____
ROOT
ATOM      1  C   UNL     1       6.140  15.202  19.174  0.00  0.00    +0.000 A 
ATOM      2  C   UNL     1       5.034  15.141  20.023  0.00  0.00    +0.000 A 
ATOM      3  C   UNL     1       5.228  14.935  21.377  0.00  0.00    +0.000 A 
ATOM      4  C   UNL     1       6.516  14.854  21.910  0.00  0.00    +0.000 A 
ATOM      5  C   UNL     1       6.652  14.519  23.262  0.00  0.00    +0.000 A 
ATOM      6  C   UNL     1       7.909  14.404  23.837  0.00  0.00    +0.000 A 
ATOM      7 BR   UNL     1       8.084  13.777  25.609  0.00  0.00    +0.000 Br
ATOM      8  C   UNL     1       9.031  14.749  23.105  0.00  0.00    +0.000 A 
ATOM      9  C   UNL     1       8.888  15.147  21.770  0.00  0.00    +0.000 A 
ATOM     10  C   UNL     1       7.653  15.075  21.076  0.00  0.00    +0.000 A 
ATOM     11  C   UNL     1       7.484  15.168  19.638  0.00  0.00    +0.000 A 
ENDROOT
BRANCH  11  12
ATOM     12  C   UNL     1       8.660  15.181  18.646  0.00  0.00    +0.000 A 
ATOM     13  C   UNL     1       9.248  16.399  18.206  0.00  0.00    +0.000 A 
ATOM     14  C   UNL     1      10.336  16.455  17.337  0.00  0.00    +0.000 A 
ATOM     15  C   UNL     1      10.978  15.290  16.958  0.00  0.00    +0.000 A 
ATOM     16  C   UNL     1      10.518  14.057  17.411  0.00  0.00    +0.000 A 
ATOM     17  C   UNL     1      11.305  12.924  17.151  0.00  0.00    +0.000 A 
ATOM     18  C   UNL     1      10.932  11.678  17.629  0.00  0.00    +0.000 A 
ATOM     19  C   UNL     1       9.694  11.536  18.230  0.00  0.00    +0.000 A 
ATOM     20 BR   UNL     1       9.189   9.855  18.936  0.00  0.00    +0.000 Br
ATOM     21  C   UNL     1       8.853  12.644  18.401  0.00  0.00    +0.000 A 
ATOM     22  C   UNL     1       9.301  13.966  18.157  0.00  0.00    +0.000 A 
BRANCH  13  23
ATOM     23  O   UNL     1       8.833  17.645  18.608  0.00  0.00    +0.000 OA
ATOM     24  H   UNL     1       8.690  18.159  17.792  0.00  0.00    +0.000 HD
ENDBRANCH  13  23
ENDBRANCH  11  12
BRANCH   1  25
ATOM     25  O   UNL     1       5.868  15.335  17.830  0.00  0.00    +0.000 OA
ATOM     26  H   UNL     1       6.040  14.489  17.380  0.00  0.00    +0.000 HD
ENDBRANCH   1  25
TORSDOF 3
ENDMDL
MODEL 7
REMARK VINA RESULT:      -6.0      7.702     11.073
REMARK  Name = 
REMARK  3 active torsions:
REMARK  status: ('A' for Active; 'I' for Inactive)
REMARK    1  A    between atoms: O_1  and  C_2
REMARK    2  A    between atoms: C_12  and  C_13
REMARK    3  A    between atoms: C_14  and  O_15
REMARK                            x       y       z     vdW  Elec       q    Type
REMARK                         _______ _______ _______ _____ _____    ______ ____
ROOT
ATOM      1  C   UNL     1      -1.160  13.537  19.731  0.00  0.00    +0.000 A 
ATOM      2  C   UNL     1      -0.673  13.004  18.537  0.00  0.00    +0.000 A 
ATOM      3  C   UNL     1      -0.113  11.739  18.537  0.00  0.00    +0.000 A 
ATOM      4  C   UNL     1      -0.091  10.967  19.700  0.00  0.00    +0.000 A 
ATOM      5  C   UNL     1       0.600   9.749  19.672  0.00  0.00    +0.000 A 
ATOM      6  C   UNL     1       0.672   8.954  20.806  0.00  0.00    +0.000 A 
ATOM      7 BR   UNL     1       1.754   7.407  20.808  0.00  0.00    +0.000 Br
ATOM      8  C   UNL     1      -0.051   9.301  21.933  0.00  0.00    +0.000 A 
ATOM      9  C   UNL     1      -0.794  10.488  21.937  0.00  0.00    +0.000 A 
ATOM     10  C   UNL     1      -0.728  11.438  20.887  0.00  0.00    +0.000 A 
ATOM     11  C   UNL     1      -1.211  12.805  20.950  0.00  0.00    +0.000 A 
ENDROOT
BRANCH  11  12
ATOM     12  C   UNL     1      -1.706  13.469  22.247  0.00  0.00    +0.000 A 
ATOM     13  C   UNL     1      -0.833  14.225  23.076  0.00  0.00    +0.000 A 
ATOM     14  C   UNL     1      -1.248  14.871  24.239  0.00  0.00    +0.000 A 
ATOM     15  C   UNL     1      -2.590  14.900  24.571  0.00  0.00    +0.000 A 
ATOM     16  C   UNL     1      -3.526  14.254  23.768  0.00  0.00    +0.000 A 
ATOM     17  C   UNL     1      -4.886  14.463  24.042  0.00  0.00    +0.000 A 
ATOM     18  C   UNL     1      -5.866  13.897  23.242  0.00  0.00    +0.000 A 
ATOM     19  C   UNL     1      -5.488  12.995  22.263  0.00  0.00    +0.000 A 
ATOM     20 BR   UNL     1      -6.804  12.252  21.125  0.00  0.00    +0.000 Br
ATOM     21  C   UNL     1      -4.136  12.698  22.050  0.00  0.00    +0.000 A 
ATOM     22  C   UNL     1      -3.101  13.440  22.672  0.00  0.00    +0.000 A 
BRANCH  13  23
ATOM     23  O   UNL     1       0.498  14.429  22.810  0.00  0.00    +0.000 OA
ATOM     24  H   UNL     1       0.550  14.686  21.871  0.00  0.00    +0.000 HD
ENDBRANCH  13  23
ENDBRANCH  11  12
BRANCH   1  25
ATOM     25  O   UNL     1      -1.635  14.828  19.672  0.00  0.00    +0.000 OA
ATOM     26  H   UNL     1      -0.976  15.433  20.057  0.00  0.00    +0.000 HD
ENDBRANCH   1  25
TORSDOF 3
ENDMDL
MODEL 8
REMARK VINA RESULT:      -6.0      8.656     10.830
REMARK  Name = 
REMARK  3 active torsions:
REMARK  status: ('A' for Active; 'I' for Inactive)
REMARK    1  A    between atoms: O_1  and  C_2
REMARK    2  A    between atoms: C_12  and  C_13
REMARK    3  A    between atoms: C_14  and  O_15
REMARK                            x       y       z     vdW  Elec       q    Type
REMARK                         _______ _______ _______ _____ _____    ______ ____
ROOT
ATOM      1  C   UNL     1      -3.452  12.836  20.300  0.00  0.00    +0.000 A 
ATOM      2  C   UNL     1      -4.787  12.742  19.903  0.00  0.00    +0.000 A 
ATOM      3  C   UNL     1      -5.095  12.145  18.693  0.00  0.00    +0.000 A 
ATOM      4  C   UNL     1      -4.095  11.579  17.901  0.00  0.00    +0.000 A 
ATOM      5  C   UNL     1      -4.448  11.103  16.632  0.00  0.00    +0.000 A 
ATOM      6  C   UNL     1      -3.489  10.551  15.795  0.00  0.00    +0.000 A 
ATOM      7 BR   UNL     1      -3.940  10.080  14.023  0.00  0.00    +0.000 Br
ATOM      8  C   UNL     1      -2.204  10.351  16.264  0.00  0.00    +0.000 A 
ATOM      9  C   UNL     1      -1.869  10.769  17.558  0.00  0.00    +0.000 A 
ATOM     10  C   UNL     1      -2.749  11.528  18.371  0.00  0.00    +0.000 A 
ATOM     11  C   UNL     1      -2.378  12.253  19.572  0.00  0.00    +0.000 A 
ENDROOT
BRANCH  11  12
ATOM     12  C   UNL     1      -0.922  12.441  20.032  0.00  0.00    +0.000 A 
ATOM     13  C   UNL     1      -0.176  11.370  20.595  0.00  0.00    +0.000 A 
ATOM     14  C   UNL     1       1.155  11.488  20.992  0.00  0.00    +0.000 A 
ATOM     15  C   UNL     1       1.853  12.652  20.729  0.00  0.00    +0.000 A 
ATOM     16  C   UNL     1       1.221  13.724  20.104  0.00  0.00    +0.000 A 
ATOM     17  C   UNL     1       2.012  14.809  19.696  0.00  0.00    +0.000 A 
ATOM     18  C   UNL     1       1.451  15.878  19.014  0.00  0.00    +0.000 A 
ATOM     19  C   UNL     1       0.076  15.935  18.879  0.00  0.00    +0.000 A 
ATOM     20 BR   UNL     1      -0.705  17.357  17.906  0.00  0.00    +0.000 Br
ATOM     21  C   UNL     1      -0.734  14.906  19.377  0.00  0.00    +0.000 A 
ATOM     22  C   UNL     1      -0.186  13.687  19.851  0.00  0.00    +0.000 A 
BRANCH  13  23
ATOM     23  O   UNL     1      -0.668  10.102  20.782  0.00  0.00    +0.000 OA
ATOM     24  H   UNL     1      -1.220   9.909  20.002  0.00  0.00    +0.000 HD
ENDBRANCH  13  23
ENDBRANCH  11  12
BRANCH   1  25
ATOM     25  O   UNL     1      -3.214  13.508  21.478  0.00  0.00    +0.000 OA
ATOM     26  H   UNL     1      -4.042  13.913  21.792  0.00  0.00    +0.000 HD
ENDBRANCH   1  25
TORSDOF 3
ENDMDL
MODEL 9
REMARK VINA RESULT:      -6.0      5.241      8.026
REMARK  Name = 
REMARK  3 active torsions:
REMARK  status: ('A' for Active; 'I' for Inactive)
REMARK    1  A    between atoms: O_1  and  C_2
REMARK    2  A    between atoms: C_12  and  C_13
REMARK    3  A    between atoms: C_14  and  O_15
REMARK                            x       y       z     vdW  Elec       q    Type
REMARK                         _______ _______ _______ _____ _____    ______ ____
ROOT
ATOM      1  C   UNL     1       0.225   9.679  21.363  0.00  0.00    +0.000 A 
ATOM      2  C   UNL     1       0.579   8.555  22.112  0.00  0.00    +0.000 A 
ATOM      3  C   UNL     1       1.335   7.557  21.524  0.00  0.00    +0.000 A 
ATOM      4  C   UNL     1       1.802   7.693  20.215  0.00  0.00    +0.000 A 
ATOM      5  C   UNL     1       2.453   6.600  19.630  0.00  0.00    +0.000 A 
ATOM      6  C   UNL     1       2.917   6.673  18.325  0.00  0.00    +0.000 A 
ATOM      7 BR   UNL     1       3.630   5.138  17.488  0.00  0.00    +0.000 Br
ATOM      8  C   UNL     1       2.854   7.873  17.641  0.00  0.00    +0.000 A 
ATOM      9  C   UNL     1       2.261   8.985  18.253  0.00  0.00    +0.000 A 
ATOM     10  C   UNL     1       1.582   8.905  19.495  0.00  0.00    +0.000 A 
ATOM     11  C   UNL     1       0.690   9.913  20.039  0.00  0.00    +0.000 A 
ENDROOT
BRANCH  11  12
ATOM     12  C   UNL     1       0.218  11.143  19.245  0.00  0.00    +0.000 A 
ATOM     13  C   UNL     1      -0.970  11.112  18.464  0.00  0.00    +0.000 A 
ATOM     14  C   UNL     1      -1.452  12.213  17.758  0.00  0.00    +0.000 A 
ATOM     15  C   UNL     1      -0.838  13.444  17.896  0.00  0.00    +0.000 A 
ATOM     16  C   UNL     1       0.285  13.582  18.708  0.00  0.00    +0.000 A 
ATOM     17  C   UNL     1       0.761  14.877  18.960  0.00  0.00    +0.000 A 
ATOM     18  C   UNL     1       1.837  15.084  19.810  0.00  0.00    +0.000 A 
ATOM     19  C   UNL     1       2.534  13.986  20.282  0.00  0.00    +0.000 A 
ATOM     20 BR   UNL     1       3.972  14.244  21.484  0.00  0.00    +0.000 Br
ATOM     21  C   UNL     1       2.130  12.687  19.950  0.00  0.00    +0.000 A 
ATOM     22  C   UNL     1       0.897  12.432  19.298  0.00  0.00    +0.000 A 
BRANCH  13  23
ATOM     23  O   UNL     1      -1.786  10.015  18.344  0.00  0.00    +0.000 OA
ATOM     24  H   UNL     1      -2.626  10.341  17.973  0.00  0.00    +0.000 HD
ENDBRANCH  13  23
ENDBRANCH  11  12
BRANCH   1  25
ATOM     25  O   UNL     1      -0.590  10.595  21.990  0.00  0.00    +0.000 OA
ATOM     26  H   UNL     1      -0.473  10.525  22.954  0.00  0.00    +0.000 HD
ENDBRANCH   1  25
TORSDOF 3
ENDMDL
