MODEL 1
REMARK VINA RESULT:      -8.6      0.000      0.000
REMARK  Name = 
REMARK  7 active torsions:
REMARK  status: ('A' for Active; 'I' for Inactive)
REMARK    1  A    between atoms: C_1  and  O_2
REMARK    2  A    between atoms: O_2  and  C_3
REMARK    3  A    between atoms: C_5  and  S_6
REMARK    4  A    between atoms: S_6  and  C_9
REMARK    5  A    between atoms: C_13  and  C_14
REMARK    6  A    between atoms: C_14  and  O_15
REMARK    7  A    between atoms: C_14  and  C_16
REMARK                            x       y       z     vdW  Elec       q    Type
REMARK                         _______ _______ _______ _____ _____    ______ ____
ROOT
ATOM      1  C   UNL     1       6.718   6.140  17.421  0.00  0.00    +0.000 A 
ATOM      2  C   UNL     1       5.588   6.026  18.248  0.00  0.00    +0.000 A 
ATOM      3  C   UNL     1       4.430   5.374  17.798  0.00  0.00    +0.000 A 
ATOM      4  C   UNL     1       4.353   4.789  16.529  0.00  0.00    +0.000 A 
ATOM      5  C   UNL     1       5.467   4.896  15.686  0.00  0.00    +0.000 A 
ATOM      6  C   UNL     1       5.763   4.456  14.375  0.00  0.00    +0.000 A 
ATOM      7  C   UNL     1       7.051   4.868  14.129  0.00  0.00    +0.000 A 
ATOM      8  O   UNL     1       7.579   5.542  15.176  0.00  0.00    +0.000 OA
ATOM      9  C   UNL     1       6.607   5.563  16.146  0.00  0.00    +0.000 A 
ATOM     10  C   UNL     1       7.808   4.640  12.883  0.00  0.00    +0.000 C 
ATOM     11  C   UNL     1       7.037   3.571  12.065  0.00  0.00    +0.000 C 
ATOM     12  N   UNL     1       5.573   3.795  12.049  0.00  0.00    +0.000 NA
ATOM     13  C   UNL     1       4.970   3.675  13.393  0.00  0.00    +0.000 C 
ATOM     14  H   UNL     1       5.133   3.109  11.438  0.00  0.00    +0.000 HD
ENDROOT
BRANCH   3  15
ATOM     15  S   UNL     1       3.023   5.213  18.872  0.00  0.00    +0.000 S 
ATOM     16  O   UNL     1       2.059   4.368  18.182  0.00  0.00    +0.000 OA
ATOM     17  O   UNL     1       3.515   4.834  20.182  0.00  0.00    +0.000 OA
BRANCH  15  18
ATOM     18  C   UNL     1       2.295   6.828  19.020  0.00  0.00    +0.000 A 
ATOM     19  C   UNL     1       2.154   7.622  17.882  0.00  0.00    +0.000 A 
ATOM     20  C   UNL     1       1.664   8.921  18.006  0.00  0.00    +0.000 A 
ATOM     21  C   UNL     1       1.332   9.428  19.264  0.00  0.00    +0.000 A 
ATOM     22  C   UNL     1       1.483   8.643  20.419  0.00  0.00    +0.000 A 
ATOM     23  C   UNL     1       1.961   7.328  20.286  0.00  0.00    +0.000 A 
BRANCH  22  24
ATOM     24  C   UNL     1       1.139   9.221  21.777  0.00  0.00    +0.000 C 
BRANCH  24  25
ATOM     25  C   UNL     1      -0.358   9.119  22.174  0.00  0.00    +0.000 C 
ATOM     26  F   UNL     1      -1.100  10.163  21.747  0.00  0.00    +0.000 F 
ATOM     27  F   UNL     1      -0.922   7.992  21.680  0.00  0.00    +0.000 F 
ATOM     28  F   UNL     1      -0.482   9.075  23.526  0.00  0.00    +0.000 F 
ENDBRANCH  24  25
BRANCH  24  29
ATOM     29  O   UNL     1       1.656  10.568  21.787  0.00  0.00    +0.000 OA
ATOM     30  H   UNL     1       1.792  10.823  22.718  0.00  0.00    +0.000 HD
ENDBRANCH  24  29
ENDBRANCH  22  24
ENDBRANCH  15  18
ENDBRANCH   3  15
BRANCH   1  32
ATOM     31  C   UNL     1       7.863   8.212  17.578  0.00  0.00    +0.000 C 
ATOM     32  O   UNL     1       7.870   6.800  17.747  0.00  0.00    +0.000 OA
ENDBRANCH   1  32
TORSDOF 6
ENDMDL
MODEL 2
REMARK VINA RESULT:      -8.5      4.623      8.805
REMARK  Name = 
REMARK  7 active torsions:
REMARK  status: ('A' for Active; 'I' for Inactive)
REMARK    1  A    between atoms: C_1  and  O_2
REMARK    2  A    between atoms: O_2  and  C_3
REMARK    3  A    between atoms: C_5  and  S_6
REMARK    4  A    between atoms: S_6  and  C_9
REMARK    5  A    between atoms: C_13  and  C_14
REMARK    6  A    between atoms: C_14  and  O_15
REMARK    7  A    between atoms: C_14  and  C_16
REMARK                            x       y       z     vdW  Elec       q    Type
REMARK                         _______ _______ _______ _____ _____    ______ ____
ROOT
ATOM      1  C   UNL     1       1.976   9.078  18.267  0.00  0.00    +0.000 A 
ATOM      2  C   UNL     1       2.447   7.759  18.158  0.00  0.00    +0.000 A 
ATOM      3  C   UNL     1       2.294   6.851  19.216  0.00  0.00    +0.000 A 
ATOM      4  C   UNL     1       1.650   7.201  20.409  0.00  0.00    +0.000 A 
ATOM      5  C   UNL     1       1.179   8.514  20.540  0.00  0.00    +0.000 A 
ATOM      6  C   UNL     1       0.504   9.226  21.560  0.00  0.00    +0.000 A 
ATOM      7  C   UNL     1       0.305  10.489  21.056  0.00  0.00    +0.000 A 
ATOM      8  O   UNL     1       0.812  10.628  19.810  0.00  0.00    +0.000 OA
ATOM      9  C   UNL     1       1.354   9.410  19.481  0.00  0.00    +0.000 A 
ATOM     10  C   UNL     1      -0.366  11.602  21.756  0.00  0.00    +0.000 C 
ATOM     11  C   UNL     1      -1.100  10.999  22.983  0.00  0.00    +0.000 C 
ATOM     12  N   UNL     1      -0.285  10.004  23.717  0.00  0.00    +0.000 NA
ATOM     13  C   UNL     1       0.019   8.811  22.899  0.00  0.00    +0.000 C 
ATOM     14  H   UNL     1      -0.790   9.702  24.549  0.00  0.00    +0.000 HD
ENDROOT
BRANCH   3  15
ATOM     15  S   UNL     1       2.867   5.176  19.045  0.00  0.00    +0.000 S 
ATOM     16  O   UNL     1       2.919   4.608  20.384  0.00  0.00    +0.000 OA
ATOM     17  O   UNL     1       2.065   4.544  18.016  0.00  0.00    +0.000 OA
BRANCH  15  18
ATOM     18  C   UNL     1       4.539   5.260  18.444  0.00  0.00    +0.000 A 
ATOM     19  C   UNL     1       5.582   5.460  19.349  0.00  0.00    +0.000 A 
ATOM     20  C   UNL     1       6.884   5.612  18.874  0.00  0.00    +0.000 A 
ATOM     21  C   UNL     1       7.138   5.579  17.502  0.00  0.00    +0.000 A 
ATOM     22  C   UNL     1       6.095   5.392  16.580  0.00  0.00    +0.000 A 
ATOM     23  C   UNL     1       4.786   5.222  17.066  0.00  0.00    +0.000 A 
BRANCH  22  24
ATOM     24  C   UNL     1       6.390   5.383  15.094  0.00  0.00    +0.000 C 
BRANCH  24  25
ATOM     25  C   UNL     1       5.982   4.083  14.351  0.00  0.00    +0.000 C 
ATOM     26  F   UNL     1       4.734   4.127  13.835  0.00  0.00    +0.000 F 
ATOM     27  F   UNL     1       6.831   3.811  13.334  0.00  0.00    +0.000 F 
ATOM     28  F   UNL     1       6.018   3.026  15.204  0.00  0.00    +0.000 F 
ENDBRANCH  24  25
BRANCH  24  29
ATOM     29  O   UNL     1       7.786   5.722  14.956  0.00  0.00    +0.000 OA
ATOM     30  H   UNL     1       8.219   5.531  15.808  0.00  0.00    +0.000 HD
ENDBRANCH  24  29
ENDBRANCH  22  24
ENDBRANCH  15  18
ENDBRANCH   3  15
BRANCH   1  32
ATOM     31  C   UNL     1       2.564  11.323  17.771  0.00  0.00    +0.000 C 
ATOM     32  O   UNL     1       2.124  10.049  17.317  0.00  0.00    +0.000 OA
ENDBRANCH   1  32
TORSDOF 6
ENDMDL
MODEL 3
REMARK VINA RESULT:      -8.2      3.353      5.450
REMARK  Name = 
REMARK  7 active torsions:
REMARK  status: ('A' for Active; 'I' for Inactive)
REMARK    1  A    between atoms: C_1  and  O_2
REMARK    2  A    between atoms: O_2  and  C_3
REMARK    3  A    between atoms: C_5  and  S_6
REMARK    4  A    between atoms: S_6  and  C_9
REMARK    5  A    between atoms: C_13  and  C_14
REMARK    6  A    between atoms: C_14  and  O_15
REMARK    7  A    between atoms: C_14  and  C_16
REMARK                            x       y       z     vdW  Elec       q    Type
REMARK                         _______ _______ _______ _____ _____    ______ ____
ROOT
ATOM      1  C   UNL     1       1.589   5.024  20.339  0.00  0.00    +0.000 A 
ATOM      2  C   UNL     1       1.070   6.150  21.000  0.00  0.00    +0.000 A 
ATOM      3  C   UNL     1       1.457   7.446  20.627  0.00  0.00    +0.000 A 
ATOM      4  C   UNL     1       2.348   7.680  19.573  0.00  0.00    +0.000 A 
ATOM      5  C   UNL     1       2.882   6.571  18.904  0.00  0.00    +0.000 A 
ATOM      6  C   UNL     1       3.786   6.404  17.829  0.00  0.00    +0.000 A 
ATOM      7  C   UNL     1       3.882   5.046  17.637  0.00  0.00    +0.000 A 
ATOM      8  O   UNL     1       3.121   4.351  18.512  0.00  0.00    +0.000 OA
ATOM      9  C   UNL     1       2.497   5.286  19.301  0.00  0.00    +0.000 A 
ATOM     10  C   UNL     1       4.712   4.375  16.618  0.00  0.00    +0.000 C 
ATOM     11  C   UNL     1       5.162   5.459  15.603  0.00  0.00    +0.000 C 
ATOM     12  N   UNL     1       5.601   6.716  16.252  0.00  0.00    +0.000 NA
ATOM     13  C   UNL     1       4.504   7.386  16.981  0.00  0.00    +0.000 C 
ATOM     14  H   UNL     1       5.953   7.357  15.543  0.00  0.00    +0.000 HD
ENDROOT
BRANCH   3  15
ATOM     15  S   UNL     1       0.763   8.858  21.455  0.00  0.00    +0.000 S 
ATOM     16  O   UNL     1      -0.491   8.424  22.052  0.00  0.00    +0.000 OA
ATOM     17  O   UNL     1       1.804   9.431  22.286  0.00  0.00    +0.000 OA
BRANCH  15  18
ATOM     18  C   UNL     1       0.363  10.050  20.199  0.00  0.00    +0.000 A 
ATOM     19  C   UNL     1       1.235  11.113  19.961  0.00  0.00    +0.000 A 
ATOM     20  C   UNL     1       0.883  12.097  19.038  0.00  0.00    +0.000 A 
ATOM     21  C   UNL     1      -0.339  12.027  18.369  0.00  0.00    +0.000 A 
ATOM     22  C   UNL     1      -1.232  10.969  18.610  0.00  0.00    +0.000 A 
ATOM     23  C   UNL     1      -0.865   9.970  19.529  0.00  0.00    +0.000 A 
BRANCH  22  24
ATOM     24  C   UNL     1      -2.565  10.924  17.890  0.00  0.00    +0.000 C 
BRANCH  24  25
ATOM     25  C   UNL     1      -2.529  10.274  16.481  0.00  0.00    +0.000 C 
ATOM     26  F   UNL     1      -1.511   9.401  16.318  0.00  0.00    +0.000 F 
ATOM     27  F   UNL     1      -3.678   9.610  16.216  0.00  0.00    +0.000 F 
ATOM     28  F   UNL     1      -2.383  11.231  15.528  0.00  0.00    +0.000 F 
ENDBRANCH  24  25
BRANCH  24  29
ATOM     29  O   UNL     1      -3.076  12.274  17.899  0.00  0.00    +0.000 OA
ATOM     30  H   UNL     1      -2.536  12.795  17.278  0.00  0.00    +0.000 HD
ENDBRANCH  24  29
ENDBRANCH  22  24
ENDBRANCH  15  18
ENDBRANCH   3  15
BRANCH   1  32
ATOM     31  C   UNL     1       2.174   3.113  21.618  0.00  0.00    +0.000 C 
ATOM     32  O   UNL     1       1.316   3.725  20.663  0.00  0.00    +0.000 OA
ENDBRANCH   1  32
TORSDOF 6
ENDMDL
MODEL 4
REMARK VINA RESULT:      -8.0      4.566      8.756
REMARK  Name = 
REMARK  7 active torsions:
REMARK  status: ('A' for Active; 'I' for Inactive)
REMARK    1  A    between atoms: C_1  and  O_2
REMARK    2  A    between atoms: O_2  and  C_3
REMARK    3  A    between atoms: C_5  and  S_6
REMARK    4  A    between atoms: S_6  and  C_9
REMARK    5  A    between atoms: C_13  and  C_14
REMARK    6  A    between atoms: C_14  and  O_15
REMARK    7  A    between atoms: C_14  and  C_16
REMARK                            x       y       z     vdW  Elec       q    Type
REMARK                         _______ _______ _______ _____ _____    ______ ____
ROOT
ATOM      1  C   UNL     1       1.997   8.821  18.354  0.00  0.00    +0.000 A 
ATOM      2  C   UNL     1       2.429   7.484  18.328  0.00  0.00    +0.000 A 
ATOM      3  C   UNL     1       2.225   6.640  19.430  0.00  0.00    +0.000 A 
ATOM      4  C   UNL     1       1.567   7.075  20.587  0.00  0.00    +0.000 A 
ATOM      5  C   UNL     1       1.133   8.407  20.635  0.00  0.00    +0.000 A 
ATOM      6  C   UNL     1       0.459   9.194  21.598  0.00  0.00    +0.000 A 
ATOM      7  C   UNL     1       0.310  10.433  21.021  0.00  0.00    +0.000 A 
ATOM      8  O   UNL     1       0.848  10.487  19.782  0.00  0.00    +0.000 OA
ATOM      9  C   UNL     1       1.359   9.237  19.533  0.00  0.00    +0.000 A 
ATOM     10  C   UNL     1      -0.341  11.602  21.644  0.00  0.00    +0.000 C 
ATOM     11  C   UNL     1      -1.120  11.090  22.884  0.00  0.00    +0.000 C 
ATOM     12  N   UNL     1      -0.352  10.113  23.690  0.00  0.00    +0.000 NA
ATOM     13  C   UNL     1      -0.068   8.868  22.946  0.00  0.00    +0.000 C 
ATOM     14  H   UNL     1      -0.883   9.873  24.526  0.00  0.00    +0.000 HD
ENDROOT
BRANCH   3  15
ATOM     15  S   UNL     1       2.750   4.943  19.364  0.00  0.00    +0.000 S 
ATOM     16  O   UNL     1       2.775   4.455  20.735  0.00  0.00    +0.000 OA
ATOM     17  O   UNL     1       1.937   4.274  18.368  0.00  0.00    +0.000 OA
BRANCH  15  18
ATOM     18  C   UNL     1       4.427   4.942  18.775  0.00  0.00    +0.000 A 
ATOM     19  C   UNL     1       5.419   5.570  19.528  0.00  0.00    +0.000 A 
ATOM     20  C   UNL     1       6.717   5.647  19.029  0.00  0.00    +0.000 A 
ATOM     21  C   UNL     1       7.020   5.110  17.776  0.00  0.00    +0.000 A 
ATOM     22  C   UNL     1       6.028   4.487  17.001  0.00  0.00    +0.000 A 
ATOM     23  C   UNL     1       4.723   4.397  17.518  0.00  0.00    +0.000 A 
BRANCH  22  24
ATOM     24  C   UNL     1       6.372   3.932  15.634  0.00  0.00    +0.000 C 
BRANCH  24  25
ATOM     25  C   UNL     1       5.984   4.843  14.439  0.00  0.00    +0.000 C 
ATOM     26  F   UNL     1       5.363   5.982  14.810  0.00  0.00    +0.000 F 
ATOM     27  F   UNL     1       7.072   5.192  13.714  0.00  0.00    +0.000 F 
ATOM     28  F   UNL     1       5.136   4.186  13.606  0.00  0.00    +0.000 F 
ENDBRANCH  24  25
BRANCH  24  29
ATOM     29  O   UNL     1       5.794   2.611  15.575  0.00  0.00    +0.000 OA
ATOM     30  H   UNL     1       6.527   1.972  15.528  0.00  0.00    +0.000 HD
ENDBRANCH  24  29
ENDBRANCH  22  24
ENDBRANCH  15  18
ENDBRANCH   3  15
BRANCH   1  32
ATOM     31  C   UNL     1       2.556  11.048  17.758  0.00  0.00    +0.000 C 
ATOM     32  O   UNL     1       2.196   9.733  17.356  0.00  0.00    +0.000 OA
ENDBRANCH   1  32
TORSDOF 6
ENDMDL
MODEL 5
REMARK VINA RESULT:      -8.0      1.657      2.331
REMARK  Name = 
REMARK  7 active torsions:
REMARK  status: ('A' for Active; 'I' for Inactive)
REMARK    1  A    between atoms: C_1  and  O_2
REMARK    2  A    between atoms: O_2  and  C_3
REMARK    3  A    between atoms: C_5  and  S_6
REMARK    4  A    between atoms: S_6  and  C_9
REMARK    5  A    between atoms: C_13  and  C_14
REMARK    6  A    between atoms: C_14  and  O_15
REMARK    7  A    between atoms: C_14  and  C_16
REMARK                            x       y       z     vdW  Elec       q    Type
REMARK                         _______ _______ _______ _____ _____    ______ ____
ROOT
ATOM      1  C   UNL     1       6.351   5.849  17.390  0.00  0.00    +0.000 A 
ATOM      2  C   UNL     1       5.180   5.576  18.116  0.00  0.00    +0.000 A 
ATOM      3  C   UNL     1       4.123   4.858  17.536  0.00  0.00    +0.000 A 
ATOM      4  C   UNL     1       4.194   4.361  16.229  0.00  0.00    +0.000 A 
ATOM      5  C   UNL     1       5.351   4.626  15.486  0.00  0.00    +0.000 A 
ATOM      6  C   UNL     1       5.781   4.309  14.176  0.00  0.00    +0.000 A 
ATOM      7  C   UNL     1       7.039   4.851  14.060  0.00  0.00    +0.000 A 
ATOM      8  O   UNL     1       7.425   5.492  15.186  0.00  0.00    +0.000 OA
ATOM      9  C   UNL     1       6.387   5.357  16.076  0.00  0.00    +0.000 A 
ATOM     10  C   UNL     1       7.903   4.781  12.865  0.00  0.00    +0.000 C 
ATOM     11  C   UNL     1       7.297   3.709  11.921  0.00  0.00    +0.000 C 
ATOM     12  N   UNL     1       5.823   3.803  11.804  0.00  0.00    +0.000 NA
ATOM     13  C   UNL     1       5.139   3.534  13.086  0.00  0.00    +0.000 C 
ATOM     14  H   UNL     1       5.495   3.126  11.117  0.00  0.00    +0.000 HD
ENDROOT
BRANCH   3  15
ATOM     15  S   UNL     1       2.663   4.496  18.483  0.00  0.00    +0.000 S 
ATOM     16  O   UNL     1       1.604   4.200  17.530  0.00  0.00    +0.000 OA
ATOM     17  O   UNL     1       3.028   3.521  19.491  0.00  0.00    +0.000 OA
BRANCH  15  18
ATOM     18  C   UNL     1       2.208   5.994  19.326  0.00  0.00    +0.000 A 
ATOM     19  C   UNL     1       1.864   5.942  20.678  0.00  0.00    +0.000 A 
ATOM     20  C   UNL     1       1.424   7.097  21.320  0.00  0.00    +0.000 A 
ATOM     21  C   UNL     1       1.314   8.295  20.612  0.00  0.00    +0.000 A 
ATOM     22  C   UNL     1       1.643   8.358  19.247  0.00  0.00    +0.000 A 
ATOM     23  C   UNL     1       2.103   7.193  18.609  0.00  0.00    +0.000 A 
BRANCH  22  24
ATOM     24  C   UNL     1       1.494   9.663  18.491  0.00  0.00    +0.000 C 
BRANCH  24  25
ATOM     25  C   UNL     1       0.053  10.238  18.453  0.00  0.00    +0.000 C 
ATOM     26  F   UNL     1      -0.654   9.995  19.578  0.00  0.00    +0.000 F 
ATOM     27  F   UNL     1       0.064  11.578  18.264  0.00  0.00    +0.000 F 
ATOM     28  F   UNL     1      -0.643   9.689  17.424  0.00  0.00    +0.000 F 
ENDBRANCH  24  25
BRANCH  24  29
ATOM     29  O   UNL     1       2.071   9.443  17.187  0.00  0.00    +0.000 OA
ATOM     30  H   UNL     1       3.025   9.632  17.254  0.00  0.00    +0.000 HD
ENDBRANCH  24  29
ENDBRANCH  22  24
ENDBRANCH  15  18
ENDBRANCH   3  15
BRANCH   1  32
ATOM     31  C   UNL     1       7.978   6.176  19.086  0.00  0.00    +0.000 C 
ATOM     32  O   UNL     1       7.409   6.583  17.848  0.00  0.00    +0.000 OA
ENDBRANCH   1  32
TORSDOF 6
ENDMDL
MODEL 6
REMARK VINA RESULT:      -8.0      1.661      2.270
REMARK  Name = 
REMARK  7 active torsions:
REMARK  status: ('A' for Active; 'I' for Inactive)
REMARK    1  A    between atoms: C_1  and  O_2
REMARK    2  A    between atoms: O_2  and  C_3
REMARK    3  A    between atoms: C_5  and  S_6
REMARK    4  A    between atoms: S_6  and  C_9
REMARK    5  A    between atoms: C_13  and  C_14
REMARK    6  A    between atoms: C_14  and  O_15
REMARK    7  A    between atoms: C_14  and  C_16
REMARK                            x       y       z     vdW  Elec       q    Type
REMARK                         _______ _______ _______ _____ _____    ______ ____
ROOT
ATOM      1  C   UNL     1       6.782   5.677  17.360  0.00  0.00    +0.000 A 
ATOM      2  C   UNL     1       5.732   5.306  18.216  0.00  0.00    +0.000 A 
ATOM      3  C   UNL     1       4.652   4.547  17.743  0.00  0.00    +0.000 A 
ATOM      4  C   UNL     1       4.579   4.104  16.417  0.00  0.00    +0.000 A 
ATOM      5  C   UNL     1       5.614   4.469  15.545  0.00  0.00    +0.000 A 
ATOM      6  C   UNL     1       5.886   4.228  14.178  0.00  0.00    +0.000 A 
ATOM      7  C   UNL     1       7.086   4.851  13.927  0.00  0.00    +0.000 A 
ATOM      8  O   UNL     1       7.578   5.471  15.023  0.00  0.00    +0.000 OA
ATOM      9  C   UNL     1       6.675   5.240  16.030  0.00  0.00    +0.000 A 
ATOM     10  C   UNL     1       7.790   4.880  12.629  0.00  0.00    +0.000 C 
ATOM     11  C   UNL     1       7.128   3.809  11.723  0.00  0.00    +0.000 C 
ATOM     12  N   UNL     1       5.648   3.815  11.800  0.00  0.00    +0.000 NA
ATOM     13  C   UNL     1       5.153   3.456  13.145  0.00  0.00    +0.000 C 
ATOM     14  H   UNL     1       5.272   3.147  11.130  0.00  0.00    +0.000 HD
ENDROOT
BRANCH   3  15
ATOM     15  S   UNL     1       3.350   4.060  18.851  0.00  0.00    +0.000 S 
ATOM     16  O   UNL     1       2.320   3.425  18.041  0.00  0.00    +0.000 OA
ATOM     17  O   UNL     1       3.960   3.336  19.950  0.00  0.00    +0.000 OA
BRANCH  15  18
ATOM     18  C   UNL     1       2.650   5.552  19.516  0.00  0.00    +0.000 A 
ATOM     19  C   UNL     1       1.988   5.511  20.744  0.00  0.00    +0.000 A 
ATOM     20  C   UNL     1       1.363   6.659  21.227  0.00  0.00    +0.000 A 
ATOM     21  C   UNL     1       1.387   7.838  20.481  0.00  0.00    +0.000 A 
ATOM     22  C   UNL     1       2.038   7.890  19.237  0.00  0.00    +0.000 A 
ATOM     23  C   UNL     1       2.682   6.733  18.762  0.00  0.00    +0.000 A 
BRANCH  22  24
ATOM     24  C   UNL     1       2.033   9.173  18.431  0.00  0.00    +0.000 C 
BRANCH  24  25
ATOM     25  C   UNL     1       0.694   9.958  18.456  0.00  0.00    +0.000 C 
ATOM     26  F   UNL     1       0.846  11.286  18.264  0.00  0.00    +0.000 F 
ATOM     27  F   UNL     1      -0.158   9.506  17.507  0.00  0.00    +0.000 F 
ATOM     28  F   UNL     1       0.082   9.802  19.659  0.00  0.00    +0.000 F 
ENDBRANCH  24  25
BRANCH  24  29
ATOM     29  O   UNL     1       2.480   8.821  17.105  0.00  0.00    +0.000 OA
ATOM     30  H   UNL     1       1.708   8.869  16.513  0.00  0.00    +0.000 HD
ENDBRANCH  24  29
ENDBRANCH  22  24
ENDBRANCH  15  18
ENDBRANCH   3  15
BRANCH   1  32
ATOM     31  C   UNL     1       7.677   7.864  17.582  0.00  0.00    +0.000 C 
ATOM     32  O   UNL     1       7.847   6.458  17.711  0.00  0.00    +0.000 OA
ENDBRANCH   1  32
TORSDOF 6
ENDMDL
MODEL 7
REMARK VINA RESULT:      -8.0      4.372      8.506
REMARK  Name = 
REMARK  7 active torsions:
REMARK  status: ('A' for Active; 'I' for Inactive)
REMARK    1  A    between atoms: C_1  and  O_2
REMARK    2  A    between atoms: O_2  and  C_3
REMARK    3  A    between atoms: C_5  and  S_6
REMARK    4  A    between atoms: S_6  and  C_9
REMARK    5  A    between atoms: C_13  and  C_14
REMARK    6  A    between atoms: C_14  and  O_15
REMARK    7  A    between atoms: C_14  and  C_16
REMARK                            x       y       z     vdW  Elec       q    Type
REMARK                         _______ _______ _______ _____ _____    ______ ____
ROOT
ATOM      1  C   UNL     1       1.816   8.844  18.489  0.00  0.00    +0.000 A 
ATOM      2  C   UNL     1       2.165   7.486  18.578  0.00  0.00    +0.000 A 
ATOM      3  C   UNL     1       1.879   6.744  19.733  0.00  0.00    +0.000 A 
ATOM      4  C   UNL     1       1.216   7.305  20.831  0.00  0.00    +0.000 A 
ATOM      5  C   UNL     1       0.864   8.660  20.765  0.00  0.00    +0.000 A 
ATOM      6  C   UNL     1       0.213   9.557  21.643  0.00  0.00    +0.000 A 
ATOM      7  C   UNL     1       0.157  10.755  20.970  0.00  0.00    +0.000 A 
ATOM      8  O   UNL     1       0.733  10.682  19.749  0.00  0.00    +0.000 OA
ATOM      9  C   UNL     1       1.173   9.388  19.612  0.00  0.00    +0.000 A 
ATOM     10  C   UNL     1      -0.437  12.006  21.482  0.00  0.00    +0.000 C 
ATOM     11  C   UNL     1      -1.281  11.638  22.731  0.00  0.00    +0.000 C 
ATOM     12  N   UNL     1      -0.598  10.682  23.633  0.00  0.00    +0.000 NA
ATOM     13  C   UNL     1      -0.370   9.369  22.994  0.00  0.00    +0.000 C 
ATOM     14  H   UNL     1      -1.166  10.539  24.466  0.00  0.00    +0.000 HD
ENDROOT
BRANCH   3  15
ATOM     15  S   UNL     1       2.299   5.018  19.812  0.00  0.00    +0.000 S 
ATOM     16  O   UNL     1       2.913   4.792  21.112  0.00  0.00    +0.000 OA
ATOM     17  O   UNL     1       1.124   4.265  19.421  0.00  0.00    +0.000 OA
BRANCH  15  18
ATOM     18  C   UNL     1       3.551   4.733  18.583  0.00  0.00    +0.000 A 
ATOM     19  C   UNL     1       3.243   3.972  17.455  0.00  0.00    +0.000 A 
ATOM     20  C   UNL     1       4.244   3.673  16.532  0.00  0.00    +0.000 A 
ATOM     21  C   UNL     1       5.549   4.121  16.744  0.00  0.00    +0.000 A 
ATOM     22  C   UNL     1       5.876   4.877  17.882  0.00  0.00    +0.000 A 
ATOM     23  C   UNL     1       4.858   5.189  18.801  0.00  0.00    +0.000 A 
BRANCH  22  24
ATOM     24  C   UNL     1       7.303   5.333  18.105  0.00  0.00    +0.000 C 
BRANCH  24  25
ATOM     25  C   UNL     1       7.574   6.827  17.781  0.00  0.00    +0.000 C 
ATOM     26  F   UNL     1       8.083   7.026  16.546  0.00  0.00    +0.000 F 
ATOM     27  F   UNL     1       6.442   7.563  17.876  0.00  0.00    +0.000 F 
ATOM     28  F   UNL     1       8.468   7.342  18.664  0.00  0.00    +0.000 F 
ENDBRANCH  24  25
BRANCH  24  29
ATOM     29  O   UNL     1       8.141   4.414  17.372  0.00  0.00    +0.000 OA
ATOM     30  H   UNL     1       8.018   4.599  16.423  0.00  0.00    +0.000 HD
ENDBRANCH  24  29
ENDBRANCH  22  24
ENDBRANCH  15  18
ENDBRANCH   3  15
BRANCH   1  32
ATOM     31  C   UNL     1       2.554  10.973  17.745  0.00  0.00    +0.000 C 
ATOM     32  O   UNL     1       2.099   9.663  17.432  0.00  0.00    +0.000 OA
ENDBRANCH   1  32
TORSDOF 6
ENDMDL
MODEL 8
REMARK VINA RESULT:      -8.0      3.163      5.338
REMARK  Name = 
REMARK  7 active torsions:
REMARK  status: ('A' for Active; 'I' for Inactive)
REMARK    1  A    between atoms: C_1  and  O_2
REMARK    2  A    between atoms: O_2  and  C_3
REMARK    3  A    between atoms: C_5  and  S_6
REMARK    4  A    between atoms: S_6  and  C_9
REMARK    5  A    between atoms: C_13  and  C_14
REMARK    6  A    between atoms: C_14  and  O_15
REMARK    7  A    between atoms: C_14  and  C_16
REMARK                            x       y       z     vdW  Elec       q    Type
REMARK                         _______ _______ _______ _____ _____    ______ ____
ROOT
ATOM      1  C   UNL     1       1.609   5.034  20.320  0.00  0.00    +0.000 A 
ATOM      2  C   UNL     1       1.069   6.145  20.989  0.00  0.00    +0.000 A 
ATOM      3  C   UNL     1       1.436   7.451  20.630  0.00  0.00    +0.000 A 
ATOM      4  C   UNL     1       2.328   7.709  19.582  0.00  0.00    +0.000 A 
ATOM      5  C   UNL     1       2.883   6.615  18.906  0.00  0.00    +0.000 A 
ATOM      6  C   UNL     1       3.795   6.472  17.834  0.00  0.00    +0.000 A 
ATOM      7  C   UNL     1       3.913   5.118  17.629  0.00  0.00    +0.000 A 
ATOM      8  O   UNL     1       3.160   4.403  18.495  0.00  0.00    +0.000 OA
ATOM      9  C   UNL     1       2.517   5.320  19.289  0.00  0.00    +0.000 A 
ATOM     10  C   UNL     1       4.760   4.470  16.608  0.00  0.00    +0.000 C 
ATOM     11  C   UNL     1       5.196   5.570  15.605  0.00  0.00    +0.000 C 
ATOM     12  N   UNL     1       5.612   6.828  16.268  0.00  0.00    +0.000 NA
ATOM     13  C   UNL     1       4.501   7.474  16.998  0.00  0.00    +0.000 C 
ATOM     14  H   UNL     1       5.957   7.481  15.566  0.00  0.00    +0.000 HD
ENDROOT
BRANCH   3  15
ATOM     15  S   UNL     1       0.716   8.844  21.467  0.00  0.00    +0.000 S 
ATOM     16  O   UNL     1      -0.594   8.421  21.941  0.00  0.00    +0.000 OA
ATOM     17  O   UNL     1       1.701   9.346  22.405  0.00  0.00    +0.000 OA
BRANCH  15  18
ATOM     18  C   UNL     1       0.450  10.104  20.243  0.00  0.00    +0.000 A 
ATOM     19  C   UNL     1       1.205  11.277  20.291  0.00  0.00    +0.000 A 
ATOM     20  C   UNL     1       0.940  12.303  19.386  0.00  0.00    +0.000 A 
ATOM     21  C   UNL     1      -0.084  12.164  18.447  0.00  0.00    +0.000 A 
ATOM     22  C   UNL     1      -0.860  10.994  18.397  0.00  0.00    +0.000 A 
ATOM     23  C   UNL     1      -0.577   9.955  19.301  0.00  0.00    +0.000 A 
BRANCH  22  24
ATOM     24  C   UNL     1      -1.982  10.873  17.386  0.00  0.00    +0.000 C 
BRANCH  24  25
ATOM     25  C   UNL     1      -3.403  11.151  17.945  0.00  0.00    +0.000 C 
ATOM     26  F   UNL     1      -4.141  10.033  18.119  0.00  0.00    +0.000 F 
ATOM     27  F   UNL     1      -3.346  11.788  19.138  0.00  0.00    +0.000 F 
ATOM     28  F   UNL     1      -4.094  11.950  17.091  0.00  0.00    +0.000 F 
ENDBRANCH  24  25
BRANCH  24  29
ATOM     29  O   UNL     1      -1.838   9.573  16.774  0.00  0.00    +0.000 OA
ATOM     30  H   UNL     1      -1.749   9.710  15.814  0.00  0.00    +0.000 HD
ENDBRANCH  24  29
ENDBRANCH  22  24
ENDBRANCH  15  18
ENDBRANCH   3  15
BRANCH   1  32
ATOM     31  C   UNL     1       2.114   3.168  21.696  0.00  0.00    +0.000 C 
ATOM     32  O   UNL     1       1.356   3.728  20.631  0.00  0.00    +0.000 OA
ENDBRANCH   1  32
TORSDOF 6
ENDMDL
MODEL 9
REMARK VINA RESULT:      -7.8      1.074      1.266
REMARK  Name = 
REMARK  7 active torsions:
REMARK  status: ('A' for Active; 'I' for Inactive)
REMARK    1  A    between atoms: C_1  and  O_2
REMARK    2  A    between atoms: O_2  and  C_3
REMARK    3  A    between atoms: C_5  and  S_6
REMARK    4  A    between atoms: S_6  and  C_9
REMARK    5  A    between atoms: C_13  and  C_14
REMARK    6  A    between atoms: C_14  and  O_15
REMARK    7  A    between atoms: C_14  and  C_16
REMARK                            x       y       z     vdW  Elec       q    Type
REMARK                         _______ _______ _______ _____ _____    ______ ____
ROOT
ATOM      1  C   UNL     1       6.813   6.391  16.876  0.00  0.00    +0.000 A 
ATOM      2  C   UNL     1       5.779   6.304  17.822  0.00  0.00    +0.000 A 
ATOM      3  C   UNL     1       4.635   5.532  17.570  0.00  0.00    +0.000 A 
ATOM      4  C   UNL     1       4.481   4.796  16.389  0.00  0.00    +0.000 A 
ATOM      5  C   UNL     1       5.499   4.873  15.429  0.00  0.00    +0.000 A 
ATOM      6  C   UNL     1       5.700   4.301  14.152  0.00  0.00    +0.000 A 
ATOM      7  C   UNL     1       6.925   4.762  13.730  0.00  0.00    +0.000 A 
ATOM      8  O   UNL     1       7.498   5.587  14.635  0.00  0.00    +0.000 OA
ATOM      9  C   UNL     1       6.624   5.661  15.691  0.00  0.00    +0.000 A 
ATOM     10  C   UNL     1       7.575   4.437  12.445  0.00  0.00    +0.000 C 
ATOM     11  C   UNL     1       6.812   3.231  11.835  0.00  0.00    +0.000 C 
ATOM     12  N   UNL     1       5.340   3.358  11.946  0.00  0.00    +0.000 NA
ATOM     13  C   UNL     1       4.879   3.360  13.350  0.00  0.00    +0.000 C 
ATOM     14  H   UNL     1       4.896   2.578  11.464  0.00  0.00    +0.000 HD
ENDROOT
BRANCH   3  15
ATOM     15  S   UNL     1       3.352   5.410  18.795  0.00  0.00    +0.000 S 
ATOM     16  O   UNL     1       2.415   4.399  18.327  0.00  0.00    +0.000 OA
ATOM     17  O   UNL     1       3.995   5.264  20.087  0.00  0.00    +0.000 OA
BRANCH  15  18
ATOM     18  C   UNL     1       2.489   6.964  18.799  0.00  0.00    +0.000 A 
ATOM     19  C   UNL     1       2.727   7.882  17.776  0.00  0.00    +0.000 A 
ATOM     20  C   UNL     1       2.119   9.135  17.821  0.00  0.00    +0.000 A 
ATOM     21  C   UNL     1       1.289   9.474  18.891  0.00  0.00    +0.000 A 
ATOM     22  C   UNL     1       1.053   8.564  19.935  0.00  0.00    +0.000 A 
ATOM     23  C   UNL     1       1.655   7.295  19.875  0.00  0.00    +0.000 A 
BRANCH  22  24
ATOM     24  C   UNL     1       0.168   8.960  21.099  0.00  0.00    +0.000 C 
BRANCH  24  25
ATOM     25  C   UNL     1       0.879   9.761  22.222  0.00  0.00    +0.000 C 
ATOM     26  F   UNL     1       2.042   9.206  22.625  0.00  0.00    +0.000 F 
ATOM     27  F   UNL     1       1.150  11.027  21.827  0.00  0.00    +0.000 F 
ATOM     28  F   UNL     1       0.080   9.841  23.318  0.00  0.00    +0.000 F 
ENDBRANCH  24  25
BRANCH  24  29
ATOM     29  O   UNL     1      -0.467   7.747  21.557  0.00  0.00    +0.000 OA
ATOM     30  H   UNL     1      -0.144   7.019  20.997  0.00  0.00    +0.000 HD
ENDBRANCH  24  29
ENDBRANCH  22  24
ENDBRANCH  15  18
ENDBRANCH   3  15
BRANCH   1  32
ATOM     31  C   UNL     1       8.075   7.885  18.219  0.00  0.00    +0.000 C 
ATOM     32  O   UNL     1       7.937   7.156  17.005  0.00  0.00    +0.000 OA
ENDBRANCH   1  32
TORSDOF 6
ENDMDL
