MODEL 1
REMARK VINA RESULT:      -8.5      0.000      0.000
REMARK  Name = 
REMARK  5 active torsions:
REMARK  status: ('A' for Active; 'I' for Inactive)
REMARK    1  A    between atoms: C_1  and  O_2
REMARK    2  A    between atoms: O_2  and  C_3
REMARK    3  A    between atoms: C_9  and  N_10
REMARK    4  A    between atoms: N_10  and  C_11
REMARK    5  A    between atoms: N_10  and  C_12
REMARK                            x       y       z     vdW  Elec       q    Type
REMARK                         _______ _______ _______ _____ _____    ______ ____
ROOT
ATOM      1  C   UNL     1       0.969   8.731  20.153  0.00  0.00    +0.000 A 
ATOM      2  C   UNL     1       0.973   9.855  19.320  0.00  0.00    +0.000 A 
ATOM      3  C   UNL     1       1.687   9.839  18.123  0.00  0.00    +0.000 A 
ATOM      4  C   UNL     1       2.402   8.702  17.756  0.00  0.00    +0.000 A 
ATOM      5  C   UNL     1       2.434   7.571  18.586  0.00  0.00    +0.000 A 
ATOM      6  C   UNL     1       3.188   6.438  18.228  0.00  0.00    +0.000 A 
ATOM      7  C   UNL     1       3.311   5.317  19.069  0.00  0.00    +0.000 A 
ATOM      8  C   UNL     1       2.588   5.333  20.265  0.00  0.00    +0.000 A 
ATOM      9  C   UNL     1       1.806   6.436  20.624  0.00  0.00    +0.000 A 
ATOM     10  C   UNL     1       1.720   7.581  19.805  0.00  0.00    +0.000 A 
ENDROOT
BRANCH   1  12
ATOM     11  C   UNL     1       0.739   9.614  22.344  0.00  0.00    +0.000 C 
ATOM     12  O   UNL     1       0.294   8.693  21.352  0.00  0.00    +0.000 OA
ENDBRANCH   1  12
BRANCH   7  13
ATOM     13  N   UNL     1       4.181   4.269  18.731  0.00  0.00    +0.000 N 
ATOM     14  C   UNL     1       3.857   2.904  19.150  0.00  0.00    +0.000 C 
BRANCH  13  15
ATOM     15  C   UNL     1       5.456   4.357  18.126  0.00  0.00    +0.000 A 
ATOM     16  N   UNL     1       6.534   4.580  18.913  0.00  0.00    +0.000 NA
ATOM     17  C   UNL     1       7.737   4.711  18.318  0.00  0.00    +0.000 A 
ATOM     18  N   UNL     1       7.983   4.685  17.004  0.00  0.00    +0.000 NA
ATOM     19  C   UNL     1       6.893   4.489  16.256  0.00  0.00    +0.000 A 
ATOM     20  C   UNL     1       5.620   4.303  16.754  0.00  0.00    +0.000 A 
ATOM     21  C   UNL     1       4.623   4.169  15.656  0.00  0.00    +0.000 C 
ATOM     22  C   UNL     1       5.447   4.352  14.376  0.00  0.00    +0.000 C 
ATOM     23  C   UNL     1       6.921   4.514  14.760  0.00  0.00    +0.000 C 
ENDBRANCH  13  15
ENDBRANCH   7  13
TORSDOF 3
ENDMDL
MODEL 2
REMARK VINA RESULT:      -7.9      1.423      2.407
REMARK  Name = 
REMARK  5 active torsions:
REMARK  status: ('A' for Active; 'I' for Inactive)
REMARK    1  A    between atoms: C_1  and  O_2
REMARK    2  A    between atoms: O_2  and  C_3
REMARK    3  A    between atoms: C_9  and  N_10
REMARK    4  A    between atoms: N_10  and  C_11
REMARK    5  A    between atoms: N_10  and  C_12
REMARK                            x       y       z     vdW  Elec       q    Type
REMARK                         _______ _______ _______ _____ _____    ______ ____
ROOT
ATOM      1  C   UNL     1       0.555  10.358  19.629  0.00  0.00    +0.000 A 
ATOM      2  C   UNL     1      -0.035  10.514  20.888  0.00  0.00    +0.000 A 
ATOM      3  C   UNL     1       0.142   9.542  21.871  0.00  0.00    +0.000 A 
ATOM      4  C   UNL     1       0.908   8.411  21.600  0.00  0.00    +0.000 A 
ATOM      5  C   UNL     1       1.490   8.219  20.337  0.00  0.00    +0.000 A 
ATOM      6  C   UNL     1       2.232   7.057  20.057  0.00  0.00    +0.000 A 
ATOM      7  C   UNL     1       2.762   6.791  18.782  0.00  0.00    +0.000 A 
ATOM      8  C   UNL     1       2.589   7.769  17.800  0.00  0.00    +0.000 A 
ATOM      9  C   UNL     1       1.883   8.948  18.068  0.00  0.00    +0.000 A 
ATOM     10  C   UNL     1       1.308   9.195  19.332  0.00  0.00    +0.000 A 
ENDROOT
BRANCH   1  12
ATOM     11  C   UNL     1       0.850  12.599  18.904  0.00  0.00    +0.000 C 
ATOM     12  O   UNL     1       0.404  11.276  18.615  0.00  0.00    +0.000 OA
ENDBRANCH   1  12
BRANCH   7  13
ATOM     13  N   UNL     1       3.379   5.558  18.514  0.00  0.00    +0.000 N 
ATOM     14  C   UNL     1       2.561   4.345  18.456  0.00  0.00    +0.000 C 
BRANCH  13  15
ATOM     15  C   UNL     1       4.762   5.279  18.415  0.00  0.00    +0.000 A 
ATOM     16  N   UNL     1       5.533   5.429  19.516  0.00  0.00    +0.000 NA
ATOM     17  C   UNL     1       6.859   5.208  19.396  0.00  0.00    +0.000 A 
ATOM     18  N   UNL     1       7.515   4.890  18.275  0.00  0.00    +0.000 NA
ATOM     19  C   UNL     1       6.725   4.777  17.204  0.00  0.00    +0.000 A 
ATOM     20  C   UNL     1       5.355   4.940  17.214  0.00  0.00    +0.000 A 
ATOM     21  C   UNL     1       4.783   4.803  15.846  0.00  0.00    +0.000 C 
ATOM     22  C   UNL     1       6.005   4.579  14.948  0.00  0.00    +0.000 C 
ATOM     23  C   UNL     1       7.257   4.517  15.828  0.00  0.00    +0.000 C 
ENDBRANCH  13  15
ENDBRANCH   7  13
TORSDOF 3
ENDMDL
MODEL 3
REMARK VINA RESULT:      -7.8      1.177      2.142
REMARK  Name = 
REMARK  5 active torsions:
REMARK  status: ('A' for Active; 'I' for Inactive)
REMARK    1  A    between atoms: C_1  and  O_2
REMARK    2  A    between atoms: O_2  and  C_3
REMARK    3  A    between atoms: C_9  and  N_10
REMARK    4  A    between atoms: N_10  and  C_11
REMARK    5  A    between atoms: N_10  and  C_12
REMARK                            x       y       z     vdW  Elec       q    Type
REMARK                         _______ _______ _______ _____ _____    ______ ____
ROOT
ATOM      1  C   UNL     1       1.088   8.892  20.610  0.00  0.00    +0.000 A 
ATOM      2  C   UNL     1       0.976  10.148  20.004  0.00  0.00    +0.000 A 
ATOM      3  C   UNL     1       1.345  10.319  18.671  0.00  0.00    +0.000 A 
ATOM      4  C   UNL     1       1.828   9.236  17.940  0.00  0.00    +0.000 A 
ATOM      5  C   UNL     1       1.974   7.972  18.533  0.00  0.00    +0.000 A 
ATOM      6  C   UNL     1       2.498   6.891  17.800  0.00  0.00    +0.000 A 
ATOM      7  C   UNL     1       2.734   5.632  18.380  0.00  0.00    +0.000 A 
ATOM      8  C   UNL     1       2.357   5.461  19.715  0.00  0.00    +0.000 A 
ATOM      9  C   UNL     1       1.803   6.515  20.451  0.00  0.00    +0.000 A 
ATOM     10  C   UNL     1       1.611   7.792  19.886  0.00  0.00    +0.000 A 
ENDROOT
BRANCH   1  12
ATOM     11  C   UNL     1      -0.075   9.654  22.534  0.00  0.00    +0.000 C 
ATOM     12  O   UNL     1       0.752   8.666  21.926  0.00  0.00    +0.000 OA
ENDBRANCH   1  12
BRANCH   7  13
ATOM     13  N   UNL     1       3.383   4.625  17.648  0.00  0.00    +0.000 N 
ATOM     14  C   UNL     1       2.723   3.331  17.468  0.00  0.00    +0.000 C 
BRANCH  13  15
ATOM     15  C   UNL     1       4.704   4.629  17.143  0.00  0.00    +0.000 A 
ATOM     16  N   UNL     1       4.920   4.177  15.887  0.00  0.00    +0.000 NA
ATOM     17  C   UNL     1       6.190   4.140  15.435  0.00  0.00    +0.000 A 
ATOM     18  N   UNL     1       7.289   4.471  16.122  0.00  0.00    +0.000 NA
ATOM     19  C   UNL     1       7.041   4.887  17.367  0.00  0.00    +0.000 A 
ATOM     20  C   UNL     1       5.783   5.004  17.922  0.00  0.00    +0.000 A 
ATOM     21  C   UNL     1       5.857   5.440  19.344  0.00  0.00    +0.000 C 
ATOM     22  C   UNL     1       7.359   5.535  19.631  0.00  0.00    +0.000 C 
ATOM     23  C   UNL     1       8.126   5.222  18.343  0.00  0.00    +0.000 C 
ENDBRANCH  13  15
ENDBRANCH   7  13
TORSDOF 3
ENDMDL
MODEL 4
REMARK VINA RESULT:      -7.6      2.085      3.856
REMARK  Name = 
REMARK  5 active torsions:
REMARK  status: ('A' for Active; 'I' for Inactive)
REMARK    1  A    between atoms: C_1  and  O_2
REMARK    2  A    between atoms: O_2  and  C_3
REMARK    3  A    between atoms: C_9  and  N_10
REMARK    4  A    between atoms: N_10  and  C_11
REMARK    5  A    between atoms: N_10  and  C_12
REMARK                            x       y       z     vdW  Elec       q    Type
REMARK                         _______ _______ _______ _____ _____    ______ ____
ROOT
ATOM      1  C   UNL     1       0.208  10.367  19.545  0.00  0.00    +0.000 A 
ATOM      2  C   UNL     1      -0.411  10.317  20.798  0.00  0.00    +0.000 A 
ATOM      3  C   UNL     1      -0.098   9.298  21.696  0.00  0.00    +0.000 A 
ATOM      4  C   UNL     1       0.833   8.324  21.343  0.00  0.00    +0.000 A 
ATOM      5  C   UNL     1       1.449   8.337  20.082  0.00  0.00    +0.000 A 
ATOM      6  C   UNL     1       2.361   7.330  19.717  0.00  0.00    +0.000 A 
ATOM      7  C   UNL     1       2.938   7.263  18.436  0.00  0.00    +0.000 A 
ATOM      8  C   UNL     1       2.628   8.290  17.541  0.00  0.00    +0.000 A 
ATOM      9  C   UNL     1       1.749   9.319  17.896  0.00  0.00    +0.000 A 
ATOM     10  C   UNL     1       1.131   9.361  19.163  0.00  0.00    +0.000 A 
ENDROOT
BRANCH   1  12
ATOM     11  C   UNL     1      -1.145  12.219  18.935  0.00  0.00    +0.000 C 
ATOM     12  O   UNL     1      -0.071  11.341  18.612  0.00  0.00    +0.000 OA
ENDBRANCH   1  12
BRANCH   7  13
ATOM     13  N   UNL     1       3.736   6.166  18.075  0.00  0.00    +0.000 N 
ATOM     14  C   UNL     1       4.475   6.202  16.812  0.00  0.00    +0.000 C 
BRANCH  13  15
ATOM     15  C   UNL     1       3.835   4.911  18.719  0.00  0.00    +0.000 A 
ATOM     16  N   UNL     1       5.034   4.528  19.214  0.00  0.00    +0.000 NA
ATOM     17  C   UNL     1       5.126   3.308  19.782  0.00  0.00    +0.000 A 
ATOM     18  N   UNL     1       4.149   2.399  19.877  0.00  0.00    +0.000 NA
ATOM     19  C   UNL     1       2.988   2.800  19.355  0.00  0.00    +0.000 A 
ATOM     20  C   UNL     1       2.765   4.037  18.785  0.00  0.00    +0.000 A 
ATOM     21  C   UNL     1       1.381   4.145  18.248  0.00  0.00    +0.000 C 
ATOM     22  C   UNL     1       0.765   2.767  18.515  0.00  0.00    +0.000 C 
ATOM     23  C   UNL     1       1.786   1.911  19.269  0.00  0.00    +0.000 C 
ENDBRANCH  13  15
ENDBRANCH   7  13
TORSDOF 3
ENDMDL
MODEL 5
REMARK VINA RESULT:      -7.5      2.502      4.554
REMARK  Name = 
REMARK  5 active torsions:
REMARK  status: ('A' for Active; 'I' for Inactive)
REMARK    1  A    between atoms: C_1  and  O_2
REMARK    2  A    between atoms: O_2  and  C_3
REMARK    3  A    between atoms: C_9  and  N_10
REMARK    4  A    between atoms: N_10  and  C_11
REMARK    5  A    between atoms: N_10  and  C_12
REMARK                            x       y       z     vdW  Elec       q    Type
REMARK                         _______ _______ _______ _____ _____    ______ ____
ROOT
ATOM      1  C   UNL     1       0.054  10.560  19.543  0.00  0.00    +0.000 A 
ATOM      2  C   UNL     1      -0.509  10.685  20.818  0.00  0.00    +0.000 A 
ATOM      3  C   UNL     1      -0.177   9.780  21.824  0.00  0.00    +0.000 A 
ATOM      4  C   UNL     1       0.717   8.745  21.559  0.00  0.00    +0.000 A 
ATOM      5  C   UNL     1       1.276   8.583  20.282  0.00  0.00    +0.000 A 
ATOM      6  C   UNL     1       2.150   7.514  20.011  0.00  0.00    +0.000 A 
ATOM      7  C   UNL     1       2.667   7.271  18.725  0.00  0.00    +0.000 A 
ATOM      8  C   UNL     1       2.338   8.184  17.720  0.00  0.00    +0.000 A 
ATOM      9  C   UNL     1       1.497   9.273  17.978  0.00  0.00    +0.000 A 
ATOM     10  C   UNL     1       0.938   9.491  19.254  0.00  0.00    +0.000 A 
ENDROOT
BRANCH   1  12
ATOM     11  C   UNL     1      -1.616  11.459  18.116  0.00  0.00    +0.000 C 
ATOM     12  O   UNL     1      -0.247  11.415  18.507  0.00  0.00    +0.000 OA
ENDBRANCH   1  12
BRANCH   7  13
ATOM     13  N   UNL     1       3.425   6.116  18.473  0.00  0.00    +0.000 N 
ATOM     14  C   UNL     1       4.818   6.253  18.044  0.00  0.00    +0.000 C 
BRANCH  13  15
ATOM     15  C   UNL     1       2.983   4.773  18.444  0.00  0.00    +0.000 A 
ATOM     16  N   UNL     1       2.860   4.157  17.246  0.00  0.00    +0.000 NA
ATOM     17  C   UNL     1       2.390   2.893  17.228  0.00  0.00    +0.000 A 
ATOM     18  N   UNL     1       1.984   2.180  18.285  0.00  0.00    +0.000 NA
ATOM     19  C   UNL     1       2.094   2.829  19.447  0.00  0.00    +0.000 A 
ATOM     20  C   UNL     1       2.597   4.106  19.591  0.00  0.00    +0.000 A 
ATOM     21  C   UNL     1       2.530   4.557  21.009  0.00  0.00    +0.000 C 
ATOM     22  C   UNL     1       1.857   3.393  21.743  0.00  0.00    +0.000 C 
ATOM     23  C   UNL     1       1.615   2.257  20.745  0.00  0.00    +0.000 C 
ENDBRANCH  13  15
ENDBRANCH   7  13
TORSDOF 3
ENDMDL
MODEL 6
REMARK VINA RESULT:      -7.5      4.187      7.958
REMARK  Name = 
REMARK  5 active torsions:
REMARK  status: ('A' for Active; 'I' for Inactive)
REMARK    1  A    between atoms: C_1  and  O_2
REMARK    2  A    between atoms: O_2  and  C_3
REMARK    3  A    between atoms: C_9  and  N_10
REMARK    4  A    between atoms: N_10  and  C_11
REMARK    5  A    between atoms: N_10  and  C_12
REMARK                            x       y       z     vdW  Elec       q    Type
REMARK                         _______ _______ _______ _____ _____    ______ ____
ROOT
ATOM      1  C   UNL     1       2.633   5.626  19.898  0.00  0.00    +0.000 A 
ATOM      2  C   UNL     1       3.353   4.973  18.892  0.00  0.00    +0.000 A 
ATOM      3  C   UNL     1       3.683   5.645  17.716  0.00  0.00    +0.000 A 
ATOM      4  C   UNL     1       3.292   6.970  17.541  0.00  0.00    +0.000 A 
ATOM      5  C   UNL     1       2.547   7.639  18.524  0.00  0.00    +0.000 A 
ATOM      6  C   UNL     1       2.123   8.965  18.325  0.00  0.00    +0.000 A 
ATOM      7  C   UNL     1       1.307   9.643  19.249  0.00  0.00    +0.000 A 
ATOM      8  C   UNL     1       0.984   8.970  20.430  0.00  0.00    +0.000 A 
ATOM      9  C   UNL     1       1.424   7.661  20.662  0.00  0.00    +0.000 A 
ATOM     10  C   UNL     1       2.200   6.963  19.714  0.00  0.00    +0.000 A 
ENDROOT
BRANCH   1  12
ATOM     11  C   UNL     1       1.524   3.801  20.935  0.00  0.00    +0.000 C 
ATOM     12  O   UNL     1       2.266   5.010  21.073  0.00  0.00    +0.000 OA
ENDBRANCH   1  12
BRANCH   7  13
ATOM     13  N   UNL     1       0.798  10.916  18.947  0.00  0.00    +0.000 N 
ATOM     14  C   UNL     1       1.718  11.978  18.538  0.00  0.00    +0.000 C 
BRANCH  13  15
ATOM     15  C   UNL     1      -0.526  11.386  19.112  0.00  0.00    +0.000 A 
ATOM     16  N   UNL     1      -0.793  12.222  20.141  0.00  0.00    +0.000 NA
ATOM     17  C   UNL     1      -2.069  12.623  20.318  0.00  0.00    +0.000 A 
ATOM     18  N   UNL     1      -3.129  12.245  19.595  0.00  0.00    +0.000 NA
ATOM     19  C   UNL     1      -2.832  11.399  18.605  0.00  0.00    +0.000 A 
ATOM     20  C   UNL     1      -1.562  10.952  18.306  0.00  0.00    +0.000 A 
ATOM     21  C   UNL     1      -1.582   9.975  17.182  0.00  0.00    +0.000 C 
ATOM     22  C   UNL     1      -3.068   9.825  16.841  0.00  0.00    +0.000 C 
ATOM     23  C   UNL     1      -3.875  10.777  17.729  0.00  0.00    +0.000 C 
ENDBRANCH  13  15
ENDBRANCH   7  13
TORSDOF 3
ENDMDL
MODEL 7
REMARK VINA RESULT:      -7.4      1.594      3.070
REMARK  Name = 
REMARK  5 active torsions:
REMARK  status: ('A' for Active; 'I' for Inactive)
REMARK    1  A    between atoms: C_1  and  O_2
REMARK    2  A    between atoms: O_2  and  C_3
REMARK    3  A    between atoms: C_9  and  N_10
REMARK    4  A    between atoms: N_10  and  C_11
REMARK    5  A    between atoms: N_10  and  C_12
REMARK                            x       y       z     vdW  Elec       q    Type
REMARK                         _______ _______ _______ _____ _____    ______ ____
ROOT
ATOM      1  C   UNL     1       0.550  10.339  19.689  0.00  0.00    +0.000 A 
ATOM      2  C   UNL     1      -0.092  10.621  20.899  0.00  0.00    +0.000 A 
ATOM      3  C   UNL     1      -0.009   9.724  21.963  0.00  0.00    +0.000 A 
ATOM      4  C   UNL     1       0.714   8.543  21.820  0.00  0.00    +0.000 A 
ATOM      5  C   UNL     1       1.347   8.225  20.608  0.00  0.00    +0.000 A 
ATOM      6  C   UNL     1       2.045   7.013  20.457  0.00  0.00    +0.000 A 
ATOM      7  C   UNL     1       2.623   6.622  19.236  0.00  0.00    +0.000 A 
ATOM      8  C   UNL     1       2.544   7.526  18.173  0.00  0.00    +0.000 A 
ATOM      9  C   UNL     1       1.883   8.752  18.312  0.00  0.00    +0.000 A 
ATOM     10  C   UNL     1       1.260   9.124  19.522  0.00  0.00    +0.000 A 
ENDROOT
BRANCH   1  12
ATOM     11  C   UNL     1       0.090  12.519  18.870  0.00  0.00    +0.000 C 
ATOM     12  O   UNL     1       0.492  11.179  18.599  0.00  0.00    +0.000 OA
ENDBRANCH   1  12
BRANCH   7  13
ATOM     13  N   UNL     1       3.191   5.346  19.097  0.00  0.00    +0.000 N 
ATOM     14  C   UNL     1       2.977   4.347  20.144  0.00  0.00    +0.000 C 
BRANCH  13  15
ATOM     15  C   UNL     1       4.097   4.900  18.106  0.00  0.00    +0.000 A 
ATOM     16  N   UNL     1       3.611   4.217  17.044  0.00  0.00    +0.000 NA
ATOM     17  C   UNL     1       4.490   3.755  16.131  0.00  0.00    +0.000 A 
ATOM     18  N   UNL     1       5.823   3.865  16.182  0.00  0.00    +0.000 NA
ATOM     19  C   UNL     1       6.268   4.521  17.257  0.00  0.00    +0.000 A 
ATOM     20  C   UNL     1       5.463   5.071  18.233  0.00  0.00    +0.000 A 
ATOM     21  C   UNL     1       6.273   5.683  19.322  0.00  0.00    +0.000 C 
ATOM     22  C   UNL     1       7.723   5.394  18.920  0.00  0.00    +0.000 C 
ATOM     23  C   UNL     1       7.724   4.682  17.564  0.00  0.00    +0.000 C 
ENDBRANCH  13  15
ENDBRANCH   7  13
TORSDOF 3
ENDMDL
MODEL 8
REMARK VINA RESULT:      -7.4      2.229      3.364
REMARK  Name = 
REMARK  5 active torsions:
REMARK  status: ('A' for Active; 'I' for Inactive)
REMARK    1  A    between atoms: C_1  and  O_2
REMARK    2  A    between atoms: O_2  and  C_3
REMARK    3  A    between atoms: C_9  and  N_10
REMARK    4  A    between atoms: N_10  and  C_11
REMARK    5  A    between atoms: N_10  and  C_12
REMARK                            x       y       z     vdW  Elec       q    Type
REMARK                         _______ _______ _______ _____ _____    ______ ____
ROOT
ATOM      1  C   UNL     1      -0.297  10.245  21.041  0.00  0.00    +0.000 A 
ATOM      2  C   UNL     1      -0.747  11.377  20.353  0.00  0.00    +0.000 A 
ATOM      3  C   UNL     1      -0.370  11.588  19.028  0.00  0.00    +0.000 A 
ATOM      4  C   UNL     1       0.460  10.672  18.388  0.00  0.00    +0.000 A 
ATOM      5  C   UNL     1       0.946   9.542  19.064  0.00  0.00    +0.000 A 
ATOM      6  C   UNL     1       1.814   8.639  18.423  0.00  0.00    +0.000 A 
ATOM      7  C   UNL     1       2.385   7.540  19.090  0.00  0.00    +0.000 A 
ATOM      8  C   UNL     1       2.000   7.326  20.416  0.00  0.00    +0.000 A 
ATOM      9  C   UNL     1       1.111   8.194  21.061  0.00  0.00    +0.000 A 
ATOM     10  C   UNL     1       0.576   9.324  20.409  0.00  0.00    +0.000 A 
ENDROOT
BRANCH   1  12
ATOM     11  C   UNL     1      -1.223  11.070  23.065  0.00  0.00    +0.000 C 
ATOM     12  O   UNL     1      -0.625   9.990  22.354  0.00  0.00    +0.000 OA
ENDBRANCH   1  12
BRANCH   7  13
ATOM     13  N   UNL     1       3.349   6.745  18.450  0.00  0.00    +0.000 N 
ATOM     14  C   UNL     1       3.902   7.181  17.167  0.00  0.00    +0.000 C 
BRANCH  13  15
ATOM     15  C   UNL     1       3.794   5.453  18.816  0.00  0.00    +0.000 A 
ATOM     16  N   UNL     1       5.100   5.278  19.120  0.00  0.00    +0.000 NA
ATOM     17  C   UNL     1       5.521   4.032  19.418  0.00  0.00    +0.000 A 
ATOM     18  N   UNL     1       4.780   2.918  19.407  0.00  0.00    +0.000 NA
ATOM     19  C   UNL     1       3.503   3.124  19.077  0.00  0.00    +0.000 A 
ATOM     20  C   UNL     1       2.952   4.356  18.791  0.00  0.00    +0.000 A 
ATOM     21  C   UNL     1       1.519   4.233  18.406  0.00  0.00    +0.000 C 
ATOM     22  C   UNL     1       1.249   2.725  18.437  0.00  0.00    +0.000 C 
ATOM     23  C   UNL     1       2.516   2.009  18.914  0.00  0.00    +0.000 C 
ENDBRANCH  13  15
ENDBRANCH   7  13
TORSDOF 3
ENDMDL
MODEL 9
REMARK VINA RESULT:      -7.4      1.334      2.167
REMARK  Name = 
REMARK  5 active torsions:
REMARK  status: ('A' for Active; 'I' for Inactive)
REMARK    1  A    between atoms: C_1  and  O_2
REMARK    2  A    between atoms: O_2  and  C_3
REMARK    3  A    between atoms: C_9  and  N_10
REMARK    4  A    between atoms: N_10  and  C_11
REMARK    5  A    between atoms: N_10  and  C_12
REMARK                            x       y       z     vdW  Elec       q    Type
REMARK                         _______ _______ _______ _____ _____    ______ ____
ROOT
ATOM      1  C   UNL     1       0.710   9.662  20.348  0.00  0.00    +0.000 A 
ATOM      2  C   UNL     1       0.852  10.734  19.461  0.00  0.00    +0.000 A 
ATOM      3  C   UNL     1       1.529  10.563  18.255  0.00  0.00    +0.000 A 
ATOM      4  C   UNL     1       2.067   9.320  17.932  0.00  0.00    +0.000 A 
ATOM      5  C   UNL     1       1.960   8.235  18.815  0.00  0.00    +0.000 A 
ATOM      6  C   UNL     1       2.539   6.992  18.500  0.00  0.00    +0.000 A 
ATOM      7  C   UNL     1       2.523   5.905  19.393  0.00  0.00    +0.000 A 
ATOM      8  C   UNL     1       1.838   6.077  20.599  0.00  0.00    +0.000 A 
ATOM      9  C   UNL     1       1.227   7.296  20.916  0.00  0.00    +0.000 A 
ATOM     10  C   UNL     1       1.284   8.402  20.044  0.00  0.00    +0.000 A 
ENDROOT
BRANCH   1  12
ATOM     11  C   UNL     1      -0.167  11.104  22.017  0.00  0.00    +0.000 C 
ATOM     12  O   UNL     1       0.064   9.775  21.559  0.00  0.00    +0.000 OA
ENDBRANCH   1  12
BRANCH   7  13
ATOM     13  N   UNL     1       3.229   4.729  19.091  0.00  0.00    +0.000 N 
ATOM     14  C   UNL     1       3.115   3.575  19.985  0.00  0.00    +0.000 C 
BRANCH  13  15
ATOM     15  C   UNL     1       4.186   4.526  18.070  0.00  0.00    +0.000 A 
ATOM     16  N   UNL     1       3.809   3.870  16.949  0.00  0.00    +0.000 NA
ATOM     17  C   UNL     1       4.744   3.640  16.004  0.00  0.00    +0.000 A 
ATOM     18  N   UNL     1       6.041   3.960  16.073  0.00  0.00    +0.000 NA
ATOM     19  C   UNL     1       6.382   4.582  17.204  0.00  0.00    +0.000 A 
ATOM     20  C   UNL     1       5.507   4.905  18.221  0.00  0.00    +0.000 A 
ATOM     21  C   UNL     1       6.216   5.542  19.365  0.00  0.00    +0.000 C 
ATOM     22  C   UNL     1       7.690   5.529  18.947  0.00  0.00    +0.000 C 
ATOM     23  C   UNL     1       7.796   4.951  17.533  0.00  0.00    +0.000 C 
ENDBRANCH  13  15
ENDBRANCH   7  13
TORSDOF 3
ENDMDL
