MODEL 1
REMARK VINA RESULT:      -9.1      0.000      0.000
REMARK  Name = 
REMARK  10 active torsions:
REMARK  status: ('A' for Active; 'I' for Inactive)
REMARK    1  A    between atoms: C_1  and  C_2
REMARK    2  A    between atoms: C_2  and  N_3
REMARK    3  A    between atoms: C_2  and  C_4
REMARK    4  A    between atoms: N_6  and  C_7
REMARK    5  A    between atoms: C_7  and  C_8
REMARK    6  A    between atoms: C_12  and  N_13
REMARK    7  A    between atoms: C_15  and  C_16
REMARK    8  A    between atoms: C_21  and  C_22
REMARK    9  A    between atoms: N_24  and  C_25
REMARK   10  A    between atoms: C_25  and  C_26
REMARK                            x       y       z     vdW  Elec       q    Type
REMARK                         _______ _______ _______ _____ _____    ______ ____
ROOT
ATOM      1  N   UNL     1       6.428   5.006  15.861  0.00  0.00    +0.000 N 
ATOM      2  N   UNL     1       6.943   5.085  14.603  0.00  0.00    +0.000 NA
ATOM      3  C   UNL     1       6.248   4.198  13.873  0.00  0.00    +0.000 A 
ATOM      4  C   UNL     1       5.188   3.650  14.638  0.00  0.00    +0.000 A 
ATOM      5  C   UNL     1       5.279   4.223  15.897  0.00  0.00    +0.000 A 
ENDROOT
BRANCH   1  10
ATOM      6  C   UNL     1       7.928   7.728  17.916  0.00  0.00    +0.000 A 
ATOM      7  C   UNL     1       8.315   7.012  19.055  0.00  0.00    +0.000 A 
ATOM      8  C   UNL     1       8.133   5.628  19.117  0.00  0.00    +0.000 A 
ATOM      9  C   UNL     1       7.539   4.952  18.052  0.00  0.00    +0.000 A 
ATOM     10  C   UNL     1       7.114   5.659  16.923  0.00  0.00    +0.000 A 
ATOM     11  C   UNL     1       7.360   7.038  16.832  0.00  0.00    +0.000 A 
BRANCH   6  12
ATOM     12  C   UNL     1       8.108   9.222  17.849  0.00  0.00    +0.000 C 
BRANCH  12  15
ATOM     13  C   UNL     1       9.663  10.798  18.889  0.00  0.00    +0.000 C 
ATOM     14  O   UNL     1       9.852  11.386  17.825  0.00  0.00    +0.000 OA
ATOM     15  N   UNL     1       8.813   9.720  19.003  0.00  0.00    +0.000 N 
ATOM     16  H   UNL     1       8.834   9.149  19.837  0.00  0.00    +0.000 HD
BRANCH  13  18
ATOM     17  C   UNL     1       9.436  12.000  21.102  0.00  0.00    +0.000 C 
ATOM     18  C   UNL     1      10.371  11.203  20.202  0.00  0.00    +0.000 C 
BRANCH  18  19
ATOM     19  N   UNL     1      11.564  12.020  19.899  0.00  0.00    +0.000 NA
ATOM     20  H   UNL     1      11.310  12.675  19.154  0.00  0.00    +0.000 HD
ATOM     21  H   UNL     1      12.247  11.409  19.444  0.00  0.00    +0.000 HD
ENDBRANCH  18  19
ENDBRANCH  13  18
ENDBRANCH  12  15
ENDBRANCH   6  12
ENDBRANCH   1  10
BRANCH   3  22
ATOM     22  C   UNL     1       6.571   3.885  12.434  0.00  0.00    +0.000 C 
ATOM     23  F   UNL     1       7.069   2.636  12.241  0.00  0.00    +0.000 F 
ATOM     24  F   UNL     1       5.462   3.990  11.652  0.00  0.00    +0.000 F 
ATOM     25  F   UNL     1       7.480   4.757  11.925  0.00  0.00    +0.000 F 
ENDBRANCH   3  22
BRANCH   5  26
ATOM     26  C   UNL     1       4.356   4.165  17.009  0.00  0.00    +0.000 C 
ATOM     27  O   UNL     1       3.817   3.128  17.385  0.00  0.00    +0.000 OA
ATOM     28  N   UNL     1       4.115   5.363  17.641  0.00  0.00    +0.000 N 
ATOM     29  H   UNL     1       4.565   6.207  17.322  0.00  0.00    +0.000 HD
BRANCH  28  30
ATOM     30  C   UNL     1       3.159   5.470  18.722  0.00  0.00    +0.000 C 
BRANCH  30  31
ATOM     31  C   UNL     1       2.577   6.857  18.806  0.00  0.00    +0.000 A 
ATOM     32  C   UNL     1       1.970   7.310  19.991  0.00  0.00    +0.000 A 
ATOM     33  C   UNL     1       1.425   8.596  20.063  0.00  0.00    +0.000 A 
ATOM     34  C   UNL     1       1.478   9.438  18.956  0.00  0.00    +0.000 A 
ATOM     35  C   UNL     1       2.075   9.001  17.778  0.00  0.00    +0.000 A 
ATOM     36  C   UNL     1       2.623   7.718  17.701  0.00  0.00    +0.000 A 
ENDBRANCH  30  31
ENDBRANCH  28  30
ENDBRANCH   5  26
TORSDOF 9
ENDMDL
MODEL 2
REMARK VINA RESULT:      -9.0      0.730      1.345
REMARK  Name = 
REMARK  10 active torsions:
REMARK  status: ('A' for Active; 'I' for Inactive)
REMARK    1  A    between atoms: C_1  and  C_2
REMARK    2  A    between atoms: C_2  and  N_3
REMARK    3  A    between atoms: C_2  and  C_4
REMARK    4  A    between atoms: N_6  and  C_7
REMARK    5  A    between atoms: C_7  and  C_8
REMARK    6  A    between atoms: C_12  and  N_13
REMARK    7  A    between atoms: C_15  and  C_16
REMARK    8  A    between atoms: C_21  and  C_22
REMARK    9  A    between atoms: N_24  and  C_25
REMARK   10  A    between atoms: C_25  and  C_26
REMARK                            x       y       z     vdW  Elec       q    Type
REMARK                         _______ _______ _______ _____ _____    ______ ____
ROOT
ATOM      1  N   UNL     1       6.421   5.032  16.005  0.00  0.00    +0.000 N 
ATOM      2  N   UNL     1       6.844   5.114  14.713  0.00  0.00    +0.000 NA
ATOM      3  C   UNL     1       6.167   4.162  14.052  0.00  0.00    +0.000 A 
ATOM      4  C   UNL     1       5.203   3.561  14.899  0.00  0.00    +0.000 A 
ATOM      5  C   UNL     1       5.336   4.171  16.135  0.00  0.00    +0.000 A 
ENDROOT
BRANCH   1  10
ATOM      6  C   UNL     1       7.963   7.891  17.829  0.00  0.00    +0.000 A 
ATOM      7  C   UNL     1       8.370   7.259  19.010  0.00  0.00    +0.000 A 
ATOM      8  C   UNL     1       8.187   5.884  19.176  0.00  0.00    +0.000 A 
ATOM      9  C   UNL     1       7.573   5.133  18.174  0.00  0.00    +0.000 A 
ATOM     10  C   UNL     1       7.127   5.758  17.004  0.00  0.00    +0.000 A 
ATOM     11  C   UNL     1       7.375   7.126  16.809  0.00  0.00    +0.000 A 
BRANCH   6  12
ATOM     12  C   UNL     1       8.145   9.375  17.650  0.00  0.00    +0.000 C 
BRANCH  12  15
ATOM     13  C   UNL     1       9.249  11.259  18.752  0.00  0.00    +0.000 C 
ATOM     14  O   UNL     1       9.190  11.950  17.736  0.00  0.00    +0.000 OA
ATOM     15  N   UNL     1       8.753   9.976  18.810  0.00  0.00    +0.000 N 
ATOM     16  H   UNL     1       8.992   9.379  19.591  0.00  0.00    +0.000 HD
BRANCH  13  18
ATOM     17  C   UNL     1      11.416  11.712  19.974  0.00  0.00    +0.000 C 
ATOM     18  C   UNL     1       9.896  11.761  20.063  0.00  0.00    +0.000 C 
BRANCH  18  19
ATOM     19  N   UNL     1       9.451  10.925  21.196  0.00  0.00    +0.000 NA
ATOM     20  H   UNL     1       8.585  10.459  20.916  0.00  0.00    +0.000 HD
ATOM     21  H   UNL     1       9.142  11.556  21.940  0.00  0.00    +0.000 HD
ENDBRANCH  18  19
ENDBRANCH  13  18
ENDBRANCH  12  15
ENDBRANCH   6  12
ENDBRANCH   1  10
BRANCH   3  22
ATOM     22  C   UNL     1       6.416   3.835  12.601  0.00  0.00    +0.000 C 
ATOM     23  F   UNL     1       7.397   4.579  12.029  0.00  0.00    +0.000 F 
ATOM     24  F   UNL     1       6.775   2.531  12.450  0.00  0.00    +0.000 F 
ATOM     25  F   UNL     1       5.296   4.010  11.851  0.00  0.00    +0.000 F 
ENDBRANCH   3  22
BRANCH   5  26
ATOM     26  C   UNL     1       4.495   4.077  17.309  0.00  0.00    +0.000 C 
ATOM     27  O   UNL     1       4.654   3.234  18.186  0.00  0.00    +0.000 OA
ATOM     28  N   UNL     1       3.489   5.012  17.391  0.00  0.00    +0.000 N 
ATOM     29  H   UNL     1       3.370   5.700  16.664  0.00  0.00    +0.000 HD
BRANCH  28  30
ATOM     30  C   UNL     1       2.526   4.993  18.472  0.00  0.00    +0.000 C 
BRANCH  30  31
ATOM     31  C   UNL     1       2.182   6.388  18.925  0.00  0.00    +0.000 A 
ATOM     32  C   UNL     1       2.253   7.471  18.031  0.00  0.00    +0.000 A 
ATOM     33  C   UNL     1       1.939   8.766  18.457  0.00  0.00    +0.000 A 
ATOM     34  C   UNL     1       1.557   8.991  19.776  0.00  0.00    +0.000 A 
ATOM     35  C   UNL     1       1.484   7.928  20.670  0.00  0.00    +0.000 A 
ATOM     36  C   UNL     1       1.794   6.633  20.250  0.00  0.00    +0.000 A 
ENDBRANCH  30  31
ENDBRANCH  28  30
ENDBRANCH   5  26
TORSDOF 9
ENDMDL
MODEL 3
REMARK VINA RESULT:      -8.9      0.529      1.208
REMARK  Name = 
REMARK  10 active torsions:
REMARK  status: ('A' for Active; 'I' for Inactive)
REMARK    1  A    between atoms: C_1  and  C_2
REMARK    2  A    between atoms: C_2  and  N_3
REMARK    3  A    between atoms: C_2  and  C_4
REMARK    4  A    between atoms: N_6  and  C_7
REMARK    5  A    between atoms: C_7  and  C_8
REMARK    6  A    between atoms: C_12  and  N_13
REMARK    7  A    between atoms: C_15  and  C_16
REMARK    8  A    between atoms: C_21  and  C_22
REMARK    9  A    between atoms: N_24  and  C_25
REMARK   10  A    between atoms: C_25  and  C_26
REMARK                            x       y       z     vdW  Elec       q    Type
REMARK                         _______ _______ _______ _____ _____    ______ ____
ROOT
ATOM      1  N   UNL     1       6.428   4.928  15.811  0.00  0.00    +0.000 N 
ATOM      2  N   UNL     1       6.908   5.063  14.544  0.00  0.00    +0.000 NA
ATOM      3  C   UNL     1       6.249   4.152  13.810  0.00  0.00    +0.000 A 
ATOM      4  C   UNL     1       5.242   3.527  14.587  0.00  0.00    +0.000 A 
ATOM      5  C   UNL     1       5.328   4.079  15.855  0.00  0.00    +0.000 A 
ENDROOT
BRANCH   1  10
ATOM      6  C   UNL     1       7.849   7.688  17.871  0.00  0.00    +0.000 A 
ATOM      7  C   UNL     1       8.270   6.979  19.003  0.00  0.00    +0.000 A 
ATOM      8  C   UNL     1       8.138   5.590  19.057  0.00  0.00    +0.000 A 
ATOM      9  C   UNL     1       7.559   4.900  17.993  0.00  0.00    +0.000 A 
ATOM     10  C   UNL     1       7.099   5.599  16.872  0.00  0.00    +0.000 A 
ATOM     11  C   UNL     1       7.297   6.985  16.788  0.00  0.00    +0.000 A 
BRANCH   6  12
ATOM     12  C   UNL     1       7.976   9.188  17.813  0.00  0.00    +0.000 C 
BRANCH  12  15
ATOM     13  C   UNL     1       9.449  10.976  18.596  0.00  0.00    +0.000 C 
ATOM     14  O   UNL     1       8.918  11.803  17.856  0.00  0.00    +0.000 OA
ATOM     15  N   UNL     1       9.049   9.660  18.651  0.00  0.00    +0.000 N 
ATOM     16  H   UNL     1       9.630   8.976  19.118  0.00  0.00    +0.000 HD
BRANCH  13  18
ATOM     17  C   UNL     1      10.149  12.127  20.736  0.00  0.00    +0.000 C 
ATOM     18  C   UNL     1      10.629  11.331  19.530  0.00  0.00    +0.000 C 
BRANCH  18  19
ATOM     19  N   UNL     1      11.632  12.127  18.793  0.00  0.00    +0.000 NA
ATOM     20  H   UNL     1      11.452  12.003  17.793  0.00  0.00    +0.000 HD
ATOM     21  H   UNL     1      12.539  11.673  18.921  0.00  0.00    +0.000 HD
ENDBRANCH  18  19
ENDBRANCH  13  18
ENDBRANCH  12  15
ENDBRANCH   6  12
ENDBRANCH   1  10
BRANCH   3  22
ATOM     22  C   UNL     1       6.557   3.887  12.358  0.00  0.00    +0.000 C 
ATOM     23  F   UNL     1       5.487   4.030  11.534  0.00  0.00    +0.000 F 
ATOM     24  F   UNL     1       7.519   4.734  11.902  0.00  0.00    +0.000 F 
ATOM     25  F   UNL     1       7.037   2.630  12.170  0.00  0.00    +0.000 F 
ENDBRANCH   3  22
BRANCH   5  26
ATOM     26  C   UNL     1       4.436   3.943  16.986  0.00  0.00    +0.000 C 
ATOM     27  O   UNL     1       4.451   2.979  17.745  0.00  0.00    +0.000 OA
ATOM     28  N   UNL     1       3.554   4.983  17.171  0.00  0.00    +0.000 N 
ATOM     29  H   UNL     1       3.554   5.770  16.540  0.00  0.00    +0.000 HD
BRANCH  28  30
ATOM     30  C   UNL     1       2.555   4.950  18.217  0.00  0.00    +0.000 C 
BRANCH  30  31
ATOM     31  C   UNL     1       2.251   6.333  18.729  0.00  0.00    +0.000 A 
ATOM     32  C   UNL     1       2.287   7.444  17.866  0.00  0.00    +0.000 A 
ATOM     33  C   UNL     1       2.011   8.728  18.347  0.00  0.00    +0.000 A 
ATOM     34  C   UNL     1       1.700   8.916  19.690  0.00  0.00    +0.000 A 
ATOM     35  C   UNL     1       1.661   7.826  20.555  0.00  0.00    +0.000 A 
ATOM     36  C   UNL     1       1.934   6.541  20.079  0.00  0.00    +0.000 A 
ENDBRANCH  30  31
ENDBRANCH  28  30
ENDBRANCH   5  26
TORSDOF 9
ENDMDL
MODEL 4
REMARK VINA RESULT:      -8.9      0.933      1.333
REMARK  Name = 
REMARK  10 active torsions:
REMARK  status: ('A' for Active; 'I' for Inactive)
REMARK    1  A    between atoms: C_1  and  C_2
REMARK    2  A    between atoms: C_2  and  N_3
REMARK    3  A    between atoms: C_2  and  C_4
REMARK    4  A    between atoms: N_6  and  C_7
REMARK    5  A    between atoms: C_7  and  C_8
REMARK    6  A    between atoms: C_12  and  N_13
REMARK    7  A    between atoms: C_15  and  C_16
REMARK    8  A    between atoms: C_21  and  C_22
REMARK    9  A    between atoms: N_24  and  C_25
REMARK   10  A    between atoms: C_25  and  C_26
REMARK                            x       y       z     vdW  Elec       q    Type
REMARK                         _______ _______ _______ _____ _____    ______ ____
ROOT
ATOM      1  N   UNL     1       6.541   4.932  15.847  0.00  0.00    +0.000 N 
ATOM      2  N   UNL     1       7.009   5.114  14.581  0.00  0.00    +0.000 NA
ATOM      3  C   UNL     1       6.399   4.180  13.834  0.00  0.00    +0.000 A 
ATOM      4  C   UNL     1       5.430   3.487  14.602  0.00  0.00    +0.000 A 
ATOM      5  C   UNL     1       5.490   4.022  15.879  0.00  0.00    +0.000 A 
ENDROOT
BRANCH   1  10
ATOM      6  C   UNL     1       7.849   7.730  17.930  0.00  0.00    +0.000 A 
ATOM      7  C   UNL     1       8.278   7.032  19.066  0.00  0.00    +0.000 A 
ATOM      8  C   UNL     1       8.189   5.639  19.116  0.00  0.00    +0.000 A 
ATOM      9  C   UNL     1       7.645   4.933  18.043  0.00  0.00    +0.000 A 
ATOM     10  C   UNL     1       7.178   5.620  16.918  0.00  0.00    +0.000 A 
ATOM     11  C   UNL     1       7.333   7.013  16.839  0.00  0.00    +0.000 A 
BRANCH   6  12
ATOM     12  C   UNL     1       7.930   9.233  17.875  0.00  0.00    +0.000 C 
BRANCH  12  15
ATOM     13  C   UNL     1       9.546  11.032  18.245  0.00  0.00    +0.000 C 
ATOM     14  O   UNL     1       8.832  11.855  17.672  0.00  0.00    +0.000 OA
ATOM     15  N   UNL     1       9.183   9.713  18.402  0.00  0.00    +0.000 N 
ATOM     16  H   UNL     1       9.872   9.034  18.699  0.00  0.00    +0.000 HD
BRANCH  13  18
ATOM     17  C   UNL     1      10.804  12.517  19.859  0.00  0.00    +0.000 C 
ATOM     18  C   UNL     1      10.927  11.397  18.835  0.00  0.00    +0.000 C 
BRANCH  18  19
ATOM     19  N   UNL     1      11.838  11.826  17.755  0.00  0.00    +0.000 NA
ATOM     20  H   UNL     1      12.794  11.623  18.056  0.00  0.00    +0.000 HD
ATOM     21  H   UNL     1      11.819  12.849  17.725  0.00  0.00    +0.000 HD
ENDBRANCH  18  19
ENDBRANCH  13  18
ENDBRANCH  12  15
ENDBRANCH   6  12
ENDBRANCH   1  10
BRANCH   3  22
ATOM     22  C   UNL     1       6.716   3.957  12.377  0.00  0.00    +0.000 C 
ATOM     23  F   UNL     1       7.591   4.857  11.860  0.00  0.00    +0.000 F 
ATOM     24  F   UNL     1       7.258   2.724  12.180  0.00  0.00    +0.000 F 
ATOM     25  F   UNL     1       5.595   4.007  11.609  0.00  0.00    +0.000 F 
ENDBRANCH   3  22
BRANCH   5  26
ATOM     26  C   UNL     1       4.610   3.819  17.010  0.00  0.00    +0.000 C 
ATOM     27  O   UNL     1       4.955   3.244  18.038  0.00  0.00    +0.000 OA
ATOM     28  N   UNL     1       3.338   4.324  16.867  0.00  0.00    +0.000 N 
ATOM     29  H   UNL     1       3.069   4.795  16.018  0.00  0.00    +0.000 HD
BRANCH  28  30
ATOM     30  C   UNL     1       2.329   4.130  17.887  0.00  0.00    +0.000 C 
BRANCH  30  31
ATOM     31  C   UNL     1       2.163   5.363  18.735  0.00  0.00    +0.000 A 
ATOM     32  C   UNL     1       1.765   5.261  20.081  0.00  0.00    +0.000 A 
ATOM     33  C   UNL     1       1.605   6.409  20.864  0.00  0.00    +0.000 A 
ATOM     34  C   UNL     1       1.836   7.666  20.312  0.00  0.00    +0.000 A 
ATOM     35  C   UNL     1       2.228   7.780  18.982  0.00  0.00    +0.000 A 
ATOM     36  C   UNL     1       2.392   6.637  18.196  0.00  0.00    +0.000 A 
ENDBRANCH  30  31
ENDBRANCH  28  30
ENDBRANCH   5  26
TORSDOF 9
ENDMDL
MODEL 5
REMARK VINA RESULT:      -8.9      4.742      7.116
REMARK  Name = 
REMARK  10 active torsions:
REMARK  status: ('A' for Active; 'I' for Inactive)
REMARK    1  A    between atoms: C_1  and  C_2
REMARK    2  A    between atoms: C_2  and  N_3
REMARK    3  A    between atoms: C_2  and  C_4
REMARK    4  A    between atoms: N_6  and  C_7
REMARK    5  A    between atoms: C_7  and  C_8
REMARK    6  A    between atoms: C_12  and  N_13
REMARK    7  A    between atoms: C_15  and  C_16
REMARK    8  A    between atoms: C_21  and  C_22
REMARK    9  A    between atoms: N_24  and  C_25
REMARK   10  A    between atoms: C_25  and  C_26
REMARK                            x       y       z     vdW  Elec       q    Type
REMARK                         _______ _______ _______ _____ _____    ______ ____
ROOT
ATOM      1  N   UNL     1       3.693   4.584  18.176  0.00  0.00    +0.000 N 
ATOM      2  N   UNL     1       3.165   3.347  18.383  0.00  0.00    +0.000 NA
ATOM      3  C   UNL     1       1.979   3.557  18.977  0.00  0.00    +0.000 A 
ATOM      4  C   UNL     1       1.687   4.942  19.022  0.00  0.00    +0.000 A 
ATOM      5  C   UNL     1       2.770   5.589  18.450  0.00  0.00    +0.000 A 
ENDROOT
BRANCH   1  10
ATOM      6  C   UNL     1       6.695   4.747  15.975  0.00  0.00    +0.000 A 
ATOM      7  C   UNL     1       7.691   5.044  16.914  0.00  0.00    +0.000 A 
ATOM      8  C   UNL     1       7.380   5.131  18.272  0.00  0.00    +0.000 A 
ATOM      9  C   UNL     1       6.066   4.949  18.703  0.00  0.00    +0.000 A 
ATOM     10  C   UNL     1       5.054   4.689  17.773  0.00  0.00    +0.000 A 
ATOM     11  C   UNL     1       5.379   4.531  16.417  0.00  0.00    +0.000 A 
BRANCH   6  12
ATOM     12  C   UNL     1       7.022   4.664  14.508  0.00  0.00    +0.000 C 
BRANCH  12  15
ATOM     13  C   UNL     1       6.347   3.459  12.489  0.00  0.00    +0.000 C 
ATOM     14  O   UNL     1       7.112   4.115  11.784  0.00  0.00    +0.000 OA
ATOM     15  N   UNL     1       6.237   3.652  13.848  0.00  0.00    +0.000 N 
ATOM     16  H   UNL     1       5.467   3.235  14.354  0.00  0.00    +0.000 HD
BRANCH  13  18
ATOM     17  C   UNL     1       6.206   1.399  11.029  0.00  0.00    +0.000 C 
ATOM     18  C   UNL     1       5.425   2.359  11.916  0.00  0.00    +0.000 C 
BRANCH  18  19
ATOM     19  N   UNL     1       4.340   2.974  11.125  0.00  0.00    +0.000 NA
ATOM     20  H   UNL     1       4.530   2.784  10.138  0.00  0.00    +0.000 HD
ATOM     21  H   UNL     1       4.450   3.989  11.189  0.00  0.00    +0.000 HD
ENDBRANCH  18  19
ENDBRANCH  13  18
ENDBRANCH  12  15
ENDBRANCH   6  12
ENDBRANCH   1  10
BRANCH   3  22
ATOM     22  C   UNL     1       1.103   2.438  19.482  0.00  0.00    +0.000 C 
ATOM     23  F   UNL     1       1.740   1.242  19.581  0.00  0.00    +0.000 F 
ATOM     24  F   UNL     1       0.612   2.724  20.718  0.00  0.00    +0.000 F 
ATOM     25  F   UNL     1       0.024   2.247  18.679  0.00  0.00    +0.000 F 
ENDBRANCH   3  22
BRANCH   5  26
ATOM     26  C   UNL     1       2.928   6.977  18.075  0.00  0.00    +0.000 C 
ATOM     27  O   UNL     1       4.007   7.473  17.764  0.00  0.00    +0.000 OA
ATOM     28  N   UNL     1       1.774   7.726  18.081  0.00  0.00    +0.000 N 
ATOM     29  H   UNL     1       0.894   7.305  18.338  0.00  0.00    +0.000 HD
BRANCH  28  30
ATOM     30  C   UNL     1       1.792   9.145  17.800  0.00  0.00    +0.000 C 
BRANCH  30  31
ATOM     31  C   UNL     1       0.733   9.874  18.585  0.00  0.00    +0.000 A 
ATOM     32  C   UNL     1      -0.462  10.286  17.967  0.00  0.00    +0.000 A 
ATOM     33  C   UNL     1      -1.441  10.969  18.697  0.00  0.00    +0.000 A 
ATOM     34  C   UNL     1      -1.235  11.247  20.045  0.00  0.00    +0.000 A 
ATOM     35  C   UNL     1      -0.057  10.846  20.668  0.00  0.00    +0.000 A 
ATOM     36  C   UNL     1       0.923  10.162  19.943  0.00  0.00    +0.000 A 
ENDBRANCH  30  31
ENDBRANCH  28  30
ENDBRANCH   5  26
TORSDOF 9
ENDMDL
MODEL 6
REMARK VINA RESULT:      -8.7      4.766      6.925
REMARK  Name = 
REMARK  10 active torsions:
REMARK  status: ('A' for Active; 'I' for Inactive)
REMARK    1  A    between atoms: C_1  and  C_2
REMARK    2  A    between atoms: C_2  and  N_3
REMARK    3  A    between atoms: C_2  and  C_4
REMARK    4  A    between atoms: N_6  and  C_7
REMARK    5  A    between atoms: C_7  and  C_8
REMARK    6  A    between atoms: C_12  and  N_13
REMARK    7  A    between atoms: C_15  and  C_16
REMARK    8  A    between atoms: C_21  and  C_22
REMARK    9  A    between atoms: N_24  and  C_25
REMARK   10  A    between atoms: C_25  and  C_26
REMARK                            x       y       z     vdW  Elec       q    Type
REMARK                         _______ _______ _______ _____ _____    ______ ____
ROOT
ATOM      1  N   UNL     1       3.756   4.509  17.962  0.00  0.00    +0.000 N 
ATOM      2  N   UNL     1       3.194   3.288  18.183  0.00  0.00    +0.000 NA
ATOM      3  C   UNL     1       2.011   3.537  18.767  0.00  0.00    +0.000 A 
ATOM      4  C   UNL     1       1.755   4.930  18.792  0.00  0.00    +0.000 A 
ATOM      5  C   UNL     1       2.858   5.540  18.217  0.00  0.00    +0.000 A 
ENDROOT
BRANCH   1  10
ATOM      6  C   UNL     1       6.763   4.793  15.782  0.00  0.00    +0.000 A 
ATOM      7  C   UNL     1       7.778   4.858  16.744  0.00  0.00    +0.000 A 
ATOM      8  C   UNL     1       7.473   4.749  18.103  0.00  0.00    +0.000 A 
ATOM      9  C   UNL     1       6.149   4.601  18.514  0.00  0.00    +0.000 A 
ATOM     10  C   UNL     1       5.121   4.572  17.566  0.00  0.00    +0.000 A 
ATOM     11  C   UNL     1       5.434   4.611  16.199  0.00  0.00    +0.000 A 
BRANCH   6  12
ATOM     12  C   UNL     1       7.084   4.924  14.317  0.00  0.00    +0.000 C 
BRANCH  12  15
ATOM     13  C   UNL     1       6.544   3.866  12.179  0.00  0.00    +0.000 C 
ATOM     14  O   UNL     1       7.473   4.435  11.608  0.00  0.00    +0.000 OA
ATOM     15  N   UNL     1       6.275   4.038  13.518  0.00  0.00    +0.000 N 
ATOM     16  H   UNL     1       5.398   3.712  13.901  0.00  0.00    +0.000 HD
BRANCH  13  18
ATOM     17  C   UNL     1       4.130   3.199  11.823  0.00  0.00    +0.000 C 
ATOM     18  C   UNL     1       5.577   2.909  11.444  0.00  0.00    +0.000 C 
BRANCH  18  19
ATOM     19  N   UNL     1       5.896   1.509  11.789  0.00  0.00    +0.000 NA
ATOM     20  H   UNL     1       5.503   0.912  11.057  0.00  0.00    +0.000 HD
ATOM     21  H   UNL     1       5.340   1.260  12.611  0.00  0.00    +0.000 HD
ENDBRANCH  18  19
ENDBRANCH  13  18
ENDBRANCH  12  15
ENDBRANCH   6  12
ENDBRANCH   1  10
BRANCH   3  22
ATOM     22  C   UNL     1       1.104   2.448  19.282  0.00  0.00    +0.000 C 
ATOM     23  F   UNL     1       0.556   2.715  20.495  0.00  0.00    +0.000 F 
ATOM     24  F   UNL     1       0.069   2.230  18.424  0.00  0.00    +0.000 F 
ATOM     25  F   UNL     1       1.760   1.263  19.395  0.00  0.00    +0.000 F 
ENDBRANCH   3  22
BRANCH   5  26
ATOM     26  C   UNL     1       3.054   6.919  17.825  0.00  0.00    +0.000 C 
ATOM     27  O   UNL     1       4.039   7.310  17.206  0.00  0.00    +0.000 OA
ATOM     28  N   UNL     1       2.050   7.785  18.190  0.00  0.00    +0.000 N 
ATOM     29  H   UNL     1       1.246   7.450  18.698  0.00  0.00    +0.000 HD
BRANCH  28  30
ATOM     30  C   UNL     1       2.145   9.206  17.929  0.00  0.00    +0.000 C 
BRANCH  30  31
ATOM     31  C   UNL     1       0.925   9.938  18.423  0.00  0.00    +0.000 A 
ATOM     32  C   UNL     1       0.997  10.773  19.553  0.00  0.00    +0.000 A 
ATOM     33  C   UNL     1      -0.140  11.446  20.013  0.00  0.00    +0.000 A 
ATOM     34  C   UNL     1      -1.356  11.289  19.354  0.00  0.00    +0.000 A 
ATOM     35  C   UNL     1      -1.441  10.464  18.237  0.00  0.00    +0.000 A 
ATOM     36  C   UNL     1      -0.308   9.792  17.772  0.00  0.00    +0.000 A 
ENDBRANCH  30  31
ENDBRANCH  28  30
ENDBRANCH   5  26
TORSDOF 9
ENDMDL
MODEL 7
REMARK VINA RESULT:      -8.6      5.056      7.567
REMARK  Name = 
REMARK  10 active torsions:
REMARK  status: ('A' for Active; 'I' for Inactive)
REMARK    1  A    between atoms: C_1  and  C_2
REMARK    2  A    between atoms: C_2  and  N_3
REMARK    3  A    between atoms: C_2  and  C_4
REMARK    4  A    between atoms: N_6  and  C_7
REMARK    5  A    between atoms: C_7  and  C_8
REMARK    6  A    between atoms: C_12  and  N_13
REMARK    7  A    between atoms: C_15  and  C_16
REMARK    8  A    between atoms: C_21  and  C_22
REMARK    9  A    between atoms: N_24  and  C_25
REMARK   10  A    between atoms: C_25  and  C_26
REMARK                            x       y       z     vdW  Elec       q    Type
REMARK                         _______ _______ _______ _____ _____    ______ ____
ROOT
ATOM      1  N   UNL     1       4.158   4.506  18.273  0.00  0.00    +0.000 N 
ATOM      2  N   UNL     1       3.855   3.369  18.957  0.00  0.00    +0.000 NA
ATOM      3  C   UNL     1       3.114   3.765  20.004  0.00  0.00    +0.000 A 
ATOM      4  C   UNL     1       2.825   5.149  19.910  0.00  0.00    +0.000 A 
ATOM      5  C   UNL     1       3.453   5.601  18.760  0.00  0.00    +0.000 A 
ENDROOT
BRANCH   1  10
ATOM      6  C   UNL     1       5.640   4.266  14.863  0.00  0.00    +0.000 A 
ATOM      7  C   UNL     1       6.995   4.471  15.152  0.00  0.00    +0.000 A 
ATOM      8  C   UNL     1       7.421   4.629  16.473  0.00  0.00    +0.000 A 
ATOM      9  C   UNL     1       6.494   4.611  17.514  0.00  0.00    +0.000 A 
ATOM     10  C   UNL     1       5.133   4.444  17.238  0.00  0.00    +0.000 A 
ATOM     11  C   UNL     1       4.715   4.214  15.918  0.00  0.00    +0.000 A 
BRANCH   6  12
ATOM     12  C   UNL     1       5.173   4.109  13.440  0.00  0.00    +0.000 C 
BRANCH  12  15
ATOM     13  C   UNL     1       5.478   2.495  11.627  0.00  0.00    +0.000 C 
ATOM     14  O   UNL     1       4.335   2.677  11.210  0.00  0.00    +0.000 OA
ATOM     15  N   UNL     1       5.986   3.161  12.720  0.00  0.00    +0.000 N 
ATOM     16  H   UNL     1       6.848   2.846  13.145  0.00  0.00    +0.000 HD
BRANCH  13  18
ATOM     17  C   UNL     1       6.108   0.060  11.366  0.00  0.00    +0.000 C 
ATOM     18  C   UNL     1       6.453   1.490  10.973  0.00  0.00    +0.000 C 
BRANCH  18  19
ATOM     19  N   UNL     1       7.838   1.787  11.392  0.00  0.00    +0.000 NA
ATOM     20  H   UNL     1       7.970   1.391  12.327  0.00  0.00    +0.000 HD
ATOM     21  H   UNL     1       7.900   2.794  11.559  0.00  0.00    +0.000 HD
ENDBRANCH  18  19
ENDBRANCH  13  18
ENDBRANCH  12  15
ENDBRANCH   6  12
ENDBRANCH   1  10
BRANCH   3  22
ATOM     22  C   UNL     1       2.653   2.823  21.088  0.00  0.00    +0.000 C 
ATOM     23  F   UNL     1       1.645   1.997  20.707  0.00  0.00    +0.000 F 
ATOM     24  F   UNL     1       3.675   2.029  21.509  0.00  0.00    +0.000 F 
ATOM     25  F   UNL     1       2.220   3.499  22.185  0.00  0.00    +0.000 F 
ENDBRANCH   3  22
BRANCH   5  26
ATOM     26  C   UNL     1       3.345   6.878  18.088  0.00  0.00    +0.000 C 
ATOM     27  O   UNL     1       4.118   7.244  17.208  0.00  0.00    +0.000 OA
ATOM     28  N   UNL     1       2.300   7.674  18.497  0.00  0.00    +0.000 N 
ATOM     29  H   UNL     1       1.672   7.361  19.221  0.00  0.00    +0.000 HD
BRANCH  28  30
ATOM     30  C   UNL     1       2.113   9.008  17.965  0.00  0.00    +0.000 C 
BRANCH  30  31
ATOM     31  C   UNL     1       1.212   9.830  18.849  0.00  0.00    +0.000 A 
ATOM     32  C   UNL     1       0.768   9.329  20.086  0.00  0.00    +0.000 A 
ATOM     33  C   UNL     1      -0.074  10.092  20.901  0.00  0.00    +0.000 A 
ATOM     34  C   UNL     1      -0.482  11.357  20.489  0.00  0.00    +0.000 A 
ATOM     35  C   UNL     1      -0.050  11.864  19.267  0.00  0.00    +0.000 A 
ATOM     36  C   UNL     1       0.792  11.106  18.450  0.00  0.00    +0.000 A 
ENDBRANCH  30  31
ENDBRANCH  28  30
ENDBRANCH   5  26
TORSDOF 9
ENDMDL
MODEL 8
REMARK VINA RESULT:      -8.5      5.034      7.608
REMARK  Name = 
REMARK  10 active torsions:
REMARK  status: ('A' for Active; 'I' for Inactive)
REMARK    1  A    between atoms: C_1  and  C_2
REMARK    2  A    between atoms: C_2  and  N_3
REMARK    3  A    between atoms: C_2  and  C_4
REMARK    4  A    between atoms: N_6  and  C_7
REMARK    5  A    between atoms: C_7  and  C_8
REMARK    6  A    between atoms: C_12  and  N_13
REMARK    7  A    between atoms: C_15  and  C_16
REMARK    8  A    between atoms: C_21  and  C_22
REMARK    9  A    between atoms: N_24  and  C_25
REMARK   10  A    between atoms: C_25  and  C_26
REMARK                            x       y       z     vdW  Elec       q    Type
REMARK                         _______ _______ _______ _____ _____    ______ ____
ROOT
ATOM      1  N   UNL     1       4.075   4.606  18.522  0.00  0.00    +0.000 N 
ATOM      2  N   UNL     1       3.772   3.463  19.197  0.00  0.00    +0.000 NA
ATOM      3  C   UNL     1       2.935   3.836  20.178  0.00  0.00    +0.000 A 
ATOM      4  C   UNL     1       2.593   5.204  20.043  0.00  0.00    +0.000 A 
ATOM      5  C   UNL     1       3.285   5.672  18.938  0.00  0.00    +0.000 A 
ENDROOT
BRANCH   1  10
ATOM      6  C   UNL     1       5.823   4.407  15.238  0.00  0.00    +0.000 A 
ATOM      7  C   UNL     1       7.142   4.668  15.628  0.00  0.00    +0.000 A 
ATOM      8  C   UNL     1       7.459   4.850  16.976  0.00  0.00    +0.000 A 
ATOM      9  C   UNL     1       6.456   4.800  17.944  0.00  0.00    +0.000 A 
ATOM     10  C   UNL     1       5.128   4.577  17.565  0.00  0.00    +0.000 A 
ATOM     11  C   UNL     1       4.822   4.324  16.219  0.00  0.00    +0.000 A 
BRANCH   6  12
ATOM     12  C   UNL     1       5.474   4.224  13.785  0.00  0.00    +0.000 C 
BRANCH  12  15
ATOM     13  C   UNL     1       5.863   2.558  12.036  0.00  0.00    +0.000 C 
ATOM     14  O   UNL     1       4.785   2.804  11.496  0.00  0.00    +0.000 OA
ATOM     15  N   UNL     1       6.295   3.213  13.168  0.00  0.00    +0.000 N 
ATOM     16  H   UNL     1       7.084   2.852  13.687  0.00  0.00    +0.000 HD
BRANCH  13  18
ATOM     17  C   UNL     1       7.507   1.942  10.216  0.00  0.00    +0.000 C 
ATOM     18  C   UNL     1       6.835   1.481  11.502  0.00  0.00    +0.000 C 
BRANCH  18  19
ATOM     19  N   UNL     1       6.100   0.226  11.242  0.00  0.00    +0.000 NA
ATOM     20  H   UNL     1       5.218   0.270  11.758  0.00  0.00    +0.000 HD
ATOM     21  H   UNL     1       6.605  -0.529  11.713  0.00  0.00    +0.000 HD
ENDBRANCH  18  19
ENDBRANCH  13  18
ENDBRANCH  12  15
ENDBRANCH   6  12
ENDBRANCH   1  10
BRANCH   3  22
ATOM     22  C   UNL     1       2.436   2.885  21.237  0.00  0.00    +0.000 C 
ATOM     23  F   UNL     1       1.890   3.502  22.317  0.00  0.00    +0.000 F 
ATOM     24  F   UNL     1       1.482   2.055  20.736  0.00  0.00    +0.000 F 
ATOM     25  F   UNL     1       3.432   2.084  21.699  0.00  0.00    +0.000 F 
ENDBRANCH   3  22
BRANCH   5  26
ATOM     26  C   UNL     1       3.172   6.935  18.242  0.00  0.00    +0.000 C 
ATOM     27  O   UNL     1       4.067   7.402  17.542  0.00  0.00    +0.000 OA
ATOM     28  N   UNL     1       1.977   7.595  18.406  0.00  0.00    +0.000 N 
ATOM     29  H   UNL     1       1.250   7.200  18.983  0.00  0.00    +0.000 HD
BRANCH  28  30
ATOM     30  C   UNL     1       1.750   8.903  17.829  0.00  0.00    +0.000 C 
BRANCH  30  31
ATOM     31  C   UNL     1       0.761   9.698  18.641  0.00  0.00    +0.000 A 
ATOM     32  C   UNL     1      -0.382  10.253  18.039  0.00  0.00    +0.000 A 
ATOM     33  C   UNL     1      -1.295  10.996  18.795  0.00  0.00    +0.000 A 
ATOM     34  C   UNL     1      -1.073  11.194  20.155  0.00  0.00    +0.000 A 
ATOM     35  C   UNL     1       0.055  10.651  20.763  0.00  0.00    +0.000 A 
ATOM     36  C   UNL     1       0.968   9.907  20.012  0.00  0.00    +0.000 A 
ENDBRANCH  30  31
ENDBRANCH  28  30
ENDBRANCH   5  26
TORSDOF 9
ENDMDL
MODEL 9
REMARK VINA RESULT:      -8.4      5.027      7.607
REMARK  Name = 
REMARK  10 active torsions:
REMARK  status: ('A' for Active; 'I' for Inactive)
REMARK    1  A    between atoms: C_1  and  C_2
REMARK    2  A    between atoms: C_2  and  N_3
REMARK    3  A    between atoms: C_2  and  C_4
REMARK    4  A    between atoms: N_6  and  C_7
REMARK    5  A    between atoms: C_7  and  C_8
REMARK    6  A    between atoms: C_12  and  N_13
REMARK    7  A    between atoms: C_15  and  C_16
REMARK    8  A    between atoms: C_21  and  C_22
REMARK    9  A    between atoms: N_24  and  C_25
REMARK   10  A    between atoms: C_25  and  C_26
REMARK                            x       y       z     vdW  Elec       q    Type
REMARK                         _______ _______ _______ _____ _____    ______ ____
ROOT
ATOM      1  N   UNL     1       3.857   4.727  18.517  0.00  0.00    +0.000 N 
ATOM      2  N   UNL     1       3.450   3.610  19.180  0.00  0.00    +0.000 NA
ATOM      3  C   UNL     1       2.586   4.040  20.114  0.00  0.00    +0.000 A 
ATOM      4  C   UNL     1       2.334   5.425  19.953  0.00  0.00    +0.000 A 
ATOM      5  C   UNL     1       3.111   5.842  18.885  0.00  0.00    +0.000 A 
ENDROOT
BRANCH   1  10
ATOM      6  C   UNL     1       5.764   4.453  15.328  0.00  0.00    +0.000 A 
ATOM      7  C   UNL     1       7.077   4.586  15.796  0.00  0.00    +0.000 A 
ATOM      8  C   UNL     1       7.331   4.707  17.164  0.00  0.00    +0.000 A 
ATOM      9  C   UNL     1       6.275   4.722  18.074  0.00  0.00    +0.000 A 
ATOM     10  C   UNL     1       4.956   4.628  17.618  0.00  0.00    +0.000 A 
ATOM     11  C   UNL     1       4.705   4.436  16.250  0.00  0.00    +0.000 A 
BRANCH   6  12
ATOM     12  C   UNL     1       5.482   4.337  13.853  0.00  0.00    +0.000 C 
BRANCH  12  15
ATOM     13  C   UNL     1       5.844   2.640  12.129  0.00  0.00    +0.000 C 
ATOM     14  O   UNL     1       4.754   2.870  11.606  0.00  0.00    +0.000 OA
ATOM     15  N   UNL     1       6.296   3.317  13.239  0.00  0.00    +0.000 N 
ATOM     16  H   UNL     1       7.097   2.970  13.749  0.00  0.00    +0.000 HD
BRANCH  13  18
ATOM     17  C   UNL     1       7.574   2.058  10.378  0.00  0.00    +0.000 C 
ATOM     18  C   UNL     1       6.810   1.556  11.597  0.00  0.00    +0.000 C 
BRANCH  18  19
ATOM     19  N   UNL     1       6.051   0.344  11.227  0.00  0.00    +0.000 NA
ATOM     20  H   UNL     1       5.685  -0.068  12.089  0.00  0.00    +0.000 HD
ATOM     21  H   UNL     1       6.726  -0.355  10.908  0.00  0.00    +0.000 HD
ENDBRANCH  18  19
ENDBRANCH  13  18
ENDBRANCH  12  15
ENDBRANCH   6  12
ENDBRANCH   1  10
BRANCH   3  22
ATOM     22  C   UNL     1       1.975   3.130  21.149  0.00  0.00    +0.000 C 
ATOM     23  F   UNL     1       0.617   3.133  21.153  0.00  0.00    +0.000 F 
ATOM     24  F   UNL     1       2.364   1.840  20.955  0.00  0.00    +0.000 F 
ATOM     25  F   UNL     1       2.376   3.462  22.405  0.00  0.00    +0.000 F 
ENDBRANCH   3  22
BRANCH   5  26
ATOM     26  C   UNL     1       3.111   7.104  18.176  0.00  0.00    +0.000 C 
ATOM     27  O   UNL     1       3.979   7.424  17.370  0.00  0.00    +0.000 OA
ATOM     28  N   UNL     1       2.056   7.940  18.460  0.00  0.00    +0.000 N 
ATOM     29  H   UNL     1       1.350   7.664  19.124  0.00  0.00    +0.000 HD
BRANCH  28  30
ATOM     30  C   UNL     1       1.965   9.264  17.882  0.00  0.00    +0.000 C 
BRANCH  30  31
ATOM     31  C   UNL     1       0.779  10.018  18.423  0.00  0.00    +0.000 A 
ATOM     32  C   UNL     1       0.890  10.783  19.599  0.00  0.00    +0.000 A 
ATOM     33  C   UNL     1      -0.215  11.477  20.103  0.00  0.00    +0.000 A 
ATOM     34  C   UNL     1      -1.438  11.412  19.442  0.00  0.00    +0.000 A 
ATOM     35  C   UNL     1      -1.561  10.658  18.278  0.00  0.00    +0.000 A 
ATOM     36  C   UNL     1      -0.460   9.965  17.770  0.00  0.00    +0.000 A 
ENDBRANCH  30  31
ENDBRANCH  28  30
ENDBRANCH   5  26
TORSDOF 9
ENDMDL
