MODEL 1
REMARK VINA RESULT:      -6.3      0.000      0.000
REMARK  Name = 
REMARK  5 active torsions:
REMARK  status: ('A' for Active; 'I' for Inactive)
REMARK    1  A    between atoms: C_1  and  C_2
REMARK    2  A    between atoms: C_2  and  N_3
REMARK    3  A    between atoms: C_2  and  C_7
REMARK    4  A    between atoms: N_3  and  C_4
REMARK    5  A    between atoms: C_7  and  C_9
REMARK                            x       y       z     vdW  Elec       q    Type
REMARK                         _______ _______ _______ _____ _____    ______ ____
ROOT
ATOM      1  C   UNL     1       6.314   5.369  18.831  0.00  0.00    +0.000 C 
ATOM      2  O   UNL     1       7.037   5.377  19.817  0.00  0.00    +0.000 OA
ENDROOT
BRANCH   1   3
ATOM      3  C   UNL     1       4.931   4.807  18.955  0.00  0.00    +0.000 A 
ATOM      4  C   UNL     1       4.623   3.565  18.359  0.00  0.00    +0.000 A 
ATOM      5  C   UNL     1       3.345   3.013  18.483  0.00  0.00    +0.000 A 
ATOM      6  C   UNL     1       2.357   3.685  19.203  0.00  0.00    +0.000 A 
ATOM      7  C   UNL     1       2.643   4.916  19.797  0.00  0.00    +0.000 A 
ATOM      8 CL   UNL     1       1.397   5.757  20.703  0.00  0.00    +0.000 Cl
ATOM      9  C   UNL     1       3.921   5.475  19.676  0.00  0.00    +0.000 A 
ENDBRANCH   1   3
BRANCH   1  11
ATOM     10  C   UNL     1       7.688   7.248  17.751  0.00  0.00    +0.000 C 
ATOM     11  C   UNL     1       6.826   5.984  17.529  0.00  0.00    +0.000 C 
BRANCH  11  12
ATOM     12  N   UNL     1       7.535   4.978  16.714  0.00  0.00    +0.000 NA
ATOM     13  H   UNL     1       7.454   4.041  17.178  0.00  0.00    +0.000 HD
BRANCH  12  14
ATOM     14  C   UNL     1       7.084   4.941  15.307  0.00  0.00    +0.000 C 
ATOM     15  C   UNL     1       6.031   3.901  14.981  0.00  0.00    +0.000 C 
ATOM     16  C   UNL     1       5.631   5.368  15.136  0.00  0.00    +0.000 C 
ENDBRANCH  12  14
ENDBRANCH  11  12
ENDBRANCH   1  11
TORSDOF 4
ENDMDL
MODEL 2
REMARK VINA RESULT:      -6.2      2.714      3.580
REMARK  Name = 
REMARK  5 active torsions:
REMARK  status: ('A' for Active; 'I' for Inactive)
REMARK    1  A    between atoms: C_1  and  C_2
REMARK    2  A    between atoms: C_2  and  N_3
REMARK    3  A    between atoms: C_2  and  C_7
REMARK    4  A    between atoms: N_3  and  C_4
REMARK    5  A    between atoms: C_7  and  C_9
REMARK                            x       y       z     vdW  Elec       q    Type
REMARK                         _______ _______ _______ _____ _____    ______ ____
ROOT
ATOM      1  C   UNL     1       6.612   4.674  15.623  0.00  0.00    +0.000 C 
ATOM      2  O   UNL     1       7.679   4.543  16.206  0.00  0.00    +0.000 OA
ENDROOT
BRANCH   1   3
ATOM      3  C   UNL     1       5.367   4.866  16.434  0.00  0.00    +0.000 A 
ATOM      4  C   UNL     1       5.042   6.147  16.928  0.00  0.00    +0.000 A 
ATOM      5  C   UNL     1       3.873   6.352  17.666  0.00  0.00    +0.000 A 
ATOM      6  C   UNL     1       3.009   5.287  17.920  0.00  0.00    +0.000 A 
ATOM      7  C   UNL     1       3.314   4.011  17.441  0.00  0.00    +0.000 A 
ATOM      8 CL   UNL     1       2.223   2.674  17.761  0.00  0.00    +0.000 Cl
ATOM      9  C   UNL     1       4.484   3.799  16.702  0.00  0.00    +0.000 A 
ENDBRANCH   1   3
BRANCH   1  11
ATOM     10  C   UNL     1       7.900   5.252  13.481  0.00  0.00    +0.000 C 
ATOM     11  C   UNL     1       6.596   4.693  14.096  0.00  0.00    +0.000 C 
BRANCH  11  12
ATOM     12  N   UNL     1       6.269   3.359  13.555  0.00  0.00    +0.000 NA
ATOM     13  H   UNL     1       5.419   2.989  14.045  0.00  0.00    +0.000 HD
BRANCH  12  14
ATOM     14  C   UNL     1       6.111   3.345  12.085  0.00  0.00    +0.000 C 
ATOM     15  C   UNL     1       5.626   2.039  11.488  0.00  0.00    +0.000 C 
ATOM     16  C   UNL     1       4.659   3.213  11.643  0.00  0.00    +0.000 C 
ENDBRANCH  12  14
ENDBRANCH  11  12
ENDBRANCH   1  11
TORSDOF 4
ENDMDL
MODEL 3
REMARK VINA RESULT:      -6.2      1.381      1.624
REMARK  Name = 
REMARK  5 active torsions:
REMARK  status: ('A' for Active; 'I' for Inactive)
REMARK    1  A    between atoms: C_1  and  C_2
REMARK    2  A    between atoms: C_2  and  N_3
REMARK    3  A    between atoms: C_2  and  C_7
REMARK    4  A    between atoms: N_3  and  C_4
REMARK    5  A    between atoms: C_7  and  C_9
REMARK                            x       y       z     vdW  Elec       q    Type
REMARK                         _______ _______ _______ _____ _____    ______ ____
ROOT
ATOM      1  C   UNL     1       5.428   4.486  18.676  0.00  0.00    +0.000 C 
ATOM      2  O   UNL     1       6.088   4.656  19.691  0.00  0.00    +0.000 OA
ENDROOT
BRANCH   1   3
ATOM      3  C   UNL     1       4.145   3.717  18.772  0.00  0.00    +0.000 A 
ATOM      4  C   UNL     1       3.626   3.074  17.628  0.00  0.00    +0.000 A 
ATOM      5  C   UNL     1       2.443   2.333  17.702  0.00  0.00    +0.000 A 
ATOM      6  C   UNL     1       1.763   2.218  18.914  0.00  0.00    +0.000 A 
ATOM      7  C   UNL     1       2.260   2.849  20.056  0.00  0.00    +0.000 A 
ATOM      8 CL   UNL     1       1.401   2.699  21.579  0.00  0.00    +0.000 Cl
ATOM      9  C   UNL     1       3.444   3.594  19.989  0.00  0.00    +0.000 A 
ENDBRANCH   1   3
BRANCH   1  11
ATOM     10  C   UNL     1       6.394   6.567  17.528  0.00  0.00    +0.000 C 
ATOM     11  C   UNL     1       5.903   5.110  17.365  0.00  0.00    +0.000 C 
BRANCH  11  12
ATOM     12  N   UNL     1       6.923   4.262  16.717  0.00  0.00    +0.000 NA
ATOM     13  H   UNL     1       7.178   3.477  17.364  0.00  0.00    +0.000 HD
BRANCH  12  14
ATOM     14  C   UNL     1       6.515   3.773  15.383  0.00  0.00    +0.000 C 
ATOM     15  C   UNL     1       5.413   4.560  14.703  0.00  0.00    +0.000 C 
ATOM     16  C   UNL     1       6.865   4.742  14.261  0.00  0.00    +0.000 C 
ENDBRANCH  12  14
ENDBRANCH  11  12
ENDBRANCH   1  11
TORSDOF 4
ENDMDL
MODEL 4
REMARK VINA RESULT:      -6.1      3.130      5.607
REMARK  Name = 
REMARK  5 active torsions:
REMARK  status: ('A' for Active; 'I' for Inactive)
REMARK    1  A    between atoms: C_1  and  C_2
REMARK    2  A    between atoms: C_2  and  N_3
REMARK    3  A    between atoms: C_2  and  C_7
REMARK    4  A    between atoms: N_3  and  C_4
REMARK    5  A    between atoms: C_7  and  C_9
REMARK                            x       y       z     vdW  Elec       q    Type
REMARK                         _______ _______ _______ _____ _____    ______ ____
ROOT
ATOM      1  C   UNL     1       3.607   3.022  17.990  0.00  0.00    +0.000 C 
ATOM      2  O   UNL     1       3.645   1.813  17.816  0.00  0.00    +0.000 OA
ENDROOT
BRANCH   1   3
ATOM      3  C   UNL     1       4.763   3.854  17.525  0.00  0.00    +0.000 A 
ATOM      4  C   UNL     1       4.942   4.099  16.147  0.00  0.00    +0.000 A 
ATOM      5  C   UNL     1       6.001   4.892  15.695  0.00  0.00    +0.000 A 
ATOM      6  C   UNL     1       6.895   5.454  16.607  0.00  0.00    +0.000 A 
ATOM      7  C   UNL     1       6.735   5.220  17.975  0.00  0.00    +0.000 A 
ATOM      8 CL   UNL     1       7.861   5.931  19.118  0.00  0.00    +0.000 Cl
ATOM      9  C   UNL     1       5.677   4.426  18.433  0.00  0.00    +0.000 A 
ENDBRANCH   1   3
BRANCH   1  11
ATOM     10  C   UNL     1       1.518   4.464  17.617  0.00  0.00    +0.000 C 
ATOM     11  C   UNL     1       2.362   3.645  18.619  0.00  0.00    +0.000 C 
BRANCH  11  12
ATOM     12  N   UNL     1       1.549   2.620  19.305  0.00  0.00    +0.000 NA
ATOM     13  H   UNL     1       2.058   1.703  19.276  0.00  0.00    +0.000 HD
BRANCH  12  14
ATOM     14  C   UNL     1       1.167   3.000  20.681  0.00  0.00    +0.000 C 
ATOM     15  C   UNL     1       2.178   2.664  21.760  0.00  0.00    +0.000 C 
ATOM     16  C   UNL     1       2.046   4.103  21.260  0.00  0.00    +0.000 C 
ENDBRANCH  12  14
ENDBRANCH  11  12
ENDBRANCH   1  11
TORSDOF 4
ENDMDL
MODEL 5
REMARK VINA RESULT:      -6.0      1.240      1.363
REMARK  Name = 
REMARK  5 active torsions:
REMARK  status: ('A' for Active; 'I' for Inactive)
REMARK    1  A    between atoms: C_1  and  C_2
REMARK    2  A    between atoms: C_2  and  N_3
REMARK    3  A    between atoms: C_2  and  C_7
REMARK    4  A    between atoms: N_3  and  C_4
REMARK    5  A    between atoms: C_7  and  C_9
REMARK                            x       y       z     vdW  Elec       q    Type
REMARK                         _______ _______ _______ _____ _____    ______ ____
ROOT
ATOM      1  C   UNL     1       6.221   5.112  18.830  0.00  0.00    +0.000 C 
ATOM      2  O   UNL     1       6.849   5.308  19.861  0.00  0.00    +0.000 OA
ENDROOT
BRANCH   1   3
ATOM      3  C   UNL     1       4.940   4.338  18.903  0.00  0.00    +0.000 A 
ATOM      4  C   UNL     1       4.869   3.172  19.694  0.00  0.00    +0.000 A 
ATOM      5  C   UNL     1       3.677   2.449  19.793  0.00  0.00    +0.000 A 
ATOM      6  C   UNL     1       2.539   2.877  19.109  0.00  0.00    +0.000 A 
ATOM      7  C   UNL     1       2.590   4.028  18.320  0.00  0.00    +0.000 A 
ATOM      8 CL   UNL     1       1.155   4.563  17.463  0.00  0.00    +0.000 Cl
ATOM      9  C   UNL     1       3.782   4.756  18.216  0.00  0.00    +0.000 A 
ENDBRANCH   1   3
BRANCH   1  11
ATOM     10  C   UNL     1       7.529   7.021  17.723  0.00  0.00    +0.000 C 
ATOM     11  C   UNL     1       6.734   5.711  17.522  0.00  0.00    +0.000 C 
BRANCH  11  12
ATOM     12  N   UNL     1       7.509   4.717  16.755  0.00  0.00    +0.000 NA
ATOM     13  H   UNL     1       7.892   3.997  17.414  0.00  0.00    +0.000 HD
BRANCH  12  14
ATOM     14  C   UNL     1       6.743   4.103  15.649  0.00  0.00    +0.000 C 
ATOM     15  C   UNL     1       5.611   4.942  15.089  0.00  0.00    +0.000 C 
ATOM     16  C   UNL     1       6.929   4.828  14.322  0.00  0.00    +0.000 C 
ENDBRANCH  12  14
ENDBRANCH  11  12
ENDBRANCH   1  11
TORSDOF 4
ENDMDL
MODEL 6
REMARK VINA RESULT:      -6.0      3.003      5.575
REMARK  Name = 
REMARK  5 active torsions:
REMARK  status: ('A' for Active; 'I' for Inactive)
REMARK    1  A    between atoms: C_1  and  C_2
REMARK    2  A    between atoms: C_2  and  N_3
REMARK    3  A    between atoms: C_2  and  C_7
REMARK    4  A    between atoms: N_3  and  C_4
REMARK    5  A    between atoms: C_7  and  C_9
REMARK                            x       y       z     vdW  Elec       q    Type
REMARK                         _______ _______ _______ _____ _____    ______ ____
ROOT
ATOM      1  C   UNL     1       3.331   3.959  17.946  0.00  0.00    +0.000 C 
ATOM      2  O   UNL     1       2.448   4.704  17.547  0.00  0.00    +0.000 OA
ENDROOT
BRANCH   1   3
ATOM      3  C   UNL     1       4.746   4.236  17.540  0.00  0.00    +0.000 A 
ATOM      4  C   UNL     1       5.171   3.938  16.228  0.00  0.00    +0.000 A 
ATOM      5  C   UNL     1       6.481   4.211  15.822  0.00  0.00    +0.000 A 
ATOM      6  C   UNL     1       7.385   4.787  16.714  0.00  0.00    +0.000 A 
ATOM      7  C   UNL     1       6.984   5.088  18.018  0.00  0.00    +0.000 A 
ATOM      8 CL   UNL     1       8.124   5.815  19.136  0.00  0.00    +0.000 Cl
ATOM      9  C   UNL     1       5.673   4.816  18.430  0.00  0.00    +0.000 A 
ENDBRANCH   1   3
BRANCH   1  11
ATOM     10  C   UNL     1       3.498   1.441  18.407  0.00  0.00    +0.000 C 
ATOM     11  C   UNL     1       2.968   2.811  18.887  0.00  0.00    +0.000 C 
BRANCH  11  12
ATOM     12  N   UNL     1       3.396   3.106  20.268  0.00  0.00    +0.000 NA
ATOM     13  H   UNL     1       4.250   3.714  20.240  0.00  0.00    +0.000 HD
BRANCH  12  14
ATOM     14  C   UNL     1       2.324   3.693  21.101  0.00  0.00    +0.000 C 
ATOM     15  C   UNL     1       0.922   3.590  20.535  0.00  0.00    +0.000 C 
ATOM     16  C   UNL     1       1.363   2.649  21.656  0.00  0.00    +0.000 C 
ENDBRANCH  12  14
ENDBRANCH  11  12
ENDBRANCH   1  11
TORSDOF 4
ENDMDL
MODEL 7
REMARK VINA RESULT:      -6.0      3.550      5.835
REMARK  Name = 
REMARK  5 active torsions:
REMARK  status: ('A' for Active; 'I' for Inactive)
REMARK    1  A    between atoms: C_1  and  C_2
REMARK    2  A    between atoms: C_2  and  N_3
REMARK    3  A    between atoms: C_2  and  C_7
REMARK    4  A    between atoms: N_3  and  C_4
REMARK    5  A    between atoms: C_7  and  C_9
REMARK                            x       y       z     vdW  Elec       q    Type
REMARK                         _______ _______ _______ _____ _____    ______ ____
ROOT
ATOM      1  C   UNL     1       3.196   3.964  17.487  0.00  0.00    +0.000 C 
ATOM      2  O   UNL     1       2.533   3.179  16.825  0.00  0.00    +0.000 OA
ENDROOT
BRANCH   1   3
ATOM      3  C   UNL     1       4.620   4.215  17.093  0.00  0.00    +0.000 A 
ATOM      4  C   UNL     1       5.598   4.417  18.089  0.00  0.00    +0.000 A 
ATOM      5  C   UNL     1       6.936   4.630  17.742  0.00  0.00    +0.000 A 
ATOM      6  C   UNL     1       7.319   4.642  16.402  0.00  0.00    +0.000 A 
ATOM      7  C   UNL     1       6.365   4.446  15.401  0.00  0.00    +0.000 A 
ATOM      8 CL   UNL     1       6.852   4.460  13.715  0.00  0.00    +0.000 Cl
ATOM      9  C   UNL     1       5.023   4.234  15.741  0.00  0.00    +0.000 A 
ENDBRANCH   1   3
BRANCH   1  11
ATOM     10  C   UNL     1       2.324   6.207  18.375  0.00  0.00    +0.000 C 
ATOM     11  C   UNL     1       2.535   4.701  18.650  0.00  0.00    +0.000 C 
BRANCH  11  12
ATOM     12  N   UNL     1       1.277   4.039  19.046  0.00  0.00    +0.000 NA
ATOM     13  H   UNL     1       1.275   3.056  18.680  0.00  0.00    +0.000 HD
BRANCH  12  14
ATOM     14  C   UNL     1       1.021   4.089  20.502  0.00  0.00    +0.000 C 
ATOM     15  C   UNL     1       1.291   2.805  21.261  0.00  0.00    +0.000 C 
ATOM     16  C   UNL     1       2.291   3.959  21.333  0.00  0.00    +0.000 C 
ENDBRANCH  12  14
ENDBRANCH  11  12
ENDBRANCH   1  11
TORSDOF 4
ENDMDL
MODEL 8
REMARK VINA RESULT:      -5.9      2.017      3.165
REMARK  Name = 
REMARK  5 active torsions:
REMARK  status: ('A' for Active; 'I' for Inactive)
REMARK    1  A    between atoms: C_1  and  C_2
REMARK    2  A    between atoms: C_2  and  N_3
REMARK    3  A    between atoms: C_2  and  C_7
REMARK    4  A    between atoms: N_3  and  C_4
REMARK    5  A    between atoms: C_7  and  C_9
REMARK                            x       y       z     vdW  Elec       q    Type
REMARK                         _______ _______ _______ _____ _____    ______ ____
ROOT
ATOM      1  C   UNL     1       4.423   5.297  17.291  0.00  0.00    +0.000 C 
ATOM      2  O   UNL     1       4.385   6.356  16.681  0.00  0.00    +0.000 OA
ENDROOT
BRANCH   1   3
ATOM      3  C   UNL     1       3.335   4.992  18.274  0.00  0.00    +0.000 A 
ATOM      4  C   UNL     1       3.115   5.856  19.368  0.00  0.00    +0.000 A 
ATOM      5  C   UNL     1       2.090   5.601  20.284  0.00  0.00    +0.000 A 
ATOM      6  C   UNL     1       1.269   4.486  20.124  0.00  0.00    +0.000 A 
ATOM      7  C   UNL     1       1.472   3.618  19.049  0.00  0.00    +0.000 A 
ATOM      8 CL   UNL     1       0.434   2.217  18.850  0.00  0.00    +0.000 Cl
ATOM      9  C   UNL     1       2.497   3.867  18.129  0.00  0.00    +0.000 A 
ENDBRANCH   1   3
BRANCH   1  11
ATOM     10  C   UNL     1       6.304   4.627  15.680  0.00  0.00    +0.000 C 
ATOM     11  C   UNL     1       5.542   4.303  16.985  0.00  0.00    +0.000 C 
BRANCH  11  12
ATOM     12  N   UNL     1       6.460   4.174  18.133  0.00  0.00    +0.000 NA
ATOM     13  H   UNL     1       6.693   3.161  18.274  0.00  0.00    +0.000 HD
BRANCH  12  14
ATOM     14  C   UNL     1       7.674   5.010  18.009  0.00  0.00    +0.000 C 
ATOM     15  C   UNL     1       7.487   6.486  18.302  0.00  0.00    +0.000 C 
ATOM     16  C   UNL     1       8.143   5.578  19.343  0.00  0.00    +0.000 C 
ENDBRANCH  12  14
ENDBRANCH  11  12
ENDBRANCH   1  11
TORSDOF 4
ENDMDL
MODEL 9
REMARK VINA RESULT:      -5.9      1.510      1.867
REMARK  Name = 
REMARK  5 active torsions:
REMARK  status: ('A' for Active; 'I' for Inactive)
REMARK    1  A    between atoms: C_1  and  C_2
REMARK    2  A    between atoms: C_2  and  N_3
REMARK    3  A    between atoms: C_2  and  C_7
REMARK    4  A    between atoms: N_3  and  C_4
REMARK    5  A    between atoms: C_7  and  C_9
REMARK                            x       y       z     vdW  Elec       q    Type
REMARK                         _______ _______ _______ _____ _____    ______ ____
ROOT
ATOM      1  C   UNL     1       5.238   4.443  18.426  0.00  0.00    +0.000 C 
ATOM      2  O   UNL     1       6.078   4.134  19.258  0.00  0.00    +0.000 OA
ENDROOT
BRANCH   1   3
ATOM      3  C   UNL     1       3.801   4.118  18.697  0.00  0.00    +0.000 A 
ATOM      4  C   UNL     1       2.837   4.300  17.683  0.00  0.00    +0.000 A 
ATOM      5  C   UNL     1       1.494   3.981  17.909  0.00  0.00    +0.000 A 
ATOM      6  C   UNL     1       1.093   3.475  19.144  0.00  0.00    +0.000 A 
ATOM      7  C   UNL     1       2.032   3.290  20.161  0.00  0.00    +0.000 A 
ATOM      8 CL   UNL     1       1.522   2.650  21.714  0.00  0.00    +0.000 Cl
ATOM      9  C   UNL     1       3.378   3.608  19.942  0.00  0.00    +0.000 A 
ENDBRANCH   1   3
BRANCH   1  11
ATOM     10  C   UNL     1       6.807   6.216  17.438  0.00  0.00    +0.000 C 
ATOM     11  C   UNL     1       5.676   5.197  17.171  0.00  0.00    +0.000 C 
BRANCH  11  12
ATOM     12  N   UNL     1       6.034   4.258  16.090  0.00  0.00    +0.000 NA
ATOM     13  H   UNL     1       5.494   3.368  16.215  0.00  0.00    +0.000 HD
BRANCH  12  14
ATOM     14  C   UNL     1       5.858   4.829  14.737  0.00  0.00    +0.000 C 
ATOM     15  C   UNL     1       7.108   4.892  13.882  0.00  0.00    +0.000 C 
ATOM     16  C   UNL     1       6.064   3.805  13.628  0.00  0.00    +0.000 C 
ENDBRANCH  12  14
ENDBRANCH  11  12
ENDBRANCH   1  11
TORSDOF 4
ENDMDL
