MODEL 1
REMARK VINA RESULT:      -7.0      0.000      0.000
REMARK  Name = 
REMARK  9 active torsions:
REMARK  status: ('A' for Active; 'I' for Inactive)
REMARK    1  A    between atoms: C_1  and  N_2
REMARK    2  A    between atoms: N_2  and  C_3
REMARK    3  A    between atoms: N_2  and  S_14
REMARK    4  A    between atoms: C_3  and  C_4
REMARK    5  A    between atoms: C_4  and  N_5
REMARK    6  A    between atoms: N_8  and  C_9
REMARK    7  A    between atoms: C_10  and  C_11
REMARK    8  A    between atoms: N_12  and  O_13
REMARK    9  A    between atoms: S_14  and  C_17
REMARK                            x       y       z     vdW  Elec       q    Type
REMARK                         _______ _______ _______ _____ _____    ______ ____
ROOT
ATOM      1  C   UNL     1       4.562   5.310  17.531  0.00  0.00    +0.000 C 
ENDROOT
BRANCH   1   3
ATOM      2  C   UNL     1       6.837   4.446  17.808  0.00  0.00    +0.000 C 
ATOM      3  N   UNL     1       5.791   4.807  16.804  0.00  0.00    +0.000 NA
BRANCH   3   4
ATOM      4  S   UNL     1       6.335   5.902  15.586  0.00  0.00    +0.000 S 
ATOM      5  O   UNL     1       5.290   6.894  15.422  0.00  0.00    +0.000 OA
ATOM      6  O   UNL     1       7.670   6.295  15.973  0.00  0.00    +0.000 OA
BRANCH   4   7
ATOM      7  C   UNL     1       6.403   4.934  14.109  0.00  0.00    +0.000 A 
ATOM      8  C   UNL     1       5.409   3.982  13.871  0.00  0.00    +0.000 A 
ATOM      9  C   UNL     1       5.481   3.192  12.725  0.00  0.00    +0.000 A 
ATOM     10  C   UNL     1       6.534   3.364  11.823  0.00  0.00    +0.000 A 
ATOM     11  C   UNL     1       7.516   4.327  12.061  0.00  0.00    +0.000 A 
ATOM     12  C   UNL     1       7.454   5.118  13.206  0.00  0.00    +0.000 A 
ENDBRANCH   4   7
ENDBRANCH   3   4
ENDBRANCH   1   3
BRANCH   1  13
ATOM     13  C   UNL     1       4.687   5.352  19.068  0.00  0.00    +0.000 C 
BRANCH  13  14
ATOM     14  N   UNL     1       3.470   4.933  19.807  0.00  0.00    +0.000 N 
ATOM     15  C   UNL     1       2.436   5.785  20.167  0.00  0.00    +0.000 A 
ATOM     16  C   UNL     1       1.496   5.035  20.798  0.00  0.00    +0.000 A 
ATOM     17  N   UNL     1       1.963   3.740  20.808  0.00  0.00    +0.000 N 
ATOM     18  C   UNL     1       1.233   2.602  21.372  0.00  0.00    +0.000 C 
ATOM     19  C   UNL     1       3.196   3.661  20.230  0.00  0.00    +0.000 A 
BRANCH  19  20
ATOM     20  C   UNL     1       3.977   2.492  20.071  0.00  0.00    +0.000 C 
ATOM     21  N   UNL     1       4.958   2.125  20.845  0.00  0.00    +0.000 NA
BRANCH  21  22
ATOM     22  O   UNL     1       5.475   0.911  20.376  0.00  0.00    +0.000 OA
ATOM     23  H   UNL     1       4.819   0.625  19.709  0.00  0.00    +0.000 HD
ENDBRANCH  21  22
ENDBRANCH  19  20
ENDBRANCH  13  14
ENDBRANCH   1  13
TORSDOF 7
ENDMDL
MODEL 2
REMARK VINA RESULT:      -6.9      0.773      1.291
REMARK  Name = 
REMARK  9 active torsions:
REMARK  status: ('A' for Active; 'I' for Inactive)
REMARK    1  A    between atoms: C_1  and  N_2
REMARK    2  A    between atoms: N_2  and  C_3
REMARK    3  A    between atoms: N_2  and  S_14
REMARK    4  A    between atoms: C_3  and  C_4
REMARK    5  A    between atoms: C_4  and  N_5
REMARK    6  A    between atoms: N_8  and  C_9
REMARK    7  A    between atoms: C_10  and  C_11
REMARK    8  A    between atoms: N_12  and  O_13
REMARK    9  A    between atoms: S_14  and  C_17
REMARK                            x       y       z     vdW  Elec       q    Type
REMARK                         _______ _______ _______ _____ _____    ______ ____
ROOT
ATOM      1  C   UNL     1       4.373   5.086  17.291  0.00  0.00    +0.000 C 
ENDROOT
BRANCH   1   3
ATOM      2  C   UNL     1       6.644   4.285  17.743  0.00  0.00    +0.000 C 
ATOM      3  N   UNL     1       5.673   4.633  16.662  0.00  0.00    +0.000 NA
BRANCH   3   4
ATOM      4  S   UNL     1       6.281   5.765  15.509  0.00  0.00    +0.000 S 
ATOM      5  O   UNL     1       5.243   6.758  15.316  0.00  0.00    +0.000 OA
ATOM      6  O   UNL     1       7.590   6.149  15.984  0.00  0.00    +0.000 OA
BRANCH   4   7
ATOM      7  C   UNL     1       6.437   4.842  14.010  0.00  0.00    +0.000 A 
ATOM      8  C   UNL     1       7.498   5.120  13.145  0.00  0.00    +0.000 A 
ATOM      9  C   UNL     1       7.601   4.418  11.945  0.00  0.00    +0.000 A 
ATOM     10  C   UNL     1       6.655   3.441  11.623  0.00  0.00    +0.000 A 
ATOM     11  C   UNL     1       5.605   3.161  12.499  0.00  0.00    +0.000 A 
ATOM     12  C   UNL     1       5.492   3.860  13.699  0.00  0.00    +0.000 A 
ENDBRANCH   4   7
ENDBRANCH   3   4
ENDBRANCH   1   3
BRANCH   1  13
ATOM     13  C   UNL     1       4.482   5.519  18.767  0.00  0.00    +0.000 C 
BRANCH  13  14
ATOM     14  N   UNL     1       3.353   5.093  19.631  0.00  0.00    +0.000 N 
ATOM     15  C   UNL     1       2.428   5.957  20.198  0.00  0.00    +0.000 A 
ATOM     16  C   UNL     1       1.538   5.199  20.890  0.00  0.00    +0.000 A 
ATOM     17  N   UNL     1       1.926   3.887  20.730  0.00  0.00    +0.000 N 
ATOM     18  C   UNL     1       1.213   2.739  21.295  0.00  0.00    +0.000 C 
ATOM     19  C   UNL     1       3.065   3.802  19.983  0.00  0.00    +0.000 A 
BRANCH  19  20
ATOM     20  C   UNL     1       3.748   2.617  19.622  0.00  0.00    +0.000 C 
ATOM     21  N   UNL     1       3.452   1.849  18.614  0.00  0.00    +0.000 NA
BRANCH  21  22
ATOM     22  O   UNL     1       4.362   0.784  18.574  0.00  0.00    +0.000 OA
ATOM     23  H   UNL     1       4.636   0.683  19.507  0.00  0.00    +0.000 HD
ENDBRANCH  21  22
ENDBRANCH  19  20
ENDBRANCH  13  14
ENDBRANCH   1  13
TORSDOF 7
ENDMDL
MODEL 3
REMARK VINA RESULT:      -6.9      1.318      1.804
REMARK  Name = 
REMARK  9 active torsions:
REMARK  status: ('A' for Active; 'I' for Inactive)
REMARK    1  A    between atoms: C_1  and  N_2
REMARK    2  A    between atoms: N_2  and  C_3
REMARK    3  A    between atoms: N_2  and  S_14
REMARK    4  A    between atoms: C_3  and  C_4
REMARK    5  A    between atoms: C_4  and  N_5
REMARK    6  A    between atoms: N_8  and  C_9
REMARK    7  A    between atoms: C_10  and  C_11
REMARK    8  A    between atoms: N_12  and  O_13
REMARK    9  A    between atoms: S_14  and  C_17
REMARK                            x       y       z     vdW  Elec       q    Type
REMARK                         _______ _______ _______ _____ _____    ______ ____
ROOT
ATOM      1  C   UNL     1       4.728   5.889  17.373  0.00  0.00    +0.000 C 
ENDROOT
BRANCH   1   3
ATOM      2  C   UNL     1       6.062   4.994  19.223  0.00  0.00    +0.000 C 
ATOM      3  N   UNL     1       5.830   4.921  17.748  0.00  0.00    +0.000 NA
BRANCH   3   4
ATOM      4  S   UNL     1       7.257   5.141  16.801  0.00  0.00    +0.000 S 
ATOM      5  O   UNL     1       7.504   6.569  16.750  0.00  0.00    +0.000 OA
ATOM      6  O   UNL     1       8.242   4.242  17.355  0.00  0.00    +0.000 OA
BRANCH   4   7
ATOM      7  C   UNL     1       6.806   4.607  15.178  0.00  0.00    +0.000 A 
ATOM      8  C   UNL     1       7.542   5.064  14.081  0.00  0.00    +0.000 A 
ATOM      9  C   UNL     1       7.164   4.673  12.798  0.00  0.00    +0.000 A 
ATOM     10  C   UNL     1       6.068   3.826  12.618  0.00  0.00    +0.000 A 
ATOM     11  C   UNL     1       5.347   3.364  13.721  0.00  0.00    +0.000 A 
ATOM     12  C   UNL     1       5.714   3.753  15.007  0.00  0.00    +0.000 A 
ENDBRANCH   4   7
ENDBRANCH   3   4
ENDBRANCH   1   3
BRANCH   1  13
ATOM     13  C   UNL     1       3.303   5.299  17.415  0.00  0.00    +0.000 C 
BRANCH  13  14
ATOM     14  N   UNL     1       2.771   5.043  18.776  0.00  0.00    +0.000 N 
ATOM     15  C   UNL     1       2.332   6.029  19.647  0.00  0.00    +0.000 A 
ATOM     16  C   UNL     1       1.894   5.408  20.772  0.00  0.00    +0.000 A 
ATOM     17  N   UNL     1       2.064   4.056  20.571  0.00  0.00    +0.000 N 
ATOM     18  C   UNL     1       1.686   3.023  21.538  0.00  0.00    +0.000 C 
ATOM     19  C   UNL     1       2.635   3.811  19.357  0.00  0.00    +0.000 A 
BRANCH  19  20
ATOM     20  C   UNL     1       2.959   2.543  18.820  0.00  0.00    +0.000 C 
ATOM     21  N   UNL     1       4.042   1.866  19.074  0.00  0.00    +0.000 NA
BRANCH  21  22
ATOM     22  O   UNL     1       3.996   0.657  18.370  0.00  0.00    +0.000 OA
ATOM     23  H   UNL     1       4.495   0.040  18.942  0.00  0.00    +0.000 HD
ENDBRANCH  21  22
ENDBRANCH  19  20
ENDBRANCH  13  14
ENDBRANCH   1  13
TORSDOF 7
ENDMDL
MODEL 4
REMARK VINA RESULT:      -6.9      3.589      6.500
REMARK  Name = 
REMARK  9 active torsions:
REMARK  status: ('A' for Active; 'I' for Inactive)
REMARK    1  A    between atoms: C_1  and  N_2
REMARK    2  A    between atoms: N_2  and  C_3
REMARK    3  A    between atoms: N_2  and  S_14
REMARK    4  A    between atoms: C_3  and  C_4
REMARK    5  A    between atoms: C_4  and  N_5
REMARK    6  A    between atoms: N_8  and  C_9
REMARK    7  A    between atoms: C_10  and  C_11
REMARK    8  A    between atoms: N_12  and  O_13
REMARK    9  A    between atoms: S_14  and  C_17
REMARK                            x       y       z     vdW  Elec       q    Type
REMARK                         _______ _______ _______ _____ _____    ______ ____
ROOT
ATOM      1  C   UNL     1       4.364   3.505  19.294  0.00  0.00    +0.000 C 
ENDROOT
BRANCH   1   3
ATOM      2  C   UNL     1       3.166   1.944  17.834  0.00  0.00    +0.000 C 
ATOM      3  N   UNL     1       3.232   2.503  19.218  0.00  0.00    +0.000 NA
BRANCH   3   4
ATOM      4  S   UNL     1       1.735   3.150  19.786  0.00  0.00    +0.000 S 
ATOM      5  O   UNL     1       0.706   2.666  18.887  0.00  0.00    +0.000 OA
ATOM      6  O   UNL     1       1.683   2.848  21.197  0.00  0.00    +0.000 OA
BRANCH   4   7
ATOM      7  C   UNL     1       1.883   4.896  19.554  0.00  0.00    +0.000 A 
ATOM      8  C   UNL     1       2.080   5.398  18.265  0.00  0.00    +0.000 A 
ATOM      9  C   UNL     1       2.234   6.772  18.086  0.00  0.00    +0.000 A 
ATOM     10  C   UNL     1       2.179   7.632  19.186  0.00  0.00    +0.000 A 
ATOM     11  C   UNL     1       1.970   7.122  20.468  0.00  0.00    +0.000 A 
ATOM     12  C   UNL     1       1.819   5.750  20.659  0.00  0.00    +0.000 A 
ENDBRANCH   4   7
ENDBRANCH   3   4
ENDBRANCH   1   3
BRANCH   1  13
ATOM     13  C   UNL     1       5.342   3.471  18.101  0.00  0.00    +0.000 C 
BRANCH  13  14
ATOM     14  N   UNL     1       5.699   4.800  17.546  0.00  0.00    +0.000 N 
ATOM     15  C   UNL     1       5.035   5.417  16.495  0.00  0.00    +0.000 A 
ATOM     16  C   UNL     1       5.628   6.622  16.296  0.00  0.00    +0.000 A 
ATOM     17  N   UNL     1       6.637   6.728  17.227  0.00  0.00    +0.000 N 
ATOM     18  C   UNL     1       7.508   7.896  17.374  0.00  0.00    +0.000 C 
ATOM     19  C   UNL     1       6.719   5.599  17.988  0.00  0.00    +0.000 A 
BRANCH  19  20
ATOM     20  C   UNL     1       7.638   5.355  19.036  0.00  0.00    +0.000 C 
ATOM     21  N   UNL     1       7.371   5.423  20.309  0.00  0.00    +0.000 NA
BRANCH  21  22
ATOM     22  O   UNL     1       8.527   5.102  21.031  0.00  0.00    +0.000 OA
ATOM     23  H   UNL     1       9.189   4.922  20.335  0.00  0.00    +0.000 HD
ENDBRANCH  21  22
ENDBRANCH  19  20
ENDBRANCH  13  14
ENDBRANCH   1  13
TORSDOF 7
ENDMDL
MODEL 5
REMARK VINA RESULT:      -6.9      3.513      6.429
REMARK  Name = 
REMARK  9 active torsions:
REMARK  status: ('A' for Active; 'I' for Inactive)
REMARK    1  A    between atoms: C_1  and  N_2
REMARK    2  A    between atoms: N_2  and  C_3
REMARK    3  A    between atoms: N_2  and  S_14
REMARK    4  A    between atoms: C_3  and  C_4
REMARK    5  A    between atoms: C_4  and  N_5
REMARK    6  A    between atoms: N_8  and  C_9
REMARK    7  A    between atoms: C_10  and  C_11
REMARK    8  A    between atoms: N_12  and  O_13
REMARK    9  A    between atoms: S_14  and  C_17
REMARK                            x       y       z     vdW  Elec       q    Type
REMARK                         _______ _______ _______ _____ _____    ______ ____
ROOT
ATOM      1  C   UNL     1       4.105   3.294  19.441  0.00  0.00    +0.000 C 
ENDROOT
BRANCH   1   3
ATOM      2  C   UNL     1       2.817   1.816  17.971  0.00  0.00    +0.000 C 
ATOM      3  N   UNL     1       2.868   2.428  19.334  0.00  0.00    +0.000 NA
BRANCH   3   4
ATOM      4  S   UNL     1       1.428   3.269  19.780  0.00  0.00    +0.000 S 
ATOM      5  O   UNL     1       0.400   2.856  18.845  0.00  0.00    +0.000 OA
ATOM      6  O   UNL     1       1.265   3.052  21.198  0.00  0.00    +0.000 OA
BRANCH   4   7
ATOM      7  C   UNL     1       1.789   4.972  19.474  0.00  0.00    +0.000 A 
ATOM      8  C   UNL     1       1.800   5.870  20.544  0.00  0.00    +0.000 A 
ATOM      9  C   UNL     1       2.048   7.219  20.299  0.00  0.00    +0.000 A 
ATOM     10  C   UNL     1       2.293   7.660  18.996  0.00  0.00    +0.000 A 
ATOM     11  C   UNL     1       2.292   6.754  17.934  0.00  0.00    +0.000 A 
ATOM     12  C   UNL     1       2.041   5.404  18.168  0.00  0.00    +0.000 A 
ENDBRANCH   4   7
ENDBRANCH   3   4
ENDBRANCH   1   3
BRANCH   1  13
ATOM     13  C   UNL     1       5.094   3.164  18.265  0.00  0.00    +0.000 C 
BRANCH  13  14
ATOM     14  N   UNL     1       5.464   4.444  17.613  0.00  0.00    +0.000 N 
ATOM     15  C   UNL     1       5.060   4.824  16.341  0.00  0.00    +0.000 A 
ATOM     16  C   UNL     1       5.570   6.061  16.109  0.00  0.00    +0.000 A 
ATOM     17  N   UNL     1       6.270   6.421  17.239  0.00  0.00    +0.000 N 
ATOM     18  C   UNL     1       6.955   7.704  17.414  0.00  0.00    +0.000 C 
ATOM     19  C   UNL     1       6.245   5.422  18.167  0.00  0.00    +0.000 A 
BRANCH  19  20
ATOM     20  C   UNL     1       6.859   5.442  19.442  0.00  0.00    +0.000 C 
ATOM     21  N   UNL     1       8.107   5.159  19.685  0.00  0.00    +0.000 NA
BRANCH  21  22
ATOM     22  O   UNL     1       8.344   5.304  21.058  0.00  0.00    +0.000 OA
ATOM     23  H   UNL     1       8.743   4.448  21.313  0.00  0.00    +0.000 HD
ENDBRANCH  21  22
ENDBRANCH  19  20
ENDBRANCH  13  14
ENDBRANCH   1  13
TORSDOF 7
ENDMDL
MODEL 6
REMARK VINA RESULT:      -6.9      1.175      1.432
REMARK  Name = 
REMARK  9 active torsions:
REMARK  status: ('A' for Active; 'I' for Inactive)
REMARK    1  A    between atoms: C_1  and  N_2
REMARK    2  A    between atoms: N_2  and  C_3
REMARK    3  A    between atoms: N_2  and  S_14
REMARK    4  A    between atoms: C_3  and  C_4
REMARK    5  A    between atoms: C_4  and  N_5
REMARK    6  A    between atoms: N_8  and  C_9
REMARK    7  A    between atoms: C_10  and  C_11
REMARK    8  A    between atoms: N_12  and  O_13
REMARK    9  A    between atoms: S_14  and  C_17
REMARK                            x       y       z     vdW  Elec       q    Type
REMARK                         _______ _______ _______ _____ _____    ______ ____
ROOT
ATOM      1  C   UNL     1       6.593   4.542  18.122  0.00  0.00    +0.000 C 
ENDROOT
BRANCH   1   3
ATOM      2  C   UNL     1       7.184   6.752  17.245  0.00  0.00    +0.000 C 
ATOM      3  N   UNL     1       6.790   5.362  16.864  0.00  0.00    +0.000 NA
BRANCH   3   4
ATOM      4  S   UNL     1       5.430   5.283  15.803  0.00  0.00    +0.000 S 
ATOM      5  O   UNL     1       4.582   4.215  16.294  0.00  0.00    +0.000 OA
ATOM      6  O   UNL     1       4.930   6.634  15.700  0.00  0.00    +0.000 OA
BRANCH   4   7
ATOM      7  C   UNL     1       6.101   4.775  14.249  0.00  0.00    +0.000 A 
ATOM      8  C   UNL     1       5.423   3.813  13.496  0.00  0.00    +0.000 A 
ATOM      9  C   UNL     1       5.970   3.384  12.288  0.00  0.00    +0.000 A 
ATOM     10  C   UNL     1       7.178   3.923  11.836  0.00  0.00    +0.000 A 
ATOM     11  C   UNL     1       7.842   4.893  12.589  0.00  0.00    +0.000 A 
ATOM     12  C   UNL     1       7.305   5.325  13.800  0.00  0.00    +0.000 A 
ENDBRANCH   4   7
ENDBRANCH   3   4
ENDBRANCH   1   3
BRANCH   1  13
ATOM     13  C   UNL     1       5.897   5.285  19.280  0.00  0.00    +0.000 C 
BRANCH  13  14
ATOM     14  N   UNL     1       4.443   5.021  19.410  0.00  0.00    +0.000 N 
ATOM     15  C   UNL     1       3.459   5.999  19.363  0.00  0.00    +0.000 A 
ATOM     16  C   UNL     1       2.261   5.371  19.487  0.00  0.00    +0.000 A 
ATOM     17  N   UNL     1       2.527   4.025  19.599  0.00  0.00    +0.000 N 
ATOM     18  C   UNL     1       1.501   2.986  19.723  0.00  0.00    +0.000 C 
ATOM     19  C   UNL     1       3.871   3.790  19.587  0.00  0.00    +0.000 A 
BRANCH  19  20
ATOM     20  C   UNL     1       4.506   2.530  19.687  0.00  0.00    +0.000 C 
ATOM     21  N   UNL     1       4.987   2.008  20.779  0.00  0.00    +0.000 NA
BRANCH  21  22
ATOM     22  O   UNL     1       5.523   0.749  20.481  0.00  0.00    +0.000 OA
ATOM     23  H   UNL     1       5.454   0.266  21.329  0.00  0.00    +0.000 HD
ENDBRANCH  21  22
ENDBRANCH  19  20
ENDBRANCH  13  14
ENDBRANCH   1  13
TORSDOF 7
ENDMDL
MODEL 7
REMARK VINA RESULT:      -6.8      1.980      2.921
REMARK  Name = 
REMARK  9 active torsions:
REMARK  status: ('A' for Active; 'I' for Inactive)
REMARK    1  A    between atoms: C_1  and  N_2
REMARK    2  A    between atoms: N_2  and  C_3
REMARK    3  A    between atoms: N_2  and  S_14
REMARK    4  A    between atoms: C_3  and  C_4
REMARK    5  A    between atoms: C_4  and  N_5
REMARK    6  A    between atoms: N_8  and  C_9
REMARK    7  A    between atoms: C_10  and  C_11
REMARK    8  A    between atoms: N_12  and  O_13
REMARK    9  A    between atoms: S_14  and  C_17
REMARK                            x       y       z     vdW  Elec       q    Type
REMARK                         _______ _______ _______ _____ _____    ______ ____
ROOT
ATOM      1  C   UNL     1       4.452   5.774  16.947  0.00  0.00    +0.000 C 
ENDROOT
BRANCH   1   3
ATOM      2  C   UNL     1       5.601   4.252  18.485  0.00  0.00    +0.000 C 
ATOM      3  N   UNL     1       5.515   4.702  17.063  0.00  0.00    +0.000 NA
BRANCH   3   4
ATOM      4  S   UNL     1       7.027   5.193  16.389  0.00  0.00    +0.000 S 
ATOM      5  O   UNL     1       7.063   6.641  16.462  0.00  0.00    +0.000 OA
ATOM      6  O   UNL     1       8.033   4.396  17.051  0.00  0.00    +0.000 OA
BRANCH   4   7
ATOM      7  C   UNL     1       6.930   4.736  14.685  0.00  0.00    +0.000 A 
ATOM      8  C   UNL     1       7.789   5.344  13.766  0.00  0.00    +0.000 A 
ATOM      9  C   UNL     1       7.688   5.012  12.416  0.00  0.00    +0.000 A 
ATOM     10  C   UNL     1       6.743   4.072  11.995  0.00  0.00    +0.000 A 
ATOM     11  C   UNL     1       5.898   3.461  12.922  0.00  0.00    +0.000 A 
ATOM     12  C   UNL     1       5.988   3.789  14.273  0.00  0.00    +0.000 A 
ENDBRANCH   4   7
ENDBRANCH   3   4
ENDBRANCH   1   3
BRANCH   1  13
ATOM     13  C   UNL     1       3.146   5.479  17.713  0.00  0.00    +0.000 C 
BRANCH  13  14
ATOM     14  N   UNL     1       2.607   6.619  18.495  0.00  0.00    +0.000 N 
ATOM     15  C   UNL     1       2.445   7.905  18.000  0.00  0.00    +0.000 A 
ATOM     16  C   UNL     1       1.902   8.655  18.994  0.00  0.00    +0.000 A 
ATOM     17  N   UNL     1       1.734   7.819  20.075  0.00  0.00    +0.000 N 
ATOM     18  C   UNL     1       1.147   8.228  21.353  0.00  0.00    +0.000 C 
ATOM     19  C   UNL     1       2.194   6.565  19.798  0.00  0.00    +0.000 A 
BRANCH  19  20
ATOM     20  C   UNL     1       2.186   5.453  20.674  0.00  0.00    +0.000 C 
ATOM     21  N   UNL     1       1.338   4.466  20.637  0.00  0.00    +0.000 NA
BRANCH  21  22
ATOM     22  O   UNL     1       1.660   3.554  21.650  0.00  0.00    +0.000 OA
ATOM     23  H   UNL     1       1.310   3.978  22.459  0.00  0.00    +0.000 HD
ENDBRANCH  21  22
ENDBRANCH  19  20
ENDBRANCH  13  14
ENDBRANCH   1  13
TORSDOF 7
ENDMDL
MODEL 8
REMARK VINA RESULT:      -6.8      0.984      1.013
REMARK  Name = 
REMARK  9 active torsions:
REMARK  status: ('A' for Active; 'I' for Inactive)
REMARK    1  A    between atoms: C_1  and  N_2
REMARK    2  A    between atoms: N_2  and  C_3
REMARK    3  A    between atoms: N_2  and  S_14
REMARK    4  A    between atoms: C_3  and  C_4
REMARK    5  A    between atoms: C_4  and  N_5
REMARK    6  A    between atoms: N_8  and  C_9
REMARK    7  A    between atoms: C_10  and  C_11
REMARK    8  A    between atoms: N_12  and  O_13
REMARK    9  A    between atoms: S_14  and  C_17
REMARK                            x       y       z     vdW  Elec       q    Type
REMARK                         _______ _______ _______ _____ _____    ______ ____
ROOT
ATOM      1  C   UNL     1       5.410   5.434  18.356  0.00  0.00    +0.000 C 
ENDROOT
BRANCH   1   3
ATOM      2  C   UNL     1       7.612   4.454  17.917  0.00  0.00    +0.000 C 
ATOM      3  N   UNL     1       6.346   4.929  17.280  0.00  0.00    +0.000 NA
BRANCH   3   4
ATOM      4  S   UNL     1       6.586   6.079  16.015  0.00  0.00    +0.000 S 
ATOM      5  O   UNL     1       5.425   6.948  16.020  0.00  0.00    +0.000 OA
ATOM      6  O   UNL     1       7.911   6.617  16.214  0.00  0.00    +0.000 OA
BRANCH   4   7
ATOM      7  C   UNL     1       6.546   5.127  14.527  0.00  0.00    +0.000 A 
ATOM      8  C   UNL     1       5.510   4.208  14.332  0.00  0.00    +0.000 A 
ATOM      9  C   UNL     1       5.498   3.430  13.176  0.00  0.00    +0.000 A 
ATOM     10  C   UNL     1       6.507   3.580  12.222  0.00  0.00    +0.000 A 
ATOM     11  C   UNL     1       7.531   4.508  12.418  0.00  0.00    +0.000 A 
ATOM     12  C   UNL     1       7.554   5.288  13.573  0.00  0.00    +0.000 A 
ENDBRANCH   4   7
ENDBRANCH   3   4
ENDBRANCH   1   3
BRANCH   1  13
ATOM     13  C   UNL     1       3.909   5.236  18.058  0.00  0.00    +0.000 C 
BRANCH  13  14
ATOM     14  N   UNL     1       3.082   4.860  19.231  0.00  0.00    +0.000 N 
ATOM     15  C   UNL     1       2.264   5.736  19.930  0.00  0.00    +0.000 A 
ATOM     16  C   UNL     1       1.651   5.022  20.909  0.00  0.00    +0.000 A 
ATOM     17  N   UNL     1       2.095   3.724  20.791  0.00  0.00    +0.000 N 
ATOM     18  C   UNL     1       1.653   2.618  21.644  0.00  0.00    +0.000 C 
ATOM     19  C   UNL     1       3.005   3.609  19.781  0.00  0.00    +0.000 A 
BRANCH  19  20
ATOM     20  C   UNL     1       3.672   2.427  19.379  0.00  0.00    +0.000 C 
ATOM     21  N   UNL     1       3.201   1.535  18.557  0.00  0.00    +0.000 NA
BRANCH  21  22
ATOM     22  O   UNL     1       4.153   0.521  18.395  0.00  0.00    +0.000 OA
ATOM     23  H   UNL     1       4.954   0.889  18.820  0.00  0.00    +0.000 HD
ENDBRANCH  21  22
ENDBRANCH  19  20
ENDBRANCH  13  14
ENDBRANCH   1  13
TORSDOF 7
ENDMDL
MODEL 9
REMARK VINA RESULT:      -6.8      0.953      1.466
REMARK  Name = 
REMARK  9 active torsions:
REMARK  status: ('A' for Active; 'I' for Inactive)
REMARK    1  A    between atoms: C_1  and  N_2
REMARK    2  A    between atoms: N_2  and  C_3
REMARK    3  A    between atoms: N_2  and  S_14
REMARK    4  A    between atoms: C_3  and  C_4
REMARK    5  A    between atoms: C_4  and  N_5
REMARK    6  A    between atoms: N_8  and  C_9
REMARK    7  A    between atoms: C_10  and  C_11
REMARK    8  A    between atoms: N_12  and  O_13
REMARK    9  A    between atoms: S_14  and  C_17
REMARK                            x       y       z     vdW  Elec       q    Type
REMARK                         _______ _______ _______ _____ _____    ______ ____
ROOT
ATOM      1  C   UNL     1       4.071   4.956  17.098  0.00  0.00    +0.000 C 
ENDROOT
BRANCH   1   3
ATOM      2  C   UNL     1       6.065   4.566  18.467  0.00  0.00    +0.000 C 
ATOM      3  N   UNL     1       5.555   4.658  17.066  0.00  0.00    +0.000 NA
BRANCH   3   4
ATOM      4  S   UNL     1       6.431   5.764  16.071  0.00  0.00    +0.000 S 
ATOM      5  O   UNL     1       5.592   6.937  15.916  0.00  0.00    +0.000 OA
ATOM      6  O   UNL     1       7.745   5.871  16.660  0.00  0.00    +0.000 OA
BRANCH   4   7
ATOM      7  C   UNL     1       6.543   4.964  14.499  0.00  0.00    +0.000 A 
ATOM      8  C   UNL     1       7.572   5.322  13.624  0.00  0.00    +0.000 A 
ATOM      9  C   UNL     1       7.640   4.719  12.369  0.00  0.00    +0.000 A 
ATOM     10  C   UNL     1       6.693   3.759  12.003  0.00  0.00    +0.000 A 
ATOM     11  C   UNL     1       5.676   3.398  12.888  0.00  0.00    +0.000 A 
ATOM     12  C   UNL     1       5.597   3.999  14.143  0.00  0.00    +0.000 A 
ENDBRANCH   4   7
ENDBRANCH   3   4
ENDBRANCH   1   3
BRANCH   1  13
ATOM     13  C   UNL     1       3.167   3.729  17.339  0.00  0.00    +0.000 C 
BRANCH  13  14
ATOM     14  N   UNL     1       2.456   3.720  18.641  0.00  0.00    +0.000 N 
ATOM     15  C   UNL     1       1.406   4.564  18.970  0.00  0.00    +0.000 A 
ATOM     16  C   UNL     1       1.003   4.237  20.225  0.00  0.00    +0.000 A 
ATOM     17  N   UNL     1       1.803   3.197  20.641  0.00  0.00    +0.000 N 
ATOM     18  C   UNL     1       1.678   2.524  21.936  0.00  0.00    +0.000 C 
ATOM     19  C   UNL     1       2.730   2.884  19.690  0.00  0.00    +0.000 A 
BRANCH  19  20
ATOM     20  C   UNL     1       3.716   1.873  19.777  0.00  0.00    +0.000 C 
ATOM     21  N   UNL     1       4.823   1.952  20.458  0.00  0.00    +0.000 NA
BRANCH  21  22
ATOM     22  O   UNL     1       5.532   0.752  20.311  0.00  0.00    +0.000 OA
ATOM     23  H   UNL     1       6.465   1.024  20.414  0.00  0.00    +0.000 HD
ENDBRANCH  21  22
ENDBRANCH  19  20
ENDBRANCH  13  14
ENDBRANCH   1  13
TORSDOF 7
ENDMDL
