MODEL 1
REMARK VINA RESULT:      -7.8      0.000      0.000
REMARK  Name = 
REMARK  4 active torsions:
REMARK  status: ('A' for Active; 'I' for Inactive)
REMARK    1  A    between atoms: O_1  and  C_2
REMARK    2  A    between atoms: C_6  and  C_7
REMARK    3  A    between atoms: C_9  and  C_10
REMARK    4  A    between atoms: C_22  and  O_23
REMARK                            x       y       z     vdW  Elec       q    Type
REMARK                         _______ _______ _______ _____ _____    ______ ____
ROOT
ATOM      1  C   UNL     1      -1.001  11.453  18.372  0.00  0.00    +0.000 A 
ATOM      2  C   UNL     1      -0.340  10.207  18.388  0.00  0.00    +0.000 A 
ATOM      3  C   UNL     1       1.059  10.106  18.497  0.00  0.00    +0.000 A 
ATOM      4  N   UNL     1       1.867  11.189  18.430  0.00  0.00    +0.000 NA
ATOM      5  C   UNL     1       1.246  12.384  18.480  0.00  0.00    +0.000 A 
ATOM      6  C   UNL     1      -0.134  12.535  18.547  0.00  0.00    +0.000 A 
ATOM      7  O   UNL     1      -0.431  13.849  18.799  0.00  0.00    +0.000 OA
ATOM      8  C   UNL     1       0.758  14.532  18.811  0.00  0.00    +0.000 A 
ATOM      9  C   UNL     1       0.938  15.880  19.119  0.00  0.00    +0.000 A 
ATOM     10  C   UNL     1       2.233  16.376  18.933  0.00  0.00    +0.000 A 
ATOM     11  C   UNL     1       3.271  15.589  18.440  0.00  0.00    +0.000 A 
ATOM     12  C   UNL     1       3.078  14.220  18.229  0.00  0.00    +0.000 A 
ATOM     13  C   UNL     1       1.800  13.682  18.462  0.00  0.00    +0.000 A 
ENDROOT
BRANCH   1  18
ATOM     14  C   UNL     1      -4.721  12.009  18.915  0.00  0.00    +0.000 A 
ATOM     15  C   UNL     1      -5.254  11.666  17.682  0.00  0.00    +0.000 A 
ATOM     16  C   UNL     1      -4.397  11.276  16.660  0.00  0.00    +0.000 A 
ATOM     17  C   UNL     1      -3.012  11.237  16.881  0.00  0.00    +0.000 A 
ATOM     18  C   UNL     1      -2.451  11.587  18.124  0.00  0.00    +0.000 A 
ATOM     19  C   UNL     1      -3.342  11.975  19.140  0.00  0.00    +0.000 A 
BRANCH  14  20
ATOM     20  O   UNL     1      -5.519  12.382  19.956  0.00  0.00    +0.000 OA
ATOM     21  H   UNL     1      -5.667  11.609  20.525  0.00  0.00    +0.000 HD
ENDBRANCH  14  20
ENDBRANCH   1  18
BRANCH   3  22
ATOM     22  C   UNL     1       1.761   8.831  18.747  0.00  0.00    +0.000 A 
ATOM     23  C   UNL     1       1.579   8.137  19.960  0.00  0.00    +0.000 A 
ATOM     24  C   UNL     1       2.186   6.901  20.197  0.00  0.00    +0.000 A 
ATOM     25  C   UNL     1       2.990   6.324  19.218  0.00  0.00    +0.000 A 
ATOM     26  C   UNL     1       3.179   6.977  18.005  0.00  0.00    +0.000 A 
ATOM     27  C   UNL     1       2.568   8.214  17.772  0.00  0.00    +0.000 A 
ENDBRANCH   3  22
BRANCH  10  28
ATOM     28  O   UNL     1       2.538  17.674  19.235  0.00  0.00    +0.000 OA
ATOM     29  H   UNL     1       1.774  18.074  19.681  0.00  0.00    +0.000 HD
ENDBRANCH  10  28
TORSDOF 4
ENDMDL
MODEL 2
REMARK VINA RESULT:      -7.8      0.844      1.283
REMARK  Name = 
REMARK  4 active torsions:
REMARK  status: ('A' for Active; 'I' for Inactive)
REMARK    1  A    between atoms: O_1  and  C_2
REMARK    2  A    between atoms: C_6  and  C_7
REMARK    3  A    between atoms: C_9  and  C_10
REMARK    4  A    between atoms: C_22  and  O_23
REMARK                            x       y       z     vdW  Elec       q    Type
REMARK                         _______ _______ _______ _____ _____    ______ ____
ROOT
ATOM      1  C   UNL     1      -1.158  11.678  18.930  0.00  0.00    +0.000 A 
ATOM      2  C   UNL     1      -0.529  10.417  18.872  0.00  0.00    +0.000 A 
ATOM      3  C   UNL     1       0.866  10.282  18.750  0.00  0.00    +0.000 A 
ATOM      4  N   UNL     1       1.674  11.343  18.521  0.00  0.00    +0.000 NA
ATOM      5  C   UNL     1       1.094  12.554  18.639  0.00  0.00    +0.000 A 
ATOM      6  C   UNL     1      -0.251  12.742  18.929  0.00  0.00    +0.000 A 
ATOM      7  O   UNL     1      -0.474  14.069  19.190  0.00  0.00    +0.000 OA
ATOM      8  C   UNL     1       0.714  14.721  18.986  0.00  0.00    +0.000 A 
ATOM      9  C   UNL     1       0.971  16.071  19.221  0.00  0.00    +0.000 A 
ATOM     10  C   UNL     1       2.227  16.529  18.810  0.00  0.00    +0.000 A 
ATOM     11  C   UNL     1       3.152  15.704  18.174  0.00  0.00    +0.000 A 
ATOM     12  C   UNL     1       2.898  14.336  18.037  0.00  0.00    +0.000 A 
ATOM     13  C   UNL     1       1.666  13.837  18.493  0.00  0.00    +0.000 A 
ENDROOT
BRANCH   1  18
ATOM     14  C   UNL     1      -4.780  11.716  17.783  0.00  0.00    +0.000 A 
ATOM     15  C   UNL     1      -5.421  12.331  18.847  0.00  0.00    +0.000 A 
ATOM     16  C   UNL     1      -4.675  12.713  19.956  0.00  0.00    +0.000 A 
ATOM     17  C   UNL     1      -3.294  12.471  19.991  0.00  0.00    +0.000 A 
ATOM     18  C   UNL     1      -2.626  11.843  18.922  0.00  0.00    +0.000 A 
ATOM     19  C   UNL     1      -3.405  11.470  17.813  0.00  0.00    +0.000 A 
BRANCH  14  20
ATOM     20  O   UNL     1      -5.464  11.338  16.664  0.00  0.00    +0.000 OA
ATOM     21  H   UNL     1      -4.886  11.461  15.893  0.00  0.00    +0.000 HD
ENDBRANCH  14  20
ENDBRANCH   1  18
BRANCH   3  22
ATOM     22  C   UNL     1       1.572   8.997  18.917  0.00  0.00    +0.000 A 
ATOM     23  C   UNL     1       1.471   8.272  20.122  0.00  0.00    +0.000 A 
ATOM     24  C   UNL     1       2.082   7.026  20.283  0.00  0.00    +0.000 A 
ATOM     25  C   UNL     1       2.809   6.470  19.235  0.00  0.00    +0.000 A 
ATOM     26  C   UNL     1       2.917   7.153  18.029  0.00  0.00    +0.000 A 
ATOM     27  C   UNL     1       2.302   8.400  17.871  0.00  0.00    +0.000 A 
ENDBRANCH   3  22
BRANCH  10  28
ATOM     28  O   UNL     1       2.605  17.826  19.020  0.00  0.00    +0.000 OA
ATOM     29  H   UNL     1       2.139  18.159  19.804  0.00  0.00    +0.000 HD
ENDBRANCH  10  28
TORSDOF 4
ENDMDL
MODEL 3
REMARK VINA RESULT:      -7.6      1.942      5.805
REMARK  Name = 
REMARK  4 active torsions:
REMARK  status: ('A' for Active; 'I' for Inactive)
REMARK    1  A    between atoms: O_1  and  C_2
REMARK    2  A    between atoms: C_6  and  C_7
REMARK    3  A    between atoms: C_9  and  C_10
REMARK    4  A    between atoms: C_22  and  O_23
REMARK                            x       y       z     vdW  Elec       q    Type
REMARK                         _______ _______ _______ _____ _____    ______ ____
ROOT
ATOM      1  C   UNL     1       0.306  10.719  18.742  0.00  0.00    +0.000 A 
ATOM      2  C   UNL     1      -1.101  10.711  18.852  0.00  0.00    +0.000 A 
ATOM      3  C   UNL     1      -1.851  11.898  18.935  0.00  0.00    +0.000 A 
ATOM      4  N   UNL     1      -1.267  13.110  19.076  0.00  0.00    +0.000 NA
ATOM      5  C   UNL     1       0.069  13.137  18.907  0.00  0.00    +0.000 A 
ATOM      6  C   UNL     1       0.839  12.008  18.651  0.00  0.00    +0.000 A 
ATOM      7  O   UNL     1       2.111  12.396  18.321  0.00  0.00    +0.000 OA
ATOM      8  C   UNL     1       2.158  13.761  18.447  0.00  0.00    +0.000 A 
ATOM      9  C   UNL     1       3.233  14.588  18.125  0.00  0.00    +0.000 A 
ATOM     10  C   UNL     1       3.084  15.936  18.467  0.00  0.00    +0.000 A 
ATOM     11  C   UNL     1       1.952  16.421  19.119  0.00  0.00    +0.000 A 
ATOM     12  C   UNL     1       0.856  15.583  19.343  0.00  0.00    +0.000 A 
ATOM     13  C   UNL     1       0.956  14.234  18.959  0.00  0.00    +0.000 A 
ENDROOT
BRANCH   1  18
ATOM     14  C   UNL     1       1.998   7.556  19.993  0.00  0.00    +0.000 A 
ATOM     15  C   UNL     1       2.829   7.226  18.934  0.00  0.00    +0.000 A 
ATOM     16  C   UNL     1       2.821   8.024  17.795  0.00  0.00    +0.000 A 
ATOM     17  C   UNL     1       1.977   9.142  17.726  0.00  0.00    +0.000 A 
ATOM     18  C   UNL     1       1.121   9.489  18.789  0.00  0.00    +0.000 A 
ATOM     19  C   UNL     1       1.152   8.666  19.928  0.00  0.00    +0.000 A 
BRANCH  14  20
ATOM     20  O   UNL     1       1.980   6.816  21.140  0.00  0.00    +0.000 OA
ATOM     21  H   UNL     1       1.306   6.123  21.049  0.00  0.00    +0.000 HD
ENDBRANCH  14  20
ENDBRANCH   1  18
BRANCH   3  22
ATOM     22  C   UNL     1      -3.322  11.934  18.820  0.00  0.00    +0.000 A 
ATOM     23  C   UNL     1      -3.972  11.344  17.717  0.00  0.00    +0.000 A 
ATOM     24  C   UNL     1      -5.365  11.315  17.615  0.00  0.00    +0.000 A 
ATOM     25  C   UNL     1      -6.146  11.874  18.621  0.00  0.00    +0.000 A 
ATOM     26  C   UNL     1      -5.537  12.451  19.730  0.00  0.00    +0.000 A 
ATOM     27  C   UNL     1      -4.141  12.478  19.829  0.00  0.00    +0.000 A 
ENDBRANCH   3  22
BRANCH  10  28
ATOM     28  O   UNL     1       4.058  16.849  18.170  0.00  0.00    +0.000 OA
ATOM     29  H   UNL     1       3.783  17.345  17.382  0.00  0.00    +0.000 HD
ENDBRANCH  10  28
TORSDOF 4
ENDMDL
MODEL 4
REMARK VINA RESULT:      -7.4      1.929      5.889
REMARK  Name = 
REMARK  4 active torsions:
REMARK  status: ('A' for Active; 'I' for Inactive)
REMARK    1  A    between atoms: O_1  and  C_2
REMARK    2  A    between atoms: C_6  and  C_7
REMARK    3  A    between atoms: C_9  and  C_10
REMARK    4  A    between atoms: C_22  and  O_23
REMARK                            x       y       z     vdW  Elec       q    Type
REMARK                         _______ _______ _______ _____ _____    ______ ____
ROOT
ATOM      1  C   UNL     1       0.363  10.678  18.866  0.00  0.00    +0.000 A 
ATOM      2  C   UNL     1      -1.047  10.646  18.866  0.00  0.00    +0.000 A 
ATOM      3  C   UNL     1      -1.821  11.818  18.792  0.00  0.00    +0.000 A 
ATOM      4  N   UNL     1      -1.271  13.051  18.879  0.00  0.00    +0.000 NA
ATOM      5  C   UNL     1       0.075  13.095  18.815  0.00  0.00    +0.000 A 
ATOM      6  C   UNL     1       0.880  11.968  18.713  0.00  0.00    +0.000 A 
ATOM      7  O   UNL     1       2.169  12.357  18.454  0.00  0.00    +0.000 OA
ATOM      8  C   UNL     1       2.183  13.728  18.472  0.00  0.00    +0.000 A 
ATOM      9  C   UNL     1       3.267  14.551  18.170  0.00  0.00    +0.000 A 
ATOM     10  C   UNL     1       3.068  15.919  18.388  0.00  0.00    +0.000 A 
ATOM     11  C   UNL     1       1.879  16.428  18.907  0.00  0.00    +0.000 A 
ATOM     12  C   UNL     1       0.783  15.585  19.111  0.00  0.00    +0.000 A 
ATOM     13  C   UNL     1       0.936  14.213  18.847  0.00  0.00    +0.000 A 
ENDROOT
BRANCH   1  18
ATOM     14  C   UNL     1       2.727   7.768  18.249  0.00  0.00    +0.000 A 
ATOM     15  C   UNL     1       2.641   7.060  19.438  0.00  0.00    +0.000 A 
ATOM     16  C   UNL     1       1.829   7.545  20.457  0.00  0.00    +0.000 A 
ATOM     17  C   UNL     1       1.114   8.738  20.276  0.00  0.00    +0.000 A 
ATOM     18  C   UNL     1       1.192   9.474  19.078  0.00  0.00    +0.000 A 
ATOM     19  C   UNL     1       2.019   8.958  18.065  0.00  0.00    +0.000 A 
BRANCH  14  20
ATOM     20  O   UNL     1       3.496   7.326  17.212  0.00  0.00    +0.000 OA
ATOM     21  H   UNL     1       3.734   6.399  17.378  0.00  0.00    +0.000 HD
ENDBRANCH  14  20
ENDBRANCH   1  18
BRANCH   3  22
ATOM     22  C   UNL     1      -3.279  11.811  18.558  0.00  0.00    +0.000 A 
ATOM     23  C   UNL     1      -4.167  12.293  19.541  0.00  0.00    +0.000 A 
ATOM     24  C   UNL     1      -5.546  12.351  19.320  0.00  0.00    +0.000 A 
ATOM     25  C   UNL     1      -6.071  11.930  18.102  0.00  0.00    +0.000 A 
ATOM     26  C   UNL     1      -5.221  11.462  17.107  0.00  0.00    +0.000 A 
ATOM     27  C   UNL     1      -3.840  11.407  17.332  0.00  0.00    +0.000 A 
ENDBRANCH   3  22
BRANCH  10  28
ATOM     28  O   UNL     1       4.047  16.826  18.095  0.00  0.00    +0.000 OA
ATOM     29  H   UNL     1       4.861  16.560  18.554  0.00  0.00    +0.000 HD
ENDBRANCH  10  28
TORSDOF 4
ENDMDL
MODEL 5
REMARK VINA RESULT:      -7.3      5.082     10.009
REMARK  Name = 
REMARK  4 active torsions:
REMARK  status: ('A' for Active; 'I' for Inactive)
REMARK    1  A    between atoms: O_1  and  C_2
REMARK    2  A    between atoms: C_6  and  C_7
REMARK    3  A    between atoms: C_9  and  C_10
REMARK    4  A    between atoms: C_22  and  O_23
REMARK                            x       y       z     vdW  Elec       q    Type
REMARK                         _______ _______ _______ _____ _____    ______ ____
ROOT
ATOM      1  C   UNL     1       4.196   6.296  17.457  0.00  0.00    +0.000 A 
ATOM      2  C   UNL     1       3.584   7.566  17.406  0.00  0.00    +0.000 A 
ATOM      3  C   UNL     1       2.517   7.916  18.252  0.00  0.00    +0.000 A 
ATOM      4  N   UNL     1       1.906   7.013  19.052  0.00  0.00    +0.000 NA
ATOM      5  C   UNL     1       2.520   5.818  19.157  0.00  0.00    +0.000 A 
ATOM      6  C   UNL     1       3.680   5.482  18.470  0.00  0.00    +0.000 A 
ATOM      7  O   UNL     1       4.161   4.293  18.953  0.00  0.00    +0.000 OA
ATOM      8  C   UNL     1       3.262   3.848  19.887  0.00  0.00    +0.000 A 
ATOM      9  C   UNL     1       3.395   2.721  20.697  0.00  0.00    +0.000 A 
ATOM     10  C   UNL     1       2.280   2.402  21.479  0.00  0.00    +0.000 A 
ATOM     11  C   UNL     1       1.098   3.137  21.430  0.00  0.00    +0.000 A 
ATOM     12  C   UNL     1       1.031   4.313  20.677  0.00  0.00    +0.000 A 
ATOM     13  C   UNL     1       2.157   4.690  19.924  0.00  0.00    +0.000 A 
ENDROOT
BRANCH   1  18
ATOM     14  C   UNL     1       5.891   4.621  14.498  0.00  0.00    +0.000 A 
ATOM     15  C   UNL     1       7.231   4.881  14.738  0.00  0.00    +0.000 A 
ATOM     16  C   UNL     1       7.585   5.629  15.856  0.00  0.00    +0.000 A 
ATOM     17  C   UNL     1       6.591   6.112  16.721  0.00  0.00    +0.000 A 
ATOM     18  C   UNL     1       5.225   5.862  16.491  0.00  0.00    +0.000 A 
ATOM     19  C   UNL     1       4.897   5.102  15.354  0.00  0.00    +0.000 A 
BRANCH  14  20
ATOM     20  O   UNL     1       5.492   3.878  13.425  0.00  0.00    +0.000 OA
ATOM     21  H   UNL     1       6.243   3.789  12.815  0.00  0.00    +0.000 HD
ENDBRANCH  14  20
ENDBRANCH   1  18
BRANCH   3  22
ATOM     22  C   UNL     1       2.009   9.297  18.385  0.00  0.00    +0.000 A 
ATOM     23  C   UNL     1       0.888   9.576  19.192  0.00  0.00    +0.000 A 
ATOM     24  C   UNL     1       0.425  10.881  19.380  0.00  0.00    +0.000 A 
ATOM     25  C   UNL     1       1.080  11.944  18.766  0.00  0.00    +0.000 A 
ATOM     26  C   UNL     1       2.197  11.704  17.975  0.00  0.00    +0.000 A 
ATOM     27  C   UNL     1       2.658  10.396  17.790  0.00  0.00    +0.000 A 
ENDBRANCH   3  22
BRANCH  10  28
ATOM     28  O   UNL     1       2.306   1.339  22.339  0.00  0.00    +0.000 OA
ATOM     29  H   UNL     1       2.132   1.666  23.237  0.00  0.00    +0.000 HD
ENDBRANCH  10  28
TORSDOF 4
ENDMDL
MODEL 6
REMARK VINA RESULT:      -7.3      4.600      8.807
REMARK  Name = 
REMARK  4 active torsions:
REMARK  status: ('A' for Active; 'I' for Inactive)
REMARK    1  A    between atoms: O_1  and  C_2
REMARK    2  A    between atoms: C_6  and  C_7
REMARK    3  A    between atoms: C_9  and  C_10
REMARK    4  A    between atoms: C_22  and  O_23
REMARK                            x       y       z     vdW  Elec       q    Type
REMARK                         _______ _______ _______ _____ _____    ______ ____
ROOT
ATOM      1  C   UNL     1       2.996   6.978  18.107  0.00  0.00    +0.000 A 
ATOM      2  C   UNL     1       3.944   6.766  17.083  0.00  0.00    +0.000 A 
ATOM      3  C   UNL     1       4.633   5.548  16.943  0.00  0.00    +0.000 A 
ATOM      4  N   UNL     1       4.552   4.564  17.869  0.00  0.00    +0.000 NA
ATOM      5  C   UNL     1       3.604   4.729  18.813  0.00  0.00    +0.000 A 
ATOM      6  C   UNL     1       2.777   5.842  18.892  0.00  0.00    +0.000 A 
ATOM      7  O   UNL     1       1.794   5.608  19.818  0.00  0.00    +0.000 OA
ATOM      8  C   UNL     1       2.052   4.381  20.373  0.00  0.00    +0.000 A 
ATOM      9  C   UNL     1       1.256   3.703  21.296  0.00  0.00    +0.000 A 
ATOM     10  C   UNL     1       1.801   2.523  21.813  0.00  0.00    +0.000 A 
ATOM     11  C   UNL     1       3.069   2.067  21.459  0.00  0.00    +0.000 A 
ATOM     12  C   UNL     1       3.799   2.721  20.463  0.00  0.00    +0.000 A 
ATOM     13  C   UNL     1       3.253   3.880  19.885  0.00  0.00    +0.000 A 
ENDROOT
BRANCH   1  18
ATOM     14  C   UNL     1       2.185  10.686  17.933  0.00  0.00    +0.000 A 
ATOM     15  C   UNL     1       1.269  10.837  18.962  0.00  0.00    +0.000 A 
ATOM     16  C   UNL     1       0.892   9.721  19.701  0.00  0.00    +0.000 A 
ATOM     17  C   UNL     1       1.435   8.463  19.399  0.00  0.00    +0.000 A 
ATOM     18  C   UNL     1       2.363   8.289  18.354  0.00  0.00    +0.000 A 
ATOM     19  C   UNL     1       2.726   9.435  17.625  0.00  0.00    +0.000 A 
BRANCH  14  20
ATOM     20  O   UNL     1       2.600  11.751  17.188  0.00  0.00    +0.000 OA
ATOM     21  H   UNL     1       3.487  11.559  16.842  0.00  0.00    +0.000 HD
ENDBRANCH  14  20
ENDBRANCH   1  18
BRANCH   3  22
ATOM     22  C   UNL     1       5.451   5.213  15.761  0.00  0.00    +0.000 A 
ATOM     23  C   UNL     1       6.805   5.595  15.692  0.00  0.00    +0.000 A 
ATOM     24  C   UNL     1       7.615   5.239  14.610  0.00  0.00    +0.000 A 
ATOM     25  C   UNL     1       7.086   4.484  13.567  0.00  0.00    +0.000 A 
ATOM     26  C   UNL     1       5.757   4.079  13.611  0.00  0.00    +0.000 A 
ATOM     27  C   UNL     1       4.950   4.437  14.697  0.00  0.00    +0.000 A 
ENDBRANCH   3  22
BRANCH  10  28
ATOM     28  O   UNL     1       1.098   1.754  22.699  0.00  0.00    +0.000 OA
ATOM     29  H   UNL     1       1.667   1.569  23.463  0.00  0.00    +0.000 HD
ENDBRANCH  10  28
TORSDOF 4
ENDMDL
MODEL 7
REMARK VINA RESULT:      -7.2      2.819      5.889
REMARK  Name = 
REMARK  4 active torsions:
REMARK  status: ('A' for Active; 'I' for Inactive)
REMARK    1  A    between atoms: O_1  and  C_2
REMARK    2  A    between atoms: C_6  and  C_7
REMARK    3  A    between atoms: C_9  and  C_10
REMARK    4  A    between atoms: C_22  and  O_23
REMARK                            x       y       z     vdW  Elec       q    Type
REMARK                         _______ _______ _______ _____ _____    ______ ____
ROOT
ATOM      1  C   UNL     1       0.374  11.150  19.953  0.00  0.00    +0.000 A 
ATOM      2  C   UNL     1      -0.760  11.193  20.791  0.00  0.00    +0.000 A 
ATOM      3  C   UNL     1      -1.257  12.401  21.315  0.00  0.00    +0.000 A 
ATOM      4  N   UNL     1      -0.591  13.571  21.182  0.00  0.00    +0.000 NA
ATOM      5  C   UNL     1       0.455  13.553  20.333  0.00  0.00    +0.000 A 
ATOM      6  C   UNL     1       0.881  12.418  19.655  0.00  0.00    +0.000 A 
ATOM      7  O   UNL     1       1.817  12.777  18.720  0.00  0.00    +0.000 OA
ATOM      8  C   UNL     1       2.034  14.122  18.867  0.00  0.00    +0.000 A 
ATOM      9  C   UNL     1       2.842  14.926  18.065  0.00  0.00    +0.000 A 
ATOM     10  C   UNL     1       3.004  16.247  18.498  0.00  0.00    +0.000 A 
ATOM     11  C   UNL     1       2.426  16.724  19.672  0.00  0.00    +0.000 A 
ATOM     12  C   UNL     1       1.548  15.919  20.402  0.00  0.00    +0.000 A 
ATOM     13  C   UNL     1       1.322  14.604  19.960  0.00  0.00    +0.000 A 
ENDROOT
BRANCH   1  18
ATOM     14  C   UNL     1       1.915   7.677  19.974  0.00  0.00    +0.000 A 
ATOM     15  C   UNL     1       2.339   7.534  18.662  0.00  0.00    +0.000 A 
ATOM     16  C   UNL     1       2.099   8.562  17.758  0.00  0.00    +0.000 A 
ATOM     17  C   UNL     1       1.433   9.724  18.176  0.00  0.00    +0.000 A 
ATOM     18  C   UNL     1       0.990   9.885  19.503  0.00  0.00    +0.000 A 
ATOM     19  C   UNL     1       1.248   8.831  20.395  0.00  0.00    +0.000 A 
BRANCH  14  20
ATOM     20  O   UNL     1       2.140   6.705  20.904  0.00  0.00    +0.000 OA
ATOM     21  H   UNL     1       1.511   5.981  20.753  0.00  0.00    +0.000 HD
ENDBRANCH  14  20
ENDBRANCH   1  18
BRANCH   3  22
ATOM     22  C   UNL     1      -2.561  12.510  21.998  0.00  0.00    +0.000 A 
ATOM     23  C   UNL     1      -2.670  12.269  23.382  0.00  0.00    +0.000 A 
ATOM     24  C   UNL     1      -3.882  12.422  24.061  0.00  0.00    +0.000 A 
ATOM     25  C   UNL     1      -5.018  12.829  23.369  0.00  0.00    +0.000 A 
ATOM     26  C   UNL     1      -4.941  13.088  22.005  0.00  0.00    +0.000 A 
ATOM     27  C   UNL     1      -3.726  12.934  21.329  0.00  0.00    +0.000 A 
ENDBRANCH   3  22
BRANCH  10  28
ATOM     28  O   UNL     1       3.746  17.138  17.773  0.00  0.00    +0.000 OA
ATOM     29  H   UNL     1       3.520  17.034  16.834  0.00  0.00    +0.000 HD
ENDBRANCH  10  28
TORSDOF 4
ENDMDL
MODEL 8
REMARK VINA RESULT:      -7.1      1.852      2.397
REMARK  Name = 
REMARK  4 active torsions:
REMARK  status: ('A' for Active; 'I' for Inactive)
REMARK    1  A    between atoms: O_1  and  C_2
REMARK    2  A    between atoms: C_6  and  C_7
REMARK    3  A    between atoms: C_9  and  C_10
REMARK    4  A    between atoms: C_22  and  O_23
REMARK                            x       y       z     vdW  Elec       q    Type
REMARK                         _______ _______ _______ _____ _____    ______ ____
ROOT
ATOM      1  C   UNL     1      -0.687  11.935  20.396  0.00  0.00    +0.000 A 
ATOM      2  C   UNL     1      -0.301  10.609  20.108  0.00  0.00    +0.000 A 
ATOM      3  C   UNL     1       0.901  10.309  19.443  0.00  0.00    +0.000 A 
ATOM      4  N   UNL     1       1.682  11.270  18.897  0.00  0.00    +0.000 NA
ATOM      5  C   UNL     1       1.358  12.537  19.220  0.00  0.00    +0.000 A 
ATOM      6  C   UNL     1       0.274  12.878  20.020  0.00  0.00    +0.000 A 
ATOM      7  O   UNL     1       0.346  14.211  20.331  0.00  0.00    +0.000 OA
ATOM      8  C   UNL     1       1.429  14.720  19.662  0.00  0.00    +0.000 A 
ATOM      9  C   UNL     1       1.930  16.017  19.759  0.00  0.00    +0.000 A 
ATOM     10  C   UNL     1       2.968  16.333  18.875  0.00  0.00    +0.000 A 
ATOM     11  C   UNL     1       3.450  15.426  17.934  0.00  0.00    +0.000 A 
ATOM     12  C   UNL     1       2.989  14.106  17.928  0.00  0.00    +0.000 A 
ATOM     13  C   UNL     1       1.985  13.745  18.843  0.00  0.00    +0.000 A 
ENDROOT
BRANCH   1  18
ATOM     14  C   UNL     1      -3.521  12.454  22.873  0.00  0.00    +0.000 A 
ATOM     15  C   UNL     1      -4.585  12.771  22.044  0.00  0.00    +0.000 A 
ATOM     16  C   UNL     1      -4.374  12.841  20.671  0.00  0.00    +0.000 A 
ATOM     17  C   UNL     1      -3.098  12.597  20.143  0.00  0.00    +0.000 A 
ATOM     18  C   UNL     1      -2.003  12.280  20.971  0.00  0.00    +0.000 A 
ATOM     19  C   UNL     1      -2.246  12.214  22.353  0.00  0.00    +0.000 A 
BRANCH  14  20
ATOM     20  O   UNL     1      -3.678  12.356  24.225  0.00  0.00    +0.000 OA
ATOM     21  H   UNL     1      -2.855  12.643  24.654  0.00  0.00    +0.000 HD
ENDBRANCH  14  20
ENDBRANCH   1  18
BRANCH   3  22
ATOM     22  C   UNL     1       1.444   8.940  19.331  0.00  0.00    +0.000 A 
ATOM     23  C   UNL     1       2.035   8.497  18.131  0.00  0.00    +0.000 A 
ATOM     24  C   UNL     1       2.606   7.227  18.019  0.00  0.00    +0.000 A 
ATOM     25  C   UNL     1       2.605   6.367  19.113  0.00  0.00    +0.000 A 
ATOM     26  C   UNL     1       2.042   6.779  20.316  0.00  0.00    +0.000 A 
ATOM     27  C   UNL     1       1.471   8.052  20.424  0.00  0.00    +0.000 A 
ENDBRANCH   3  22
BRANCH  10  28
ATOM     28  O   UNL     1       3.562  17.564  18.901  0.00  0.00    +0.000 OA
ATOM     29  H   UNL     1       3.962  17.730  18.032  0.00  0.00    +0.000 HD
ENDBRANCH  10  28
TORSDOF 4
ENDMDL
MODEL 9
REMARK VINA RESULT:      -7.1      3.156      7.257
REMARK  Name = 
REMARK  4 active torsions:
REMARK  status: ('A' for Active; 'I' for Inactive)
REMARK    1  A    between atoms: O_1  and  C_2
REMARK    2  A    between atoms: C_6  and  C_7
REMARK    3  A    between atoms: C_9  and  C_10
REMARK    4  A    between atoms: C_22  and  O_23
REMARK                            x       y       z     vdW  Elec       q    Type
REMARK                         _______ _______ _______ _____ _____    ______ ____
ROOT
ATOM      1  C   UNL     1       0.064  12.108  19.878  0.00  0.00    +0.000 A 
ATOM      2  C   UNL     1       0.417  13.243  19.117  0.00  0.00    +0.000 A 
ATOM      3  C   UNL     1      -0.205  14.490  19.304  0.00  0.00    +0.000 A 
ATOM      4  N   UNL     1      -1.284  14.645  20.105  0.00  0.00    +0.000 NA
ATOM      5  C   UNL     1      -1.588  13.587  20.883  0.00  0.00    +0.000 A 
ATOM      6  C   UNL     1      -0.893  12.384  20.859  0.00  0.00    +0.000 A 
ATOM      7  O   UNL     1      -1.309  11.602  21.905  0.00  0.00    +0.000 OA
ATOM      8  C   UNL     1      -2.318  12.283  22.536  0.00  0.00    +0.000 A 
ATOM      9  C   UNL     1      -2.972  11.901  23.706  0.00  0.00    +0.000 A 
ATOM     10  C   UNL     1      -4.059  12.698  24.081  0.00  0.00    +0.000 A 
ATOM     11  C   UNL     1      -4.486  13.784  23.319  0.00  0.00    +0.000 A 
ATOM     12  C   UNL     1      -3.752  14.194  22.203  0.00  0.00    +0.000 A 
ATOM     13  C   UNL     1      -2.621  13.444  21.835  0.00  0.00    +0.000 A 
ENDROOT
BRANCH   1  18
ATOM     14  C   UNL     1       1.448   8.606  20.380  0.00  0.00    +0.000 A 
ATOM     15  C   UNL     1       1.815   8.245  19.093  0.00  0.00    +0.000 A 
ATOM     16  C   UNL     1       1.588   9.136  18.050  0.00  0.00    +0.000 A 
ATOM     17  C   UNL     1       0.991  10.380  18.307  0.00  0.00    +0.000 A 
ATOM     18  C   UNL     1       0.606  10.761  19.607  0.00  0.00    +0.000 A 
ATOM     19  C   UNL     1       0.850   9.841  20.641  0.00  0.00    +0.000 A 
BRANCH  14  20
ATOM     20  O   UNL     1       1.665   7.775  21.440  0.00  0.00    +0.000 OA
ATOM     21  H   UNL     1       0.810   7.576  21.857  0.00  0.00    +0.000 HD
ENDBRANCH  14  20
ENDBRANCH   1  18
BRANCH   3  22
ATOM     22  C   UNL     1       0.292  15.741  18.696  0.00  0.00    +0.000 A 
ATOM     23  C   UNL     1       1.672  15.941  18.489  0.00  0.00    +0.000 A 
ATOM     24  C   UNL     1       2.161  17.090  17.863  0.00  0.00    +0.000 A 
ATOM     25  C   UNL     1       1.277  18.070  17.421  0.00  0.00    +0.000 A 
ATOM     26  C   UNL     1      -0.091  17.896  17.598  0.00  0.00    +0.000 A 
ATOM     27  C   UNL     1      -0.577  16.744  18.225  0.00  0.00    +0.000 A 
ENDBRANCH   3  22
BRANCH  10  28
ATOM     28  O   UNL     1      -4.756  12.442  25.228  0.00  0.00    +0.000 OA
ATOM     29  H   UNL     1      -4.441  11.601  25.598  0.00  0.00    +0.000 HD
ENDBRANCH  10  28
TORSDOF 4
ENDMDL
