MODEL 1
REMARK VINA RESULT:      -9.8      0.000      0.000
REMARK  Name = 
REMARK  5 active torsions:
REMARK  status: ('A' for Active; 'I' for Inactive)
REMARK    1  A    between atoms: O_1  and  C_2
REMARK    2  A    between atoms: C_3  and  C_4
REMARK    3  A    between atoms: C_4  and  N_5
REMARK    4  A    between atoms: C_4  and  C_12
REMARK    5  A    between atoms: N_5  and  C_6
REMARK                            x       y       z     vdW  Elec       q    Type
REMARK                         _______ _______ _______ _____ _____    ______ ____
ROOT
ATOM      1  C   UNL     1       5.400   4.349  16.745  0.00  0.00    +0.000 C 
ENDROOT
BRANCH   1   3
ATOM      2  C   UNL     1       4.315   3.373  18.885  0.00  0.00    +0.000 A 
ATOM      3  C   UNL     1       4.202   3.907  17.588  0.00  0.00    +0.000 A 
ATOM      4  C   UNL     1       2.912   4.147  17.097  0.00  0.00    +0.000 A 
ATOM      5  C   UNL     1       1.793   3.970  17.915  0.00  0.00    +0.000 A 
ATOM      6  C   UNL     1       1.934   3.475  19.217  0.00  0.00    +0.000 A 
ATOM      7  C   UNL     1       0.821   3.345  20.059  0.00  0.00    +0.000 A 
ATOM      8  C   UNL     1       0.973   2.823  21.333  0.00  0.00    +0.000 A 
ATOM      9  C   UNL     1       2.237   2.452  21.727  0.00  0.00    +0.000 A 
ATOM     10  N   UNL     1       3.338   2.600  20.959  0.00  0.00    +0.000 NA
ATOM     11  C   UNL     1       3.206   3.119  19.713  0.00  0.00    +0.000 A 
BRANCH   2  12
ATOM     12  O   UNL     1       5.568   3.141  19.408  0.00  0.00    +0.000 OA
ATOM     13  H   UNL     1       5.592   2.190  19.632  0.00  0.00    +0.000 HD
ENDBRANCH   2  12
ENDBRANCH   1   3
BRANCH   1  14
ATOM     14  C   UNL     1       6.091   5.623  17.217  0.00  0.00    +0.000 A 
ATOM     15  C   UNL     1       7.363   5.551  17.798  0.00  0.00    +0.000 A 
ATOM     16  F   UNL     1       7.932   4.357  18.011  0.00  0.00    +0.000 F 
ATOM     17  C   UNL     1       8.098   6.699  18.115  0.00  0.00    +0.000 A 
ATOM     18  C   UNL     1       7.552   7.953  17.864  0.00  0.00    +0.000 A 
ATOM     19 BR   UNL     1       8.568   9.513  18.188  0.00  0.00    +0.000 Br
ATOM     20  C   UNL     1       6.273   8.064  17.338  0.00  0.00    +0.000 A 
ATOM     21  C   UNL     1       5.559   6.908  17.033  0.00  0.00    +0.000 A 
ATOM     22  F   UNL     1       4.356   7.066  16.462  0.00  0.00    +0.000 F 
ENDBRANCH   1  14
BRANCH   1  23
ATOM     23  N   UNL     1       5.009   4.478  15.329  0.00  0.00    +0.000 N 
ATOM     24  H   UNL     1       4.386   5.265  15.162  0.00  0.00    +0.000 HD
BRANCH  23  25
ATOM     25  C   UNL     1       5.826   4.254  14.227  0.00  0.00    +0.000 A 
ATOM     26  C   UNL     1       5.512   3.425  13.149  0.00  0.00    +0.000 A 
ATOM     27  C   UNL     1       6.298   3.401  11.990  0.00  0.00    +0.000 A 
ATOM     28  C   UNL     1       7.427   4.207  11.893  0.00  0.00    +0.000 A 
ATOM     29  C   UNL     1       7.778   5.022  12.961  0.00  0.00    +0.000 A 
ATOM     30  C   UNL     1       6.981   5.047  14.108  0.00  0.00    +0.000 A 
ENDBRANCH  23  25
ENDBRANCH   1  23
TORSDOF 5
ENDMDL
MODEL 2
REMARK VINA RESULT:      -9.1      0.289      1.582
REMARK  Name = 
REMARK  5 active torsions:
REMARK  status: ('A' for Active; 'I' for Inactive)
REMARK    1  A    between atoms: O_1  and  C_2
REMARK    2  A    between atoms: C_3  and  C_4
REMARK    3  A    between atoms: C_4  and  N_5
REMARK    4  A    between atoms: C_4  and  C_12
REMARK    5  A    between atoms: N_5  and  C_6
REMARK                            x       y       z     vdW  Elec       q    Type
REMARK                         _______ _______ _______ _____ _____    ______ ____
ROOT
ATOM      1  C   UNL     1       5.423   4.219  16.618  0.00  0.00    +0.000 C 
ENDROOT
BRANCH   1   3
ATOM      2  C   UNL     1       4.319   3.369  18.802  0.00  0.00    +0.000 A 
ATOM      3  C   UNL     1       4.219   3.942  17.520  0.00  0.00    +0.000 A 
ATOM      4  C   UNL     1       2.954   4.381  17.104  0.00  0.00    +0.000 A 
ATOM      5  C   UNL     1       1.866   4.354  17.981  0.00  0.00    +0.000 A 
ATOM      6  C   UNL     1       2.001   3.816  19.266  0.00  0.00    +0.000 A 
ATOM      7  C   UNL     1       0.927   3.835  20.167  0.00  0.00    +0.000 A 
ATOM      8  C   UNL     1       1.066   3.268  21.424  0.00  0.00    +0.000 A 
ATOM      9  C   UNL     1       2.280   2.706  21.742  0.00  0.00    +0.000 A 
ATOM     10  N   UNL     1       3.349   2.705  20.916  0.00  0.00    +0.000 NA
ATOM     11  C   UNL     1       3.230   3.265  19.687  0.00  0.00    +0.000 A 
BRANCH   2  12
ATOM     12  O   UNL     1       5.549   2.943  19.251  0.00  0.00    +0.000 OA
ATOM     13  H   UNL     1       5.416   2.674  20.181  0.00  0.00    +0.000 HD
ENDBRANCH   2  12
ENDBRANCH   1   3
BRANCH   1  14
ATOM     14  C   UNL     1       6.253   5.438  17.000  0.00  0.00    +0.000 A 
ATOM     15  C   UNL     1       5.768   6.724  16.734  0.00  0.00    +0.000 A 
ATOM     16  F   UNL     1       4.614   6.875  16.070  0.00  0.00    +0.000 F 
ATOM     17  C   UNL     1       6.422   7.872  17.193  0.00  0.00    +0.000 A 
ATOM     18  C   UNL     1       7.599   7.745  17.924  0.00  0.00    +0.000 A 
ATOM     19 BR   UNL     1       8.442   9.276  18.640  0.00  0.00    +0.000 Br
ATOM     20  C   UNL     1       8.139   6.489  18.162  0.00  0.00    +0.000 A 
ATOM     21  C   UNL     1       7.471   5.360  17.693  0.00  0.00    +0.000 A 
ATOM     22  F   UNL     1       7.994   4.167  18.009  0.00  0.00    +0.000 F 
ENDBRANCH   1  14
BRANCH   1  23
ATOM     23  N   UNL     1       4.994   4.317  15.209  0.00  0.00    +0.000 N 
ATOM     24  H   UNL     1       4.324   5.066  15.053  0.00  0.00    +0.000 HD
BRANCH  23  25
ATOM     25  C   UNL     1       5.799   4.133  14.092  0.00  0.00    +0.000 A 
ATOM     26  C   UNL     1       5.476   3.339  12.990  0.00  0.00    +0.000 A 
ATOM     27  C   UNL     1       6.248   3.357  11.822  0.00  0.00    +0.000 A 
ATOM     28  C   UNL     1       7.373   4.170  11.739  0.00  0.00    +0.000 A 
ATOM     29  C   UNL     1       7.734   4.949  12.830  0.00  0.00    +0.000 A 
ATOM     30  C   UNL     1       6.950   4.934  13.986  0.00  0.00    +0.000 A 
ENDBRANCH  23  25
ENDBRANCH   1  23
TORSDOF 5
ENDMDL
MODEL 3
REMARK VINA RESULT:      -8.1      1.153      1.946
REMARK  Name = 
REMARK  5 active torsions:
REMARK  status: ('A' for Active; 'I' for Inactive)
REMARK    1  A    between atoms: O_1  and  C_2
REMARK    2  A    between atoms: C_3  and  C_4
REMARK    3  A    between atoms: C_4  and  N_5
REMARK    4  A    between atoms: C_4  and  C_12
REMARK    5  A    between atoms: N_5  and  C_6
REMARK                            x       y       z     vdW  Elec       q    Type
REMARK                         _______ _______ _______ _____ _____    ______ ____
ROOT
ATOM      1  C   UNL     1       5.690   4.943  16.978  0.00  0.00    +0.000 C 
ENDROOT
BRANCH   1   3
ATOM      2  C   UNL     1       3.900   3.482  18.150  0.00  0.00    +0.000 A 
ATOM      3  C   UNL     1       4.495   4.735  17.911  0.00  0.00    +0.000 A 
ATOM      4  C   UNL     1       4.031   5.826  18.660  0.00  0.00    +0.000 A 
ATOM      5  C   UNL     1       3.098   5.642  19.683  0.00  0.00    +0.000 A 
ATOM      6  C   UNL     1       2.549   4.378  19.927  0.00  0.00    +0.000 A 
ATOM      7  C   UNL     1       1.651   4.179  20.986  0.00  0.00    +0.000 A 
ATOM      8  C   UNL     1       1.092   2.929  21.195  0.00  0.00    +0.000 A 
ATOM      9  C   UNL     1       1.453   1.914  20.340  0.00  0.00    +0.000 A 
ATOM     10  N   UNL     1       2.345   2.058  19.336  0.00  0.00    +0.000 NA
ATOM     11  C   UNL     1       2.908   3.274  19.126  0.00  0.00    +0.000 A 
BRANCH   2  12
ATOM     12  O   UNL     1       4.342   2.385  17.445  0.00  0.00    +0.000 OA
ATOM     13  H   UNL     1       4.445   1.669  18.102  0.00  0.00    +0.000 HD
ENDBRANCH   2  12
ENDBRANCH   1   3
BRANCH   1  14
ATOM     14  C   UNL     1       6.606   6.104  17.346  0.00  0.00    +0.000 A 
ATOM     15  C   UNL     1       6.331   7.389  16.863  0.00  0.00    +0.000 A 
ATOM     16  F   UNL     1       5.312   7.577  16.014  0.00  0.00    +0.000 F 
ATOM     17  C   UNL     1       7.053   8.510  17.286  0.00  0.00    +0.000 A 
ATOM     18  C   UNL     1       8.089   8.352  18.202  0.00  0.00    +0.000 A 
ATOM     19 BR   UNL     1       9.009   9.864  18.864  0.00  0.00    +0.000 Br
ATOM     20  C   UNL     1       8.425   7.087  18.662  0.00  0.00    +0.000 A 
ATOM     21  C   UNL     1       7.693   5.986  18.226  0.00  0.00    +0.000 A 
ATOM     22  F   UNL     1       8.010   4.795  18.752  0.00  0.00    +0.000 F 
ENDBRANCH   1  14
BRANCH   1  23
ATOM     23  N   UNL     1       5.232   5.079  15.583  0.00  0.00    +0.000 N 
ATOM     24  H   UNL     1       4.815   5.986  15.392  0.00  0.00    +0.000 HD
BRANCH  23  25
ATOM     25  C   UNL     1       5.877   4.585  14.455  0.00  0.00    +0.000 A 
ATOM     26  C   UNL     1       5.332   3.668  13.554  0.00  0.00    +0.000 A 
ATOM     27  C   UNL     1       5.965   3.367  12.342  0.00  0.00    +0.000 A 
ATOM     28  C   UNL     1       7.171   3.976  12.012  0.00  0.00    +0.000 A 
ATOM     29  C   UNL     1       7.750   4.871  12.903  0.00  0.00    +0.000 A 
ATOM     30  C   UNL     1       7.104   5.174  14.103  0.00  0.00    +0.000 A 
ENDBRANCH  23  25
ENDBRANCH   1  23
TORSDOF 5
ENDMDL
MODEL 4
REMARK VINA RESULT:      -8.0      4.767      6.027
REMARK  Name = 
REMARK  5 active torsions:
REMARK  status: ('A' for Active; 'I' for Inactive)
REMARK    1  A    between atoms: O_1  and  C_2
REMARK    2  A    between atoms: C_3  and  C_4
REMARK    3  A    between atoms: C_4  and  N_5
REMARK    4  A    between atoms: C_4  and  C_12
REMARK    5  A    between atoms: N_5  and  C_6
REMARK                            x       y       z     vdW  Elec       q    Type
REMARK                         _______ _______ _______ _____ _____    ______ ____
ROOT
ATOM      1  C   UNL     1       2.837   6.901  17.929  0.00  0.00    +0.000 C 
ENDROOT
BRANCH   1   3
ATOM      2  C   UNL     1       1.677   9.099  18.660  0.00  0.00    +0.000 A 
ATOM      3  C   UNL     1       2.171   7.816  18.959  0.00  0.00    +0.000 A 
ATOM      4  C   UNL     1       1.933   7.314  20.246  0.00  0.00    +0.000 A 
ATOM      5  C   UNL     1       1.134   8.021  21.150  0.00  0.00    +0.000 A 
ATOM      6  C   UNL     1       0.622   9.279  20.814  0.00  0.00    +0.000 A 
ATOM      7  C   UNL     1      -0.223   9.968  21.697  0.00  0.00    +0.000 A 
ATOM      8  C   UNL     1      -0.695  11.227  21.364  0.00  0.00    +0.000 A 
ATOM      9  C   UNL     1      -0.313  11.755  20.153  0.00  0.00    +0.000 A 
ATOM     10  N   UNL     1       0.465  11.105  19.260  0.00  0.00    +0.000 NA
ATOM     11  C   UNL     1       0.926   9.868  19.569  0.00  0.00    +0.000 A 
BRANCH   2  12
ATOM     12  O   UNL     1       1.878   9.617  17.399  0.00  0.00    +0.000 OA
ATOM     13  H   UNL     1       1.595   8.920  16.776  0.00  0.00    +0.000 HD
ENDBRANCH   2  12
ENDBRANCH   1   3
BRANCH   1  14
ATOM     14  C   UNL     1       2.993   5.447  18.357  0.00  0.00    +0.000 A 
ATOM     15  C   UNL     1       2.151   4.467  17.817  0.00  0.00    +0.000 A 
ATOM     16  F   UNL     1       1.160   4.824  16.989  0.00  0.00    +0.000 F 
ATOM     17  C   UNL     1       2.346   3.104  18.066  0.00  0.00    +0.000 A 
ATOM     18  C   UNL     1       3.395   2.701  18.886  0.00  0.00    +0.000 A 
ATOM     19 BR   UNL     1       3.739   0.862  19.153  0.00  0.00    +0.000 Br
ATOM     20  C   UNL     1       4.218   3.646  19.482  0.00  0.00    +0.000 A 
ATOM     21  C   UNL     1       4.003   4.997  19.221  0.00  0.00    +0.000 A 
ATOM     22  F   UNL     1       4.866   5.868  19.763  0.00  0.00    +0.000 F 
ENDBRANCH   1  14
BRANCH   1  23
ATOM     23  N   UNL     1       4.142   7.454  17.522  0.00  0.00    +0.000 N 
ATOM     24  H   UNL     1       4.539   8.080  18.220  0.00  0.00    +0.000 HD
BRANCH  23  25
ATOM     25  C   UNL     1       5.145   6.776  16.839  0.00  0.00    +0.000 A 
ATOM     26  C   UNL     1       6.456   6.614  17.291  0.00  0.00    +0.000 A 
ATOM     27  C   UNL     1       7.353   5.757  16.642  0.00  0.00    +0.000 A 
ATOM     28  C   UNL     1       6.953   5.048  15.514  0.00  0.00    +0.000 A 
ATOM     29  C   UNL     1       5.663   5.212  15.028  0.00  0.00    +0.000 A 
ATOM     30  C   UNL     1       4.772   6.059  15.689  0.00  0.00    +0.000 A 
ENDBRANCH  23  25
ENDBRANCH   1  23
TORSDOF 5
ENDMDL
MODEL 5
REMARK VINA RESULT:      -7.9      7.364      9.897
REMARK  Name = 
REMARK  5 active torsions:
REMARK  status: ('A' for Active; 'I' for Inactive)
REMARK    1  A    between atoms: O_1  and  C_2
REMARK    2  A    between atoms: C_3  and  C_4
REMARK    3  A    between atoms: C_4  and  N_5
REMARK    4  A    between atoms: C_4  and  C_12
REMARK    5  A    between atoms: N_5  and  C_6
REMARK                            x       y       z     vdW  Elec       q    Type
REMARK                         _______ _______ _______ _____ _____    ______ ____
ROOT
ATOM      1  C   UNL     1       0.378  10.436  19.215  0.00  0.00    +0.000 C 
ENDROOT
BRANCH   1   3
ATOM      2  C   UNL     1       1.331  12.424  20.576  0.00  0.00    +0.000 A 
ATOM      3  C   UNL     1       1.169  11.738  19.358  0.00  0.00    +0.000 A 
ATOM      4  C   UNL     1       1.868  12.223  18.244  0.00  0.00    +0.000 A 
ATOM      5  C   UNL     1       2.778  13.275  18.376  0.00  0.00    +0.000 A 
ATOM      6  C   UNL     1       2.951  13.916  19.609  0.00  0.00    +0.000 A 
ATOM      7  C   UNL     1       3.901  14.937  19.758  0.00  0.00    +0.000 A 
ATOM      8  C   UNL     1       4.037  15.583  20.976  0.00  0.00    +0.000 A 
ATOM      9  C   UNL     1       3.222  15.183  22.009  0.00  0.00    +0.000 A 
ATOM     10  N   UNL     1       2.325  14.178  21.913  0.00  0.00    +0.000 NA
ATOM     11  C   UNL     1       2.189  13.529  20.730  0.00  0.00    +0.000 A 
BRANCH   2  12
ATOM     12  O   UNL     1       0.673  11.965  21.696  0.00  0.00    +0.000 OA
ATOM     13  H   UNL     1      -0.248  11.798  21.415  0.00  0.00    +0.000 HD
ENDBRANCH   2  12
ENDBRANCH   1   3
BRANCH   1  14
ATOM     14  C   UNL     1       1.193   9.160  19.391  0.00  0.00    +0.000 A 
ATOM     15  C   UNL     1       1.105   8.436  20.585  0.00  0.00    +0.000 A 
ATOM     16  F   UNL     1       0.368   8.910  21.599  0.00  0.00    +0.000 F 
ATOM     17  C   UNL     1       1.717   7.187  20.742  0.00  0.00    +0.000 A 
ATOM     18  C   UNL     1       2.451   6.648  19.690  0.00  0.00    +0.000 A 
ATOM     19 BR   UNL     1       3.200   4.919  19.844  0.00  0.00    +0.000 Br
ATOM     20  C   UNL     1       2.605   7.360  18.510  0.00  0.00    +0.000 A 
ATOM     21  C   UNL     1       1.988   8.602  18.378  0.00  0.00    +0.000 A 
ATOM     22  F   UNL     1       2.107   9.220  17.195  0.00  0.00    +0.000 F 
ENDBRANCH   1  14
BRANCH   1  23
ATOM     23  N   UNL     1      -0.336  10.410  17.925  0.00  0.00    +0.000 N 
ATOM     24  H   UNL     1       0.020   9.698  17.292  0.00  0.00    +0.000 HD
BRANCH  23  25
ATOM     25  C   UNL     1      -1.700  10.600  17.737  0.00  0.00    +0.000 A 
ATOM     26  C   UNL     1      -2.535  11.326  18.589  0.00  0.00    +0.000 A 
ATOM     27  C   UNL     1      -3.853  11.634  18.233  0.00  0.00    +0.000 A 
ATOM     28  C   UNL     1      -4.368  11.209  17.013  0.00  0.00    +0.000 A 
ATOM     29  C   UNL     1      -3.568  10.461  16.159  0.00  0.00    +0.000 A 
ATOM     30  C   UNL     1      -2.250  10.170  16.517  0.00  0.00    +0.000 A 
ENDBRANCH  23  25
ENDBRANCH   1  23
TORSDOF 5
ENDMDL
MODEL 6
REMARK VINA RESULT:      -7.8      7.441      9.647
REMARK  Name = 
REMARK  5 active torsions:
REMARK  status: ('A' for Active; 'I' for Inactive)
REMARK    1  A    between atoms: O_1  and  C_2
REMARK    2  A    between atoms: C_3  and  C_4
REMARK    3  A    between atoms: C_4  and  N_5
REMARK    4  A    between atoms: C_4  and  C_12
REMARK    5  A    between atoms: N_5  and  C_6
REMARK                            x       y       z     vdW  Elec       q    Type
REMARK                         _______ _______ _______ _____ _____    ______ ____
ROOT
ATOM      1  C   UNL     1       0.162  11.147  19.278  0.00  0.00    +0.000 C 
ENDROOT
BRANCH   1   3
ATOM      2  C   UNL     1       1.619   9.165  18.465  0.00  0.00    +0.000 A 
ATOM      3  C   UNL     1       0.754   9.743  19.414  0.00  0.00    +0.000 A 
ATOM      4  C   UNL     1       0.520   9.027  20.596  0.00  0.00    +0.000 A 
ATOM      5  C   UNL     1       1.215   7.845  20.863  0.00  0.00    +0.000 A 
ATOM      6  C   UNL     1       2.100   7.311  19.920  0.00  0.00    +0.000 A 
ATOM      7  C   UNL     1       2.839   6.153  20.205  0.00  0.00    +0.000 A 
ATOM      8  C   UNL     1       3.687   5.619  19.248  0.00  0.00    +0.000 A 
ATOM      9  C   UNL     1       3.774   6.264  18.037  0.00  0.00    +0.000 A 
ATOM     10  N   UNL     1       3.110   7.403  17.742  0.00  0.00    +0.000 NA
ATOM     11  C   UNL     1       2.284   7.943  18.672  0.00  0.00    +0.000 A 
BRANCH   2  12
ATOM     12  O   UNL     1       1.886   9.848  17.299  0.00  0.00    +0.000 OA
ATOM     13  H   UNL     1       1.719   9.214  16.574  0.00  0.00    +0.000 HD
ENDBRANCH   2  12
ENDBRANCH   1   3
BRANCH   1  14
ATOM     14  C   UNL     1      -1.331  11.195  18.978  0.00  0.00    +0.000 A 
ATOM     15  C   UNL     1      -2.165  12.041  19.718  0.00  0.00    +0.000 A 
ATOM     16  F   UNL     1      -1.660  12.744  20.742  0.00  0.00    +0.000 F 
ATOM     17  C   UNL     1      -3.511  12.230  19.388  0.00  0.00    +0.000 A 
ATOM     18  C   UNL     1      -4.052  11.548  18.302  0.00  0.00    +0.000 A 
ATOM     19 BR   UNL     1      -5.840  11.866  17.777  0.00  0.00    +0.000 Br
ATOM     20  C   UNL     1      -3.271  10.660  17.577  0.00  0.00    +0.000 A 
ATOM     21  C   UNL     1      -1.934  10.488  17.926  0.00  0.00    +0.000 A 
ATOM     22  F   UNL     1      -1.202   9.673  17.153  0.00  0.00    +0.000 F 
ENDBRANCH   1  14
BRANCH   1  23
ATOM     23  N   UNL     1       0.909  11.922  18.270  0.00  0.00    +0.000 N 
ATOM     24  H   UNL     1       0.482  11.883  17.348  0.00  0.00    +0.000 HD
BRANCH  23  25
ATOM     25  C   UNL     1       1.535  13.146  18.473  0.00  0.00    +0.000 A 
ATOM     26  C   UNL     1       2.880  13.414  18.211  0.00  0.00    +0.000 A 
ATOM     27  C   UNL     1       3.389  14.718  18.258  0.00  0.00    +0.000 A 
ATOM     28  C   UNL     1       2.556  15.783  18.580  0.00  0.00    +0.000 A 
ATOM     29  C   UNL     1       1.221  15.542  18.872  0.00  0.00    +0.000 A 
ATOM     30  C   UNL     1       0.719  14.240  18.811  0.00  0.00    +0.000 A 
ENDBRANCH  23  25
ENDBRANCH   1  23
TORSDOF 5
ENDMDL
MODEL 7
REMARK VINA RESULT:      -7.7      7.340      9.519
REMARK  Name = 
REMARK  5 active torsions:
REMARK  status: ('A' for Active; 'I' for Inactive)
REMARK    1  A    between atoms: O_1  and  C_2
REMARK    2  A    between atoms: C_3  and  C_4
REMARK    3  A    between atoms: C_4  and  N_5
REMARK    4  A    between atoms: C_4  and  C_12
REMARK    5  A    between atoms: N_5  and  C_6
REMARK                            x       y       z     vdW  Elec       q    Type
REMARK                         _______ _______ _______ _____ _____    ______ ____
ROOT
ATOM      1  C   UNL     1       0.478  11.290  19.054  0.00  0.00    +0.000 C 
ENDROOT
BRANCH   1   3
ATOM      2  C   UNL     1       1.105   8.965  20.009  0.00  0.00    +0.000 A 
ATOM      3  C   UNL     1       1.237   9.962  19.024  0.00  0.00    +0.000 A 
ATOM      4  C   UNL     1       2.023   9.663  17.903  0.00  0.00    +0.000 A 
ATOM      5  C   UNL     1       2.553   8.383  17.724  0.00  0.00    +0.000 A 
ATOM      6  C   UNL     1       2.374   7.395  18.700  0.00  0.00    +0.000 A 
ATOM      7  C   UNL     1       2.859   6.095  18.501  0.00  0.00    +0.000 A 
ATOM      8  C   UNL     1       2.702   5.138  19.490  0.00  0.00    +0.000 A 
ATOM      9  C   UNL     1       2.060   5.511  20.647  0.00  0.00    +0.000 A 
ATOM     10  N   UNL     1       1.544   6.742  20.858  0.00  0.00    +0.000 NA
ATOM     11  C   UNL     1       1.681   7.686  19.893  0.00  0.00    +0.000 A 
BRANCH   2  12
ATOM     12  O   UNL     1       0.327   9.216  21.117  0.00  0.00    +0.000 OA
ATOM     13  H   UNL     1       0.398  10.177  21.281  0.00  0.00    +0.000 HD
ENDBRANCH   2  12
ENDBRANCH   1   3
BRANCH   1  14
ATOM     14  C   UNL     1      -1.025  11.183  18.830  0.00  0.00    +0.000 A 
ATOM     15  C   UNL     1      -1.898  11.999  19.559  0.00  0.00    +0.000 A 
ATOM     16  F   UNL     1      -1.414  12.811  20.508  0.00  0.00    +0.000 F 
ATOM     17  C   UNL     1      -3.270  12.043  19.289  0.00  0.00    +0.000 A 
ATOM     18  C   UNL     1      -3.795  11.244  18.278  0.00  0.00    +0.000 A 
ATOM     19 BR   UNL     1      -5.627  11.364  17.828  0.00  0.00    +0.000 Br
ATOM     20  C   UNL     1      -2.969  10.383  17.570  0.00  0.00    +0.000 A 
ATOM     21  C   UNL     1      -1.607  10.356  17.858  0.00  0.00    +0.000 A 
ATOM     22  F   UNL     1      -0.839   9.560  17.100  0.00  0.00    +0.000 F 
ENDBRANCH   1  14
BRANCH   1  23
ATOM     23  N   UNL     1       1.071  12.238  18.092  0.00  0.00    +0.000 N 
ATOM     24  H   UNL     1       0.541  12.303  17.226  0.00  0.00    +0.000 HD
BRANCH  23  25
ATOM     25  C   UNL     1       1.664  13.457  18.400  0.00  0.00    +0.000 A 
ATOM     26  C   UNL     1       3.005  13.777  18.175  0.00  0.00    +0.000 A 
ATOM     27  C   UNL     1       3.481  15.084  18.332  0.00  0.00    +0.000 A 
ATOM     28  C   UNL     1       2.620  16.101  18.729  0.00  0.00    +0.000 A 
ATOM     29  C   UNL     1       1.288  15.805  18.986  0.00  0.00    +0.000 A 
ATOM     30  C   UNL     1       0.819  14.501  18.815  0.00  0.00    +0.000 A 
ENDBRANCH  23  25
ENDBRANCH   1  23
TORSDOF 5
ENDMDL
MODEL 8
REMARK VINA RESULT:      -7.6      4.052      6.219
REMARK  Name = 
REMARK  5 active torsions:
REMARK  status: ('A' for Active; 'I' for Inactive)
REMARK    1  A    between atoms: O_1  and  C_2
REMARK    2  A    between atoms: C_3  and  C_4
REMARK    3  A    between atoms: C_4  and  N_5
REMARK    4  A    between atoms: C_4  and  C_12
REMARK    5  A    between atoms: N_5  and  C_6
REMARK                            x       y       z     vdW  Elec       q    Type
REMARK                         _______ _______ _______ _____ _____    ______ ____
ROOT
ATOM      1  C   UNL     1       3.757   6.162  19.671  0.00  0.00    +0.000 C 
ENDROOT
BRANCH   1   3
ATOM      2  C   UNL     1       1.818   7.783  20.242  0.00  0.00    +0.000 A 
ATOM      3  C   UNL     1       2.732   7.242  19.318  0.00  0.00    +0.000 A 
ATOM      4  C   UNL     1       2.771   7.811  18.038  0.00  0.00    +0.000 A 
ATOM      5  C   UNL     1       2.013   8.946  17.739  0.00  0.00    +0.000 A 
ATOM      6  C   UNL     1       1.140   9.489  18.688  0.00  0.00    +0.000 A 
ATOM      7  C   UNL     1       0.416  10.658  18.410  0.00  0.00    +0.000 A 
ATOM      8  C   UNL     1      -0.469  11.165  19.348  0.00  0.00    +0.000 A 
ATOM      9  C   UNL     1      -0.597  10.489  20.539  0.00  0.00    +0.000 A 
ATOM     10  N   UNL     1       0.113   9.384  20.857  0.00  0.00    +0.000 NA
ATOM     11  C   UNL     1       0.990   8.883  19.953  0.00  0.00    +0.000 A 
BRANCH   2  12
ATOM     12  O   UNL     1       1.764   7.260  21.515  0.00  0.00    +0.000 OA
ATOM     13  H   UNL     1       1.100   6.544  21.482  0.00  0.00    +0.000 HD
ENDBRANCH   2  12
ENDBRANCH   1   3
BRANCH   1  14
ATOM     14  C   UNL     1       4.453   5.514  18.481  0.00  0.00    +0.000 A 
ATOM     15  C   UNL     1       3.699   5.076  17.386  0.00  0.00    +0.000 A 
ATOM     16  F   UNL     1       2.361   5.155  17.425  0.00  0.00    +0.000 F 
ATOM     17  C   UNL     1       4.299   4.609  16.212  0.00  0.00    +0.000 A 
ATOM     18  C   UNL     1       5.687   4.558  16.125  0.00  0.00    +0.000 A 
ATOM     19 BR   UNL     1       6.518   4.027  14.514  0.00  0.00    +0.000 Br
ATOM     20  C   UNL     1       6.467   4.933  17.210  0.00  0.00    +0.000 A 
ATOM     21  C   UNL     1       5.847   5.393  18.368  0.00  0.00    +0.000 A 
ATOM     22  F   UNL     1       6.644   5.810  19.363  0.00  0.00    +0.000 F 
ENDBRANCH   1  14
BRANCH   1  23
ATOM     23  N   UNL     1       3.139   5.129  20.524  0.00  0.00    +0.000 N 
ATOM     24  H   UNL     1       2.704   5.516  21.358  0.00  0.00    +0.000 HD
BRANCH  23  25
ATOM     25  C   UNL     1       2.449   4.006  20.083  0.00  0.00    +0.000 A 
ATOM     26  C   UNL     1       1.078   3.956  19.823  0.00  0.00    +0.000 A 
ATOM     27  C   UNL     1       0.491   2.849  19.199  0.00  0.00    +0.000 A 
ATOM     28  C   UNL     1       1.271   1.758  18.830  0.00  0.00    +0.000 A 
ATOM     29  C   UNL     1       2.633   1.770  19.101  0.00  0.00    +0.000 A 
ATOM     30  C   UNL     1       3.211   2.885  19.713  0.00  0.00    +0.000 A 
ENDBRANCH  23  25
ENDBRANCH   1  23
TORSDOF 5
ENDMDL
MODEL 9
REMARK VINA RESULT:      -7.6      6.847      8.624
REMARK  Name = 
REMARK  5 active torsions:
REMARK  status: ('A' for Active; 'I' for Inactive)
REMARK    1  A    between atoms: O_1  and  C_2
REMARK    2  A    between atoms: C_3  and  C_4
REMARK    3  A    between atoms: C_4  and  N_5
REMARK    4  A    between atoms: C_4  and  C_12
REMARK    5  A    between atoms: N_5  and  C_6
REMARK                            x       y       z     vdW  Elec       q    Type
REMARK                         _______ _______ _______ _____ _____    ______ ____
ROOT
ATOM      1  C   UNL     1       0.437  10.727  18.750  0.00  0.00    +0.000 C 
ENDROOT
BRANCH   1   3
ATOM      2  C   UNL     1       1.178   8.515  19.876  0.00  0.00    +0.000 A 
ATOM      3  C   UNL     1       1.295   9.464  18.843  0.00  0.00    +0.000 A 
ATOM      4  C   UNL     1       2.170   9.168  17.788  0.00  0.00    +0.000 A 
ATOM      5  C   UNL     1       2.806   7.926  17.716  0.00  0.00    +0.000 A 
ATOM      6  C   UNL     1       2.642   6.982  18.737  0.00  0.00    +0.000 A 
ATOM      7  C   UNL     1       3.236   5.715  18.644  0.00  0.00    +0.000 A 
ATOM      8  C   UNL     1       3.091   4.804  19.678  0.00  0.00    +0.000 A 
ATOM      9  C   UNL     1       2.351   5.188  20.771  0.00  0.00    +0.000 A 
ATOM     10  N   UNL     1       1.731   6.384  20.878  0.00  0.00    +0.000 NA
ATOM     11  C   UNL     1       1.855   7.281  19.869  0.00  0.00    +0.000 A 
BRANCH   2  12
ATOM     12  O   UNL     1       0.315   8.764  20.920  0.00  0.00    +0.000 OA
ATOM     13  H   UNL     1      -0.548   8.395  20.647  0.00  0.00    +0.000 HD
ENDBRANCH   2  12
ENDBRANCH   1   3
BRANCH   1  14
ATOM     14  C   UNL     1       0.897  11.889  19.621  0.00  0.00    +0.000 A 
ATOM     15  C   UNL     1       1.959  12.699  19.201  0.00  0.00    +0.000 A 
ATOM     16  F   UNL     1       2.619  12.399  18.074  0.00  0.00    +0.000 F 
ATOM     17  C   UNL     1       2.324  13.860  19.891  0.00  0.00    +0.000 A 
ATOM     18  C   UNL     1       1.628  14.221  21.040  0.00  0.00    +0.000 A 
ATOM     19 BR   UNL     1       2.037  15.838  21.929  0.00  0.00    +0.000 Br
ATOM     20  C   UNL     1       0.605  13.415  21.518  0.00  0.00    +0.000 A 
ATOM     21  C   UNL     1       0.260  12.264  20.815  0.00  0.00    +0.000 A 
ATOM     22  F   UNL     1      -0.780  11.555  21.276  0.00  0.00    +0.000 F 
ENDBRANCH   1  14
BRANCH   1  23
ATOM     23  N   UNL     1      -0.975  10.408  19.031  0.00  0.00    +0.000 N 
ATOM     24  H   UNL     1      -1.262  10.684  19.967  0.00  0.00    +0.000 HD
BRANCH  23  25
ATOM     25  C   UNL     1      -2.034  10.514  18.138  0.00  0.00    +0.000 A 
ATOM     26  C   UNL     1      -3.144  11.345  18.303  0.00  0.00    +0.000 A 
ATOM     27  C   UNL     1      -4.072  11.540  17.273  0.00  0.00    +0.000 A 
ATOM     28  C   UNL     1      -3.909  10.894  16.052  0.00  0.00    +0.000 A 
ATOM     29  C   UNL     1      -2.829  10.040  15.871  0.00  0.00    +0.000 A 
ATOM     30  C   UNL     1      -1.903   9.862  16.900  0.00  0.00    +0.000 A 
ENDBRANCH  23  25
ENDBRANCH   1  23
TORSDOF 5
ENDMDL
