MODEL 1
REMARK VINA RESULT:      -7.3      0.000      0.000
REMARK  Name = 
REMARK  4 active torsions:
REMARK  status: ('A' for Active; 'I' for Inactive)
REMARK    1  A    between atoms: C_1  and  C_2
REMARK    2  A    between atoms: N_4  and  C_5
REMARK    3  A    between atoms: C_5  and  C_6
REMARK    4  A    between atoms: C_14  and  N_15
REMARK                            x       y       z     vdW  Elec       q    Type
REMARK                         _______ _______ _______ _____ _____    ______ ____
ROOT
ATOM      1  C   UNL     1      -0.473  11.980  21.197  0.00  0.00    +0.000 C 
ATOM      2  O   UNL     1       0.001  12.535  19.946  0.00  0.00    +0.000 OA
ATOM      3  C   UNL     1       0.675  11.578  19.235  0.00  0.00    +0.000 C 
ATOM      4  O   UNL     1       1.251  11.829  18.192  0.00  0.00    +0.000 OA
ATOM      5  N   UNL     1       0.602  10.389  19.913  0.00  0.00    +0.000 N 
ATOM      6  C   UNL     1       1.274   9.180  19.671  0.00  0.00    +0.000 A 
ATOM      7  C   UNL     1       1.913   8.893  18.467  0.00  0.00    +0.000 A 
ATOM      8  C   UNL     1       2.574   7.668  18.288  0.00  0.00    +0.000 A 
ATOM      9  C   UNL     1       2.631   6.712  19.310  0.00  0.00    +0.000 A 
ATOM     10  C   UNL     1       1.962   7.007  20.511  0.00  0.00    +0.000 A 
ATOM     11  C   UNL     1       1.302   8.224  20.700  0.00  0.00    +0.000 A 
ATOM     12  O   UNL     1       0.711   8.416  21.934  0.00  0.00    +0.000 OA
ATOM     13  C   UNL     1       0.462   9.805  22.238  0.00  0.00    +0.000 C 
ATOM     14  C   UNL     1      -0.229  10.485  21.070  0.00  0.00    +0.000 C 
ENDROOT
BRANCH   9  15
ATOM     15  N   UNL     1       3.304   5.490  19.188  0.00  0.00    +0.000 N 
ATOM     16  C   UNL     1       4.775   5.493  19.037  0.00  0.00    +0.000 C 
ATOM     17  C   UNL     1       5.243   4.079  18.648  0.00  0.00    +0.000 C 
ATOM     18  O   UNL     1       4.838   3.101  19.622  0.00  0.00    +0.000 OA
ATOM     19  C   UNL     1       3.406   3.096  19.755  0.00  0.00    +0.000 C 
ATOM     20  C   UNL     1       2.873   4.473  20.180  0.00  0.00    +0.000 C 
ENDBRANCH   9  15
BRANCH   1  21
ATOM     21  C   UNL     1      -1.967  12.310  21.307  0.00  0.00    +0.000 C 
BRANCH  21  25
ATOM     22  C   UNL     1      -4.010  12.581  24.491  0.00  0.00    +0.000 C 
ATOM     23  C   UNL     1      -3.750  12.465  23.012  0.00  0.00    +0.000 C 
ATOM     24  O   UNL     1      -4.648  12.383  22.179  0.00  0.00    +0.000 OA
ATOM     25  N   UNL     1      -2.417  12.455  22.683  0.00  0.00    +0.000 N 
ATOM     26  H   UNL     1      -1.728  12.378  23.424  0.00  0.00    +0.000 HD
ENDBRANCH  21  25
ENDBRANCH   1  21
TORSDOF 3
ENDMDL
MODEL 2
REMARK VINA RESULT:      -7.3      2.184      2.624
REMARK  Name = 
REMARK  4 active torsions:
REMARK  status: ('A' for Active; 'I' for Inactive)
REMARK    1  A    between atoms: C_1  and  C_2
REMARK    2  A    between atoms: N_4  and  C_5
REMARK    3  A    between atoms: C_5  and  C_6
REMARK    4  A    between atoms: C_14  and  N_15
REMARK                            x       y       z     vdW  Elec       q    Type
REMARK                         _______ _______ _______ _____ _____    ______ ____
ROOT
ATOM      1  C   UNL     1       0.571  11.546  20.342  0.00  0.00    +0.000 C 
ATOM      2  O   UNL     1       1.230  11.943  19.114  0.00  0.00    +0.000 OA
ATOM      3  C   UNL     1       1.783  10.848  18.505  0.00  0.00    +0.000 C 
ATOM      4  O   UNL     1       2.473  10.940  17.506  0.00  0.00    +0.000 OA
ATOM      5  N   UNL     1       1.455   9.729  19.224  0.00  0.00    +0.000 N 
ATOM      6  C   UNL     1       1.927   8.412  19.093  0.00  0.00    +0.000 A 
ATOM      7  C   UNL     1       2.600   7.956  17.962  0.00  0.00    +0.000 A 
ATOM      8  C   UNL     1       3.054   6.630  17.894  0.00  0.00    +0.000 A 
ATOM      9  C   UNL     1       2.867   5.736  18.956  0.00  0.00    +0.000 A 
ATOM     10  C   UNL     1       2.167   6.206  20.082  0.00  0.00    +0.000 A 
ATOM     11  C   UNL     1       1.712   7.525  20.160  0.00  0.00    +0.000 A 
ATOM     12  O   UNL     1       1.067   7.882  21.329  0.00  0.00    +0.000 OA
ATOM     13  C   UNL     1       1.036   9.308  21.552  0.00  0.00    +0.000 C 
ATOM     14  C   UNL     1       0.565  10.027  20.300  0.00  0.00    +0.000 C 
ENDROOT
BRANCH   9  15
ATOM     15  N   UNL     1       3.329   4.415  18.945  0.00  0.00    +0.000 N 
ATOM     16  C   UNL     1       3.246   3.615  20.187  0.00  0.00    +0.000 C 
ATOM     17  C   UNL     1       4.056   2.318  20.004  0.00  0.00    +0.000 C 
ATOM     18  O   UNL     1       3.585   1.555  18.880  0.00  0.00    +0.000 OA
ATOM     19  C   UNL     1       3.680   2.334  17.675  0.00  0.00    +0.000 C 
ATOM     20  C   UNL     1       2.861   3.631  17.774  0.00  0.00    +0.000 C 
ENDBRANCH   9  15
BRANCH   1  21
ATOM     21  C   UNL     1      -0.849  12.127  20.309  0.00  0.00    +0.000 C 
BRANCH  21  25
ATOM     22  C   UNL     1      -3.091  10.323  17.839  0.00  0.00    +0.000 C 
ATOM     23  C   UNL     1      -2.108  11.354  18.327  0.00  0.00    +0.000 C 
ATOM     24  O   UNL     1      -1.618  12.210  17.597  0.00  0.00    +0.000 OA
ATOM     25  N   UNL     1      -1.808  11.245  19.662  0.00  0.00    +0.000 N 
ATOM     26  H   UNL     1      -2.131  10.430  20.174  0.00  0.00    +0.000 HD
ENDBRANCH  21  25
ENDBRANCH   1  21
TORSDOF 3
ENDMDL
MODEL 3
REMARK VINA RESULT:      -7.3      3.134      9.552
REMARK  Name = 
REMARK  4 active torsions:
REMARK  status: ('A' for Active; 'I' for Inactive)
REMARK    1  A    between atoms: C_1  and  C_2
REMARK    2  A    between atoms: N_4  and  C_5
REMARK    3  A    between atoms: C_5  and  C_6
REMARK    4  A    between atoms: C_14  and  N_15
REMARK                            x       y       z     vdW  Elec       q    Type
REMARK                         _______ _______ _______ _____ _____    ______ ____
ROOT
ATOM      1  C   UNL     1       5.735   4.549  16.610  0.00  0.00    +0.000 C 
ATOM      2  O   UNL     1       5.670   3.572  17.678  0.00  0.00    +0.000 OA
ATOM      3  C   UNL     1       4.752   3.963  18.615  0.00  0.00    +0.000 C 
ATOM      4  O   UNL     1       4.587   3.355  19.657  0.00  0.00    +0.000 OA
ATOM      5  N   UNL     1       4.141   5.112  18.184  0.00  0.00    +0.000 N 
ATOM      6  C   UNL     1       3.268   5.972  18.870  0.00  0.00    +0.000 A 
ATOM      7  C   UNL     1       2.613   5.609  20.045  0.00  0.00    +0.000 A 
ATOM      8  C   UNL     1       1.757   6.516  20.689  0.00  0.00    +0.000 A 
ATOM      9  C   UNL     1       1.551   7.809  20.190  0.00  0.00    +0.000 A 
ATOM     10  C   UNL     1       2.203   8.151  18.992  0.00  0.00    +0.000 A 
ATOM     11  C   UNL     1       3.057   7.256  18.343  0.00  0.00    +0.000 A 
ATOM     12  O   UNL     1       3.668   7.717  17.192  0.00  0.00    +0.000 OA
ATOM     13  C   UNL     1       4.850   6.968  16.834  0.00  0.00    +0.000 C 
ATOM     14  C   UNL     1       4.561   5.478  16.869  0.00  0.00    +0.000 C 
ENDROOT
BRANCH   9  15
ATOM     15  N   UNL     1       0.732   8.757  20.814  0.00  0.00    +0.000 N 
ATOM     16  C   UNL     1       0.944   9.058  22.246  0.00  0.00    +0.000 C 
ATOM     17  C   UNL     1      -0.234   9.905  22.762  0.00  0.00    +0.000 C 
ATOM     18  O   UNL     1      -0.382  11.120  22.007  0.00  0.00    +0.000 OA
ATOM     19  C   UNL     1      -0.600  10.819  20.618  0.00  0.00    +0.000 C 
ATOM     20  C   UNL     1       0.561  10.004  20.027  0.00  0.00    +0.000 C 
ENDBRANCH   9  15
BRANCH   1  21
ATOM     21  C   UNL     1       5.584   3.789  15.285  0.00  0.00    +0.000 C 
BRANCH  21  25
ATOM     22  C   UNL     1       7.372   4.522  12.022  0.00  0.00    +0.000 C 
ATOM     23  C   UNL     1       6.347   3.906  12.937  0.00  0.00    +0.000 C 
ATOM     24  O   UNL     1       5.454   3.163  12.538  0.00  0.00    +0.000 OA
ATOM     25  N   UNL     1       6.501   4.254  14.256  0.00  0.00    +0.000 N 
ATOM     26  H   UNL     1       7.164   4.983  14.497  0.00  0.00    +0.000 HD
ENDBRANCH  21  25
ENDBRANCH   1  21
TORSDOF 3
ENDMDL
MODEL 4
REMARK VINA RESULT:      -7.3      1.148      1.175
REMARK  Name = 
REMARK  4 active torsions:
REMARK  status: ('A' for Active; 'I' for Inactive)
REMARK    1  A    between atoms: C_1  and  C_2
REMARK    2  A    between atoms: N_4  and  C_5
REMARK    3  A    between atoms: C_5  and  C_6
REMARK    4  A    between atoms: C_14  and  N_15
REMARK                            x       y       z     vdW  Elec       q    Type
REMARK                         _______ _______ _______ _____ _____    ______ ____
ROOT
ATOM      1  C   UNL     1      -0.439  11.625  21.991  0.00  0.00    +0.000 C 
ATOM      2  O   UNL     1      -0.274  12.407  20.783  0.00  0.00    +0.000 OA
ATOM      3  C   UNL     1       0.307  11.644  19.806  0.00  0.00    +0.000 C 
ATOM      4  O   UNL     1       0.637  12.106  18.730  0.00  0.00    +0.000 OA
ATOM      5  N   UNL     1       0.462  10.366  20.277  0.00  0.00    +0.000 N 
ATOM      6  C   UNL     1       1.156   9.283  19.712  0.00  0.00    +0.000 A 
ATOM      7  C   UNL     1       1.554   9.249  18.378  0.00  0.00    +0.000 A 
ATOM      8  C   UNL     1       2.251   8.140  17.874  0.00  0.00    +0.000 A 
ATOM      9  C   UNL     1       2.587   7.053  18.691  0.00  0.00    +0.000 A 
ATOM     10  C   UNL     1       2.159   7.094  20.030  0.00  0.00    +0.000 A 
ATOM     11  C   UNL     1       1.465   8.193  20.542  0.00  0.00    +0.000 A 
ATOM     12  O   UNL     1       1.127   8.135  21.881  0.00  0.00    +0.000 OA
ATOM     13  C   UNL     1       0.845   9.429  22.456  0.00  0.00    +0.000 C 
ATOM     14  C   UNL     1      -0.119  10.200  21.571  0.00  0.00    +0.000 C 
ENDROOT
BRANCH   9  15
ATOM     15  N   UNL     1       3.308   5.941  18.240  0.00  0.00    +0.000 N 
ATOM     16  C   UNL     1       4.512   5.516  18.987  0.00  0.00    +0.000 C 
ATOM     17  C   UNL     1       5.274   4.468  18.155  0.00  0.00    +0.000 C 
ATOM     18  O   UNL     1       4.445   3.333  17.846  0.00  0.00    +0.000 OA
ATOM     19  C   UNL     1       3.284   3.753  17.110  0.00  0.00    +0.000 C 
ATOM     20  C   UNL     1       2.452   4.776  17.901  0.00  0.00    +0.000 C 
ENDBRANCH   9  15
BRANCH   1  21
ATOM     21  C   UNL     1      -1.899  11.777  22.438  0.00  0.00    +0.000 C 
BRANCH  21  25
ATOM     22  C   UNL     1      -3.305  14.427  24.758  0.00  0.00    +0.000 C 
ATOM     23  C   UNL     1      -3.277  13.146  23.966  0.00  0.00    +0.000 C 
ATOM     24  O   UNL     1      -4.196  12.333  23.976  0.00  0.00    +0.000 OA
ATOM     25  N   UNL     1      -2.128  12.971  23.236  0.00  0.00    +0.000 N 
ATOM     26  H   UNL     1      -1.349  13.605  23.385  0.00  0.00    +0.000 HD
ENDBRANCH  21  25
ENDBRANCH   1  21
TORSDOF 3
ENDMDL
MODEL 5
REMARK VINA RESULT:      -7.2      1.344      1.665
REMARK  Name = 
REMARK  4 active torsions:
REMARK  status: ('A' for Active; 'I' for Inactive)
REMARK    1  A    between atoms: C_1  and  C_2
REMARK    2  A    between atoms: N_4  and  C_5
REMARK    3  A    between atoms: C_5  and  C_6
REMARK    4  A    between atoms: C_14  and  N_15
REMARK                            x       y       z     vdW  Elec       q    Type
REMARK                         _______ _______ _______ _____ _____    ______ ____
ROOT
ATOM      1  C   UNL     1      -0.367  11.617  21.845  0.00  0.00    +0.000 C 
ATOM      2  O   UNL     1      -0.156  12.430  20.665  0.00  0.00    +0.000 OA
ATOM      3  C   UNL     1       0.450  11.688  19.687  0.00  0.00    +0.000 C 
ATOM      4  O   UNL     1       0.818  12.176  18.634  0.00  0.00    +0.000 OA
ATOM      5  N   UNL     1       0.579  10.397  20.127  0.00  0.00    +0.000 N 
ATOM      6  C   UNL     1       1.282   9.323  19.556  0.00  0.00    +0.000 A 
ATOM      7  C   UNL     1       1.723   9.321  18.235  0.00  0.00    +0.000 A 
ATOM      8  C   UNL     1       2.427   8.221  17.724  0.00  0.00    +0.000 A 
ATOM      9  C   UNL     1       2.727   7.109  18.521  0.00  0.00    +0.000 A 
ATOM     10  C   UNL     1       2.257   7.117  19.846  0.00  0.00    +0.000 A 
ATOM     11  C   UNL     1       1.555   8.208  20.365  0.00  0.00    +0.000 A 
ATOM     12  O   UNL     1       1.173   8.117  21.690  0.00  0.00    +0.000 OA
ATOM     13  C   UNL     1       0.883   9.398  22.291  0.00  0.00    +0.000 C 
ATOM     14  C   UNL     1      -0.045  10.201  21.397  0.00  0.00    +0.000 C 
ENDROOT
BRANCH   9  15
ATOM     15  N   UNL     1       3.454   6.003  18.064  0.00  0.00    +0.000 N 
ATOM     16  C   UNL     1       2.733   4.750  17.752  0.00  0.00    +0.000 C 
ATOM     17  C   UNL     1       3.758   3.620  17.543  0.00  0.00    +0.000 C 
ATOM     18  O   UNL     1       4.691   3.939  16.496  0.00  0.00    +0.000 OA
ATOM     19  C   UNL     1       5.396   5.152  16.812  0.00  0.00    +0.000 C 
ATOM     20  C   UNL     1       4.432   6.334  16.997  0.00  0.00    +0.000 C 
ENDBRANCH   9  15
BRANCH   1  21
ATOM     21  C   UNL     1      -1.840  11.770  22.249  0.00  0.00    +0.000 C 
BRANCH  21  25
ATOM     22  C   UNL     1      -3.277  14.269  24.713  0.00  0.00    +0.000 C 
ATOM     23  C   UNL     1      -3.246  13.052  23.826  0.00  0.00    +0.000 C 
ATOM     24  O   UNL     1      -4.182  12.263  23.740  0.00  0.00    +0.000 OA
ATOM     25  N   UNL     1      -2.073  12.905  23.128  0.00  0.00    +0.000 N 
ATOM     26  H   UNL     1      -1.288  13.507  23.354  0.00  0.00    +0.000 HD
ENDBRANCH  21  25
ENDBRANCH   1  21
TORSDOF 3
ENDMDL
MODEL 6
REMARK VINA RESULT:      -7.2      1.364      1.513
REMARK  Name = 
REMARK  4 active torsions:
REMARK  status: ('A' for Active; 'I' for Inactive)
REMARK    1  A    between atoms: C_1  and  C_2
REMARK    2  A    between atoms: N_4  and  C_5
REMARK    3  A    between atoms: C_5  and  C_6
REMARK    4  A    between atoms: C_14  and  N_15
REMARK                            x       y       z     vdW  Elec       q    Type
REMARK                         _______ _______ _______ _____ _____    ______ ____
ROOT
ATOM      1  C   UNL     1      -0.385  11.647  22.164  0.00  0.00    +0.000 C 
ATOM      2  O   UNL     1      -0.291  12.533  21.021  0.00  0.00    +0.000 OA
ATOM      3  C   UNL     1       0.250  11.867  19.955  0.00  0.00    +0.000 C 
ATOM      4  O   UNL     1       0.519  12.426  18.907  0.00  0.00    +0.000 OA
ATOM      5  N   UNL     1       0.445  10.556  20.305  0.00  0.00    +0.000 N 
ATOM      6  C   UNL     1       1.124   9.538  19.615  0.00  0.00    +0.000 A 
ATOM      7  C   UNL     1       1.454   9.625  18.265  0.00  0.00    +0.000 A 
ATOM      8  C   UNL     1       2.140   8.576  17.633  0.00  0.00    +0.000 A 
ATOM      9  C   UNL     1       2.530   7.429  18.335  0.00  0.00    +0.000 A 
ATOM     10  C   UNL     1       2.170   7.347  19.692  0.00  0.00    +0.000 A 
ATOM     11  C   UNL     1       1.488   8.386  20.331  0.00  0.00    +0.000 A 
ATOM     12  O   UNL     1       1.218   8.207  21.674  0.00  0.00    +0.000 OA
ATOM     13  C   UNL     1       0.949   9.442  22.372  0.00  0.00    +0.000 C 
ATOM     14  C   UNL     1      -0.068  10.270  21.607  0.00  0.00    +0.000 C 
ENDROOT
BRANCH   9  15
ATOM     15  N   UNL     1       3.242   6.372  17.755  0.00  0.00    +0.000 N 
ATOM     16  C   UNL     1       4.652   6.586  17.365  0.00  0.00    +0.000 C 
ATOM     17  C   UNL     1       5.123   5.394  16.512  0.00  0.00    +0.000 C 
ATOM     18  O   UNL     1       4.978   4.148  17.217  0.00  0.00    +0.000 OA
ATOM     19  C   UNL     1       3.602   3.942  17.582  0.00  0.00    +0.000 C 
ATOM     20  C   UNL     1       3.076   5.082  18.470  0.00  0.00    +0.000 C 
ENDBRANCH   9  15
BRANCH   1  21
ATOM     21  C   UNL     1      -1.823  11.735  22.693  0.00  0.00    +0.000 C 
BRANCH  21  25
ATOM     22  C   UNL     1      -4.737  13.614  21.159  0.00  0.00    +0.000 C 
ATOM     23  C   UNL     1      -4.008  12.760  22.162  0.00  0.00    +0.000 C 
ATOM     24  O   UNL     1      -4.535  12.330  23.184  0.00  0.00    +0.000 OA
ATOM     25  N   UNL     1      -2.700  12.510  21.829  0.00  0.00    +0.000 N 
ATOM     26  H   UNL     1      -2.286  13.012  21.051  0.00  0.00    +0.000 HD
ENDBRANCH  21  25
ENDBRANCH   1  21
TORSDOF 3
ENDMDL
MODEL 7
REMARK VINA RESULT:      -7.2      1.700      1.931
REMARK  Name = 
REMARK  4 active torsions:
REMARK  status: ('A' for Active; 'I' for Inactive)
REMARK    1  A    between atoms: C_1  and  C_2
REMARK    2  A    between atoms: N_4  and  C_5
REMARK    3  A    between atoms: C_5  and  C_6
REMARK    4  A    between atoms: C_14  and  N_15
REMARK                            x       y       z     vdW  Elec       q    Type
REMARK                         _______ _______ _______ _____ _____    ______ ____
ROOT
ATOM      1  C   UNL     1       0.560  11.346  20.481  0.00  0.00    +0.000 C 
ATOM      2  O   UNL     1       1.158  11.761  19.230  0.00  0.00    +0.000 OA
ATOM      3  C   UNL     1       1.700  10.680  18.587  0.00  0.00    +0.000 C 
ATOM      4  O   UNL     1       2.344  10.790  17.560  0.00  0.00    +0.000 OA
ATOM      5  N   UNL     1       1.418   9.550  19.310  0.00  0.00    +0.000 N 
ATOM      6  C   UNL     1       1.902   8.241  19.146  0.00  0.00    +0.000 A 
ATOM      7  C   UNL     1       2.531   7.804  17.983  0.00  0.00    +0.000 A 
ATOM      8  C   UNL     1       2.999   6.485  17.883  0.00  0.00    +0.000 A 
ATOM      9  C   UNL     1       2.871   5.580  18.944  0.00  0.00    +0.000 A 
ATOM     10  C   UNL     1       2.214   6.030  20.103  0.00  0.00    +0.000 A 
ATOM     11  C   UNL     1       1.745   7.342  20.213  0.00  0.00    +0.000 A 
ATOM     12  O   UNL     1       1.147   7.680  21.413  0.00  0.00    +0.000 OA
ATOM     13  C   UNL     1       1.107   9.104  21.649  0.00  0.00    +0.000 C 
ATOM     14  C   UNL     1       0.572   9.827  20.426  0.00  0.00    +0.000 C 
ENDROOT
BRANCH   9  15
ATOM     15  N   UNL     1       3.350   4.265  18.901  0.00  0.00    +0.000 N 
ATOM     16  C   UNL     1       3.494   3.512  20.166  0.00  0.00    +0.000 C 
ATOM     17  C   UNL     1       4.285   2.220  19.894  0.00  0.00    +0.000 C 
ATOM     18  O   UNL     1       3.645   1.408  18.894  0.00  0.00    +0.000 OA
ATOM     19  C   UNL     1       3.520   2.143  17.664  0.00  0.00    +0.000 C 
ATOM     20  C   UNL     1       2.705   3.432  17.855  0.00  0.00    +0.000 C 
ENDBRANCH   9  15
BRANCH   1  21
ATOM     21  C   UNL     1      -0.868  11.907  20.515  0.00  0.00    +0.000 C 
BRANCH  21  25
ATOM     22  C   UNL     1      -1.214  14.090  23.596  0.00  0.00    +0.000 C 
ATOM     23  C   UNL     1      -1.100  12.816  22.801  0.00  0.00    +0.000 C 
ATOM     24  O   UNL     1      -1.077  11.704  23.319  0.00  0.00    +0.000 OA
ATOM     25  N   UNL     1      -1.022  13.015  21.445  0.00  0.00    +0.000 N 
ATOM     26  H   UNL     1      -0.899  13.958  21.092  0.00  0.00    +0.000 HD
ENDBRANCH  21  25
ENDBRANCH   1  21
TORSDOF 3
ENDMDL
MODEL 8
REMARK VINA RESULT:      -7.2      2.485      9.201
REMARK  Name = 
REMARK  4 active torsions:
REMARK  status: ('A' for Active; 'I' for Inactive)
REMARK    1  A    between atoms: C_1  and  C_2
REMARK    2  A    between atoms: N_4  and  C_5
REMARK    3  A    between atoms: C_5  and  C_6
REMARK    4  A    between atoms: C_14  and  N_15
REMARK                            x       y       z     vdW  Elec       q    Type
REMARK                         _______ _______ _______ _____ _____    ______ ____
ROOT
ATOM      1  C   UNL     1       5.018   4.492  17.340  0.00  0.00    +0.000 C 
ATOM      2  O   UNL     1       4.790   3.556  18.421  0.00  0.00    +0.000 OA
ATOM      3  C   UNL     1       3.873   4.068  19.299  0.00  0.00    +0.000 C 
ATOM      4  O   UNL     1       3.587   3.508  20.341  0.00  0.00    +0.000 OA
ATOM      5  N   UNL     1       3.415   5.265  18.812  0.00  0.00    +0.000 N 
ATOM      6  C   UNL     1       2.607   6.232  19.433  0.00  0.00    +0.000 A 
ATOM      7  C   UNL     1       1.856   5.973  20.577  0.00  0.00    +0.000 A 
ATOM      8  C   UNL     1       1.072   6.984  21.154  0.00  0.00    +0.000 A 
ATOM      9  C   UNL     1       1.035   8.278  20.619  0.00  0.00    +0.000 A 
ATOM     10  C   UNL     1       1.782   8.517  19.452  0.00  0.00    +0.000 A 
ATOM     11  C   UNL     1       2.567   7.518  18.869  0.00  0.00    +0.000 A 
ATOM     12  O   UNL     1       3.284   7.879  17.745  0.00  0.00    +0.000 OA
ATOM     13  C   UNL     1       4.393   6.998  17.467  0.00  0.00    +0.000 C 
ATOM     14  C   UNL     1       3.941   5.550  17.515  0.00  0.00    +0.000 C 
ENDROOT
BRANCH   9  15
ATOM     15  N   UNL     1       0.293   9.325  21.178  0.00  0.00    +0.000 N 
ATOM     16  C   UNL     1       0.208   9.438  22.650  0.00  0.00    +0.000 C 
ATOM     17  C   UNL     1      -0.869  10.477  23.013  0.00  0.00    +0.000 C 
ATOM     18  O   UNL     1      -0.586  11.759  22.424  0.00  0.00    +0.000 OA
ATOM     19  C   UNL     1      -0.517  11.643  20.992  0.00  0.00    +0.000 C 
ATOM     20  C   UNL     1       0.569  10.645  20.558  0.00  0.00    +0.000 C 
ENDBRANCH   9  15
BRANCH   1  21
ATOM     21  C   UNL     1       4.854   3.720  16.024  0.00  0.00    +0.000 C 
BRANCH  21  25
ATOM     22  C   UNL     1       7.462   5.206  13.705  0.00  0.00    +0.000 C 
ATOM     23  C   UNL     1       6.907   4.608  14.971  0.00  0.00    +0.000 C 
ATOM     24  O   UNL     1       7.594   4.383  15.963  0.00  0.00    +0.000 OA
ATOM     25  N   UNL     1       5.563   4.335  14.912  0.00  0.00    +0.000 N 
ATOM     26  H   UNL     1       5.085   4.407  14.020  0.00  0.00    +0.000 HD
ENDBRANCH  21  25
ENDBRANCH   1  21
TORSDOF 3
ENDMDL
MODEL 9
REMARK VINA RESULT:      -7.2      2.056      2.365
REMARK  Name = 
REMARK  4 active torsions:
REMARK  status: ('A' for Active; 'I' for Inactive)
REMARK    1  A    between atoms: C_1  and  C_2
REMARK    2  A    between atoms: N_4  and  C_5
REMARK    3  A    between atoms: C_5  and  C_6
REMARK    4  A    between atoms: C_14  and  N_15
REMARK                            x       y       z     vdW  Elec       q    Type
REMARK                         _______ _______ _______ _____ _____    ______ ____
ROOT
ATOM      1  C   UNL     1       0.170  12.131  20.301  0.00  0.00    +0.000 C 
ATOM      2  O   UNL     1       0.981  12.404  19.132  0.00  0.00    +0.000 OA
ATOM      3  C   UNL     1       1.558  11.246  18.682  0.00  0.00    +0.000 C 
ATOM      4  O   UNL     1       2.362  11.234  17.768  0.00  0.00    +0.000 OA
ATOM      5  N   UNL     1       1.106  10.201  19.444  0.00  0.00    +0.000 N 
ATOM      6  C   UNL     1       1.538   8.865  19.475  0.00  0.00    +0.000 A 
ATOM      7  C   UNL     1       2.319   8.296  18.472  0.00  0.00    +0.000 A 
ATOM      8  C   UNL     1       2.725   6.956  18.564  0.00  0.00    +0.000 A 
ATOM      9  C   UNL     1       2.382   6.160  19.664  0.00  0.00    +0.000 A 
ATOM     10  C   UNL     1       1.575   6.743  20.658  0.00  0.00    +0.000 A 
ATOM     11  C   UNL     1       1.165   8.077  20.576  0.00  0.00    +0.000 A 
ATOM     12  O   UNL     1       0.404   8.549  21.628  0.00  0.00    +0.000 OA
ATOM     13  C   UNL     1       0.403   9.989  21.732  0.00  0.00    +0.000 C 
ATOM     14  C   UNL     1       0.109  10.615  20.380  0.00  0.00    +0.000 C 
ENDROOT
BRANCH   9  15
ATOM     15  N   UNL     1       2.790   4.829  19.814  0.00  0.00    +0.000 N 
ATOM     16  C   UNL     1       4.171   4.456  19.442  0.00  0.00    +0.000 C 
ATOM     17  C   UNL     1       4.291   2.921  19.430  0.00  0.00    +0.000 C 
ATOM     18  O   UNL     1       3.941   2.353  20.705  0.00  0.00    +0.000 OA
ATOM     19  C   UNL     1       2.593   2.711  21.054  0.00  0.00    +0.000 C 
ATOM     20  C   UNL     1       2.411   4.235  21.121  0.00  0.00    +0.000 C 
ENDBRANCH   9  15
BRANCH   1  21
ATOM     21  C   UNL     1      -1.213  12.749  20.052  0.00  0.00    +0.000 C 
BRANCH  21  25
ATOM     22  C   UNL     1      -3.373  10.479  17.915  0.00  0.00    +0.000 C 
ATOM     23  C   UNL     1      -2.348  11.540  18.219  0.00  0.00    +0.000 C 
ATOM     24  O   UNL     1      -1.716  12.129  17.348  0.00  0.00    +0.000 OA
ATOM     25  N   UNL     1      -2.185  11.785  19.560  0.00  0.00    +0.000 N 
ATOM     26  H   UNL     1      -2.628  11.165  20.231  0.00  0.00    +0.000 HD
ENDBRANCH  21  25
ENDBRANCH   1  21
TORSDOF 3
ENDMDL
