MODEL 1
REMARK VINA RESULT:      -7.3      0.000      0.000
REMARK  Name = 
REMARK  6 active torsions:
REMARK  status: ('A' for Active; 'I' for Inactive)
REMARK    1  A    between atoms: C_1  and  C_2
REMARK    2  A    between atoms: C_5  and  C_6
REMARK    3  A    between atoms: C_7  and  N_8
REMARK    4  A    between atoms: C_9  and  C_11
REMARK    5  A    between atoms: N_15  and  C_16
REMARK    6  A    between atoms: C_19  and  C_20
REMARK                            x       y       z     vdW  Elec       q    Type
REMARK                         _______ _______ _______ _____ _____    ______ ____
ROOT
ATOM      1  C   UNL     1       2.373   5.936  18.371  0.00  0.00    +0.000 C 
ATOM      2  C   UNL     1       2.246   5.740  19.880  0.00  0.00    +0.000 C 
ATOM      3  C   UNL     1       1.684   7.071  20.353  0.00  0.00    +0.000 C 
ATOM      4  O   UNL     1       1.167   7.260  21.438  0.00  0.00    +0.000 OA
ATOM      5  N   UNL     1       1.901   8.003  19.349  0.00  0.00    +0.000 N 
ATOM      6  C   UNL     1       2.635   7.433  18.257  0.00  0.00    +0.000 C 
ENDROOT
BRANCH   5   7
ATOM      7  C   UNL     1       1.630   9.439  19.390  0.00  0.00    +0.000 C 
ATOM      8  C   UNL     1       0.177   9.774  19.748  0.00  0.00    +0.000 C 
ATOM      9  C   UNL     1      -0.039  11.286  19.818  0.00  0.00    +0.000 C 
ATOM     10  C   UNL     1       0.399  11.983  18.521  0.00  0.00    +0.000 C 
ATOM     11  C   UNL     1       0.214  13.496  18.625  0.00  0.00    +0.000 C 
ATOM     12  C   UNL     1       1.856  11.641  18.184  0.00  0.00    +0.000 C 
ATOM     13  C   UNL     1       2.069  10.131  18.097  0.00  0.00    +0.000 C 
ENDBRANCH   5   7
BRANCH   1  15
ATOM     14  N   UNL     1       4.655   5.901  17.487  0.00  0.00    +0.000 N 
ATOM     15  C   UNL     1       3.486   5.191  17.661  0.00  0.00    +0.000 C 
ATOM     16  O   UNL     1       3.325   4.018  17.339  0.00  0.00    +0.000 OA
ATOM     17  H   UNL     1       4.638   6.908  17.600  0.00  0.00    +0.000 HD
BRANCH  14  24
ATOM     18  C   UNL     1       7.337   5.545  19.185  0.00  0.00    +0.000 C 
ATOM     19  C   UNL     1       7.051   5.177  17.779  0.00  0.00    +0.000 A 
ATOM     20  N   UNL     1       8.022   4.616  17.049  0.00  0.00    +0.000 NA
ATOM     21  O   UNL     1       7.476   4.399  15.808  0.00  0.00    +0.000 OA
ATOM     22  C   UNL     1       6.181   4.819  15.786  0.00  0.00    +0.000 A 
ATOM     23  C   UNL     1       5.490   4.548  14.507  0.00  0.00    +0.000 C 
ATOM     24  C   UNL     1       5.853   5.351  17.022  0.00  0.00    +0.000 A 
ENDBRANCH  14  24
ENDBRANCH   1  15
TORSDOF 3
ENDMDL
MODEL 2
REMARK VINA RESULT:      -7.3      2.401      7.571
REMARK  Name = 
REMARK  6 active torsions:
REMARK  status: ('A' for Active; 'I' for Inactive)
REMARK    1  A    between atoms: C_1  and  C_2
REMARK    2  A    between atoms: C_5  and  C_6
REMARK    3  A    between atoms: C_7  and  N_8
REMARK    4  A    between atoms: C_9  and  C_11
REMARK    5  A    between atoms: N_15  and  C_16
REMARK    6  A    between atoms: C_19  and  C_20
REMARK                            x       y       z     vdW  Elec       q    Type
REMARK                         _______ _______ _______ _____ _____    ______ ____
ROOT
ATOM      1  C   UNL     1       2.018   7.577  20.257  0.00  0.00    +0.000 C 
ATOM      2  C   UNL     1       1.481   6.189  20.592  0.00  0.00    +0.000 C 
ATOM      3  C   UNL     1       2.296   5.277  19.688  0.00  0.00    +0.000 C 
ATOM      4  O   UNL     1       2.396   4.072  19.824  0.00  0.00    +0.000 OA
ATOM      5  N   UNL     1       2.857   6.062  18.692  0.00  0.00    +0.000 N 
ATOM      6  C   UNL     1       2.428   7.426  18.798  0.00  0.00    +0.000 C 
ENDROOT
BRANCH   5   7
ATOM      7  C   UNL     1       3.632   5.617  17.535  0.00  0.00    +0.000 C 
ATOM      8  C   UNL     1       4.456   4.352  17.805  0.00  0.00    +0.000 C 
ATOM      9  C   UNL     1       5.211   3.908  16.551  0.00  0.00    +0.000 C 
ATOM     10  C   UNL     1       6.081   5.038  15.983  0.00  0.00    +0.000 C 
ATOM     11  C   UNL     1       6.796   4.589  14.709  0.00  0.00    +0.000 C 
ATOM     12  C   UNL     1       5.239   6.292  15.714  0.00  0.00    +0.000 C 
ATOM     13  C   UNL     1       4.497   6.746  16.969  0.00  0.00    +0.000 C 
ENDBRANCH   5   7
BRANCH   1  15
ATOM     14  N   UNL     1       1.070   9.629  19.317  0.00  0.00    +0.000 N 
ATOM     15  C   UNL     1       1.060   8.745  20.376  0.00  0.00    +0.000 C 
ATOM     16  O   UNL     1       0.304   8.817  21.340  0.00  0.00    +0.000 OA
ATOM     17  H   UNL     1       1.849   9.607  18.669  0.00  0.00    +0.000 HD
BRANCH  14  24
ATOM     18  C   UNL     1       1.179  12.493  20.727  0.00  0.00    +0.000 C 
ATOM     19  C   UNL     1       0.199  11.952  19.758  0.00  0.00    +0.000 A 
ATOM     20  N   UNL     1      -0.827  12.723  19.381  0.00  0.00    +0.000 NA
ATOM     21  O   UNL     1      -1.559  11.963  18.501  0.00  0.00    +0.000 OA
ATOM     22  C   UNL     1      -0.978  10.743  18.340  0.00  0.00    +0.000 A 
ATOM     23  C   UNL     1      -1.658   9.887  17.345  0.00  0.00    +0.000 C 
ATOM     24  C   UNL     1       0.149  10.665  19.141  0.00  0.00    +0.000 A 
ENDBRANCH  14  24
ENDBRANCH   1  15
TORSDOF 3
ENDMDL
MODEL 3
REMARK VINA RESULT:      -7.2      2.510      7.505
REMARK  Name = 
REMARK  6 active torsions:
REMARK  status: ('A' for Active; 'I' for Inactive)
REMARK    1  A    between atoms: C_1  and  C_2
REMARK    2  A    between atoms: C_5  and  C_6
REMARK    3  A    between atoms: C_7  and  N_8
REMARK    4  A    between atoms: C_9  and  C_11
REMARK    5  A    between atoms: N_15  and  C_16
REMARK    6  A    between atoms: C_19  and  C_20
REMARK                            x       y       z     vdW  Elec       q    Type
REMARK                         _______ _______ _______ _____ _____    ______ ____
ROOT
ATOM      1  C   UNL     1       1.812   7.830  20.482  0.00  0.00    +0.000 C 
ATOM      2  C   UNL     1       1.264   6.449  20.832  0.00  0.00    +0.000 C 
ATOM      3  C   UNL     1       2.262   5.508  20.176  0.00  0.00    +0.000 C 
ATOM      4  O   UNL     1       2.373   4.323  20.432  0.00  0.00    +0.000 OA
ATOM      5  N   UNL     1       2.976   6.236  19.236  0.00  0.00    +0.000 N 
ATOM      6  C   UNL     1       2.493   7.583  19.141  0.00  0.00    +0.000 C 
ENDROOT
BRANCH   5   7
ATOM      7  C   UNL     1       3.967   5.737  18.284  0.00  0.00    +0.000 C 
ATOM      8  C   UNL     1       4.514   6.822  17.350  0.00  0.00    +0.000 C 
ATOM      9  C   UNL     1       5.576   6.254  16.406  0.00  0.00    +0.000 C 
ATOM     10  C   UNL     1       5.047   5.045  15.620  0.00  0.00    +0.000 C 
ATOM     11  C   UNL     1       6.133   4.466  14.714  0.00  0.00    +0.000 C 
ATOM     12  C   UNL     1       4.511   3.969  16.571  0.00  0.00    +0.000 C 
ATOM     13  C   UNL     1       3.439   4.531  17.503  0.00  0.00    +0.000 C 
ENDBRANCH   5   7
BRANCH   1  15
ATOM     14  N   UNL     1       1.099   9.864  19.321  0.00  0.00    +0.000 N 
ATOM     15  C   UNL     1       0.812   8.958  20.320  0.00  0.00    +0.000 C 
ATOM     16  O   UNL     1      -0.198   8.981  21.016  0.00  0.00    +0.000 OA
ATOM     17  H   UNL     1       2.036   9.885  18.933  0.00  0.00    +0.000 HD
BRANCH  14  24
ATOM     18  C   UNL     1       1.357  12.980  19.975  0.00  0.00    +0.000 C 
ATOM     19  C   UNL     1       0.346  12.263  19.166  0.00  0.00    +0.000 A 
ATOM     20  N   UNL     1      -0.644  12.966  18.602  0.00  0.00    +0.000 NA
ATOM     21  O   UNL     1      -1.419  12.048  17.935  0.00  0.00    +0.000 OA
ATOM     22  C   UNL     1      -0.899  10.799  18.086  0.00  0.00    +0.000 A 
ATOM     23  C   UNL     1      -1.627   9.757  17.330  0.00  0.00    +0.000 C 
ATOM     24  C   UNL     1       0.228  10.868  18.887  0.00  0.00    +0.000 A 
ENDBRANCH  14  24
ENDBRANCH   1  15
TORSDOF 3
ENDMDL
MODEL 4
REMARK VINA RESULT:      -7.2      0.446      1.702
REMARK  Name = 
REMARK  6 active torsions:
REMARK  status: ('A' for Active; 'I' for Inactive)
REMARK    1  A    between atoms: C_1  and  C_2
REMARK    2  A    between atoms: C_5  and  C_6
REMARK    3  A    between atoms: C_7  and  N_8
REMARK    4  A    between atoms: C_9  and  C_11
REMARK    5  A    between atoms: N_15  and  C_16
REMARK    6  A    between atoms: C_19  and  C_20
REMARK                            x       y       z     vdW  Elec       q    Type
REMARK                         _______ _______ _______ _____ _____    ______ ____
ROOT
ATOM      1  C   UNL     1       2.472   5.887  18.501  0.00  0.00    +0.000 C 
ATOM      2  C   UNL     1       2.261   5.713  20.002  0.00  0.00    +0.000 C 
ATOM      3  C   UNL     1       1.664   7.047  20.422  0.00  0.00    +0.000 C 
ATOM      4  O   UNL     1       1.085   7.249  21.473  0.00  0.00    +0.000 OA
ATOM      5  N   UNL     1       1.930   7.964  19.416  0.00  0.00    +0.000 N 
ATOM      6  C   UNL     1       2.729   7.383  18.377  0.00  0.00    +0.000 C 
ENDROOT
BRANCH   5   7
ATOM      7  C   UNL     1       1.647   9.399  19.419  0.00  0.00    +0.000 C 
ATOM      8  C   UNL     1       0.195   9.732  19.783  0.00  0.00    +0.000 C 
ATOM      9  C   UNL     1      -0.033  11.243  19.812  0.00  0.00    +0.000 C 
ATOM     10  C   UNL     1       0.385  11.906  18.490  0.00  0.00    +0.000 C 
ATOM     11  C   UNL     1       0.188  13.420  18.552  0.00  0.00    +0.000 C 
ATOM     12  C   UNL     1       1.841  11.567  18.147  0.00  0.00    +0.000 C 
ATOM     13  C   UNL     1       2.067  10.057  18.102  0.00  0.00    +0.000 C 
ENDBRANCH   5   7
BRANCH   1  15
ATOM     14  N   UNL     1       4.766   5.887  17.647  0.00  0.00    +0.000 N 
ATOM     15  C   UNL     1       3.628   5.139  17.866  0.00  0.00    +0.000 C 
ATOM     16  O   UNL     1       3.526   3.938  17.640  0.00  0.00    +0.000 OA
ATOM     17  H   UNL     1       4.701   6.898  17.677  0.00  0.00    +0.000 HD
BRANCH  14  24
ATOM     18  C   UNL     1       5.452   4.751  14.741  0.00  0.00    +0.000 C 
ATOM     19  C   UNL     1       6.311   4.861  15.941  0.00  0.00    +0.000 A 
ATOM     20  N   UNL     1       7.576   4.429  15.870  0.00  0.00    +0.000 NA
ATOM     21  O   UNL     1       8.114   4.646  17.115  0.00  0.00    +0.000 OA
ATOM     22  C   UNL     1       7.186   5.213  17.934  0.00  0.00    +0.000 A 
ATOM     23  C   UNL     1       7.707   5.557  19.274  0.00  0.00    +0.000 C 
ATOM     24  C   UNL     1       5.995   5.358  17.242  0.00  0.00    +0.000 A 
ENDBRANCH  14  24
ENDBRANCH   1  15
TORSDOF 3
ENDMDL
MODEL 5
REMARK VINA RESULT:      -7.2      3.913      8.553
REMARK  Name = 
REMARK  6 active torsions:
REMARK  status: ('A' for Active; 'I' for Inactive)
REMARK    1  A    between atoms: C_1  and  C_2
REMARK    2  A    between atoms: C_5  and  C_6
REMARK    3  A    between atoms: C_7  and  N_8
REMARK    4  A    between atoms: C_9  and  C_11
REMARK    5  A    between atoms: N_15  and  C_16
REMARK    6  A    between atoms: C_19  and  C_20
REMARK                            x       y       z     vdW  Elec       q    Type
REMARK                         _______ _______ _______ _____ _____    ______ ____
ROOT
ATOM      1  C   UNL     1       0.433  10.864  19.440  0.00  0.00    +0.000 C 
ATOM      2  C   UNL     1       0.129  10.579  20.909  0.00  0.00    +0.000 C 
ATOM      3  C   UNL     1       1.020   9.386  21.218  0.00  0.00    +0.000 C 
ATOM      4  O   UNL     1       1.307   9.005  22.338  0.00  0.00    +0.000 OA
ATOM      5  N   UNL     1       1.401   8.818  20.011  0.00  0.00    +0.000 N 
ATOM      6  C   UNL     1       0.778   9.481  18.902  0.00  0.00    +0.000 C 
ENDROOT
BRANCH   5   7
ATOM      7  C   UNL     1       2.167   7.590  19.805  0.00  0.00    +0.000 C 
ATOM      8  C   UNL     1       2.486   7.312  18.331  0.00  0.00    +0.000 C 
ATOM      9  C   UNL     1       3.323   6.042  18.178  0.00  0.00    +0.000 C 
ATOM     10  C   UNL     1       2.651   4.835  18.848  0.00  0.00    +0.000 C 
ATOM     11  C   UNL     1       3.521   3.585  18.720  0.00  0.00    +0.000 C 
ATOM     12  C   UNL     1       2.346   5.129  20.322  0.00  0.00    +0.000 C 
ATOM     13  C   UNL     1       1.497   6.389  20.476  0.00  0.00    +0.000 C 
ENDBRANCH   5   7
BRANCH   1  15
ATOM     14  N   UNL     1      -1.740  10.602  18.344  0.00  0.00    +0.000 N 
ATOM     15  C   UNL     1      -0.682  11.450  18.597  0.00  0.00    +0.000 C 
ATOM     16  O   UNL     1      -0.626  12.623  18.242  0.00  0.00    +0.000 OA
ATOM     17  H   UNL     1      -1.620   9.608  18.501  0.00  0.00    +0.000 HD
BRANCH  14  24
ATOM     18  C   UNL     1      -4.077  12.269  19.745  0.00  0.00    +0.000 C 
ATOM     19  C   UNL     1      -3.984  11.748  18.362  0.00  0.00    +0.000 A 
ATOM     20  N   UNL     1      -5.003  11.964  17.522  0.00  0.00    +0.000 NA
ATOM     21  O   UNL     1      -4.642  11.368  16.338  0.00  0.00    +0.000 OA
ATOM     22  C   UNL     1      -3.410  10.800  16.457  0.00  0.00    +0.000 A 
ATOM     23  C   UNL     1      -2.908  10.203  15.201  0.00  0.00    +0.000 C 
ATOM     24  C   UNL     1      -2.942  10.992  17.745  0.00  0.00    +0.000 A 
ENDBRANCH  14  24
ENDBRANCH   1  15
TORSDOF 3
ENDMDL
MODEL 6
REMARK VINA RESULT:      -7.2      0.876      2.077
REMARK  Name = 
REMARK  6 active torsions:
REMARK  status: ('A' for Active; 'I' for Inactive)
REMARK    1  A    between atoms: C_1  and  C_2
REMARK    2  A    between atoms: C_5  and  C_6
REMARK    3  A    between atoms: C_7  and  N_8
REMARK    4  A    between atoms: C_9  and  C_11
REMARK    5  A    between atoms: N_15  and  C_16
REMARK    6  A    between atoms: C_19  and  C_20
REMARK                            x       y       z     vdW  Elec       q    Type
REMARK                         _______ _______ _______ _____ _____    ______ ____
ROOT
ATOM      1  C   UNL     1       2.382   6.370  18.450  0.00  0.00    +0.000 C 
ATOM      2  C   UNL     1       2.444   6.651  19.948  0.00  0.00    +0.000 C 
ATOM      3  C   UNL     1       1.736   7.991  20.075  0.00  0.00    +0.000 C 
ATOM      4  O   UNL     1       1.311   8.457  21.116  0.00  0.00    +0.000 OA
ATOM      5  N   UNL     1       1.701   8.572  18.816  0.00  0.00    +0.000 N 
ATOM      6  C   UNL     1       2.397   7.771  17.852  0.00  0.00    +0.000 C 
ENDROOT
BRANCH   5   7
ATOM      7  C   UNL     1       1.217   9.905  18.461  0.00  0.00    +0.000 C 
ATOM      8  C   UNL     1       2.129  11.034  18.957  0.00  0.00    +0.000 C 
ATOM      9  C   UNL     1       1.600  12.402  18.522  0.00  0.00    +0.000 C 
ATOM     10  C   UNL     1       0.145  12.614  18.967  0.00  0.00    +0.000 C 
ATOM     11  C   UNL     1      -0.380  13.967  18.489  0.00  0.00    +0.000 C 
ATOM     12  C   UNL     1      -0.752  11.479  18.457  0.00  0.00    +0.000 C 
ATOM     13  C   UNL     1      -0.233  10.114  18.904  0.00  0.00    +0.000 C 
ENDBRANCH   5   7
BRANCH   1  15
ATOM     14  N   UNL     1       4.723   6.230  17.746  0.00  0.00    +0.000 N 
ATOM     15  C   UNL     1       3.516   5.569  17.842  0.00  0.00    +0.000 C 
ATOM     16  O   UNL     1       3.335   4.396  17.530  0.00  0.00    +0.000 OA
ATOM     17  H   UNL     1       4.736   7.240  17.839  0.00  0.00    +0.000 HD
BRANCH  14  24
ATOM     18  C   UNL     1       5.476   5.132  14.843  0.00  0.00    +0.000 C 
ATOM     19  C   UNL     1       6.278   5.145  16.087  0.00  0.00    +0.000 A 
ATOM     20  N   UNL     1       7.511   4.626  16.065  0.00  0.00    +0.000 NA
ATOM     21  O   UNL     1       7.998   4.768  17.342  0.00  0.00    +0.000 OA
ATOM     22  C   UNL     1       7.071   5.377  18.131  0.00  0.00    +0.000 A 
ATOM     23  C   UNL     1       7.544   5.644  19.506  0.00  0.00    +0.000 C 
ATOM     24  C   UNL     1       5.931   5.626  17.386  0.00  0.00    +0.000 A 
ENDBRANCH  14  24
ENDBRANCH   1  15
TORSDOF 3
ENDMDL
MODEL 7
REMARK VINA RESULT:      -7.2      2.273      7.584
REMARK  Name = 
REMARK  6 active torsions:
REMARK  status: ('A' for Active; 'I' for Inactive)
REMARK    1  A    between atoms: C_1  and  C_2
REMARK    2  A    between atoms: C_5  and  C_6
REMARK    3  A    between atoms: C_7  and  N_8
REMARK    4  A    between atoms: C_9  and  C_11
REMARK    5  A    between atoms: N_15  and  C_16
REMARK    6  A    between atoms: C_19  and  C_20
REMARK                            x       y       z     vdW  Elec       q    Type
REMARK                         _______ _______ _______ _____ _____    ______ ____
ROOT
ATOM      1  C   UNL     1       2.866   5.581  20.516  0.00  0.00    +0.000 C 
ATOM      2  C   UNL     1       2.592   4.087  20.663  0.00  0.00    +0.000 C 
ATOM      3  C   UNL     1       3.640   3.456  19.760  0.00  0.00    +0.000 C 
ATOM      4  O   UNL     1       3.969   2.284  19.790  0.00  0.00    +0.000 OA
ATOM      5  N   UNL     1       4.109   4.441  18.903  0.00  0.00    +0.000 N 
ATOM      6  C   UNL     1       3.409   5.677  19.096  0.00  0.00    +0.000 C 
ENDROOT
BRANCH   5   7
ATOM      7  C   UNL     1       5.045   4.285  17.791  0.00  0.00    +0.000 C 
ATOM      8  C   UNL     1       6.161   5.335  17.783  0.00  0.00    +0.000 C 
ATOM      9  C   UNL     1       7.133   5.099  16.625  0.00  0.00    +0.000 C 
ATOM     10  C   UNL     1       6.402   5.041  15.275  0.00  0.00    +0.000 C 
ATOM     11  C   UNL     1       7.382   4.764  14.136  0.00  0.00    +0.000 C 
ATOM     12  C   UNL     1       5.294   3.981  15.300  0.00  0.00    +0.000 C 
ATOM     13  C   UNL     1       4.315   4.225  16.447  0.00  0.00    +0.000 C 
ENDBRANCH   5   7
BRANCH   1  15
ATOM     14  N   UNL     1       1.998   7.867  20.636  0.00  0.00    +0.000 N 
ATOM     15  C   UNL     1       1.686   6.524  20.651  0.00  0.00    +0.000 C 
ATOM     16  O   UNL     1       0.547   6.071  20.705  0.00  0.00    +0.000 OA
ATOM     17  H   UNL     1       2.960   8.148  20.787  0.00  0.00    +0.000 HD
BRANCH  14  24
ATOM     18  C   UNL     1       1.160   9.469  18.002  0.00  0.00    +0.000 C 
ATOM     19  C   UNL     1       0.668   9.609  19.391  0.00  0.00    +0.000 A 
ATOM     20  N   UNL     1      -0.261  10.534  19.656  0.00  0.00    +0.000 NA
ATOM     21  O   UNL     1      -0.509  10.439  21.004  0.00  0.00    +0.000 OA
ATOM     22  C   UNL     1       0.259   9.457  21.552  0.00  0.00    +0.000 A 
ATOM     23  C   UNL     1      -0.004   9.231  22.989  0.00  0.00    +0.000 C 
ATOM     24  C   UNL     1       1.057   8.898  20.568  0.00  0.00    +0.000 A 
ENDBRANCH  14  24
ENDBRANCH   1  15
TORSDOF 3
ENDMDL
MODEL 8
REMARK VINA RESULT:      -7.2      2.600      7.547
REMARK  Name = 
REMARK  6 active torsions:
REMARK  status: ('A' for Active; 'I' for Inactive)
REMARK    1  A    between atoms: C_1  and  C_2
REMARK    2  A    between atoms: C_5  and  C_6
REMARK    3  A    between atoms: C_7  and  N_8
REMARK    4  A    between atoms: C_9  and  C_11
REMARK    5  A    between atoms: N_15  and  C_16
REMARK    6  A    between atoms: C_19  and  C_20
REMARK                            x       y       z     vdW  Elec       q    Type
REMARK                         _______ _______ _______ _____ _____    ______ ____
ROOT
ATOM      1  C   UNL     1       1.634   8.146  20.594  0.00  0.00    +0.000 C 
ATOM      2  C   UNL     1       1.024   6.829  21.068  0.00  0.00    +0.000 C 
ATOM      3  C   UNL     1       1.962   5.787  20.480  0.00  0.00    +0.000 C 
ATOM      4  O   UNL     1       2.018   4.623  20.835  0.00  0.00    +0.000 OA
ATOM      5  N   UNL     1       2.694   6.396  19.471  0.00  0.00    +0.000 N 
ATOM      6  C   UNL     1       2.276   7.753  19.270  0.00  0.00    +0.000 C 
ENDROOT
BRANCH   5   7
ATOM      7  C   UNL     1       3.641   5.768  18.552  0.00  0.00    +0.000 C 
ATOM      8  C   UNL     1       4.888   5.212  19.250  0.00  0.00    +0.000 C 
ATOM      9  C   UNL     1       5.822   4.530  18.248  0.00  0.00    +0.000 C 
ATOM     10  C   UNL     1       6.193   5.468  17.090  0.00  0.00    +0.000 C 
ATOM     11  C   UNL     1       7.094   4.758  16.080  0.00  0.00    +0.000 C 
ATOM     12  C   UNL     1       4.935   6.009  16.401  0.00  0.00    +0.000 C 
ATOM     13  C   UNL     1       4.008   6.704  17.397  0.00  0.00    +0.000 C 
ENDBRANCH   5   7
BRANCH   1  15
ATOM     14  N   UNL     1       1.009  10.117  19.283  0.00  0.00    +0.000 N 
ATOM     15  C   UNL     1       0.688   9.306  20.352  0.00  0.00    +0.000 C 
ATOM     16  O   UNL     1      -0.313   9.433  21.050  0.00  0.00    +0.000 OA
ATOM     17  H   UNL     1       1.941  10.062  18.889  0.00  0.00    +0.000 HD
BRANCH  14  24
ATOM     18  C   UNL     1       1.672  13.241  19.253  0.00  0.00    +0.000 C 
ATOM     19  C   UNL     1       0.480  12.522  18.751  0.00  0.00    +0.000 A 
ATOM     20  N   UNL     1      -0.512  13.228  18.197  0.00  0.00    +0.000 NA
ATOM     21  O   UNL     1      -1.469  12.309  17.840  0.00  0.00    +0.000 OA
ATOM     22  C   UNL     1      -1.057  11.054  18.168  0.00  0.00    +0.000 A 
ATOM     23  C   UNL     1      -1.994   9.992  17.744  0.00  0.00    +0.000 C 
ATOM     24  C   UNL     1       0.183  11.126  18.778  0.00  0.00    +0.000 A 
ENDBRANCH  14  24
ENDBRANCH   1  15
TORSDOF 3
ENDMDL
MODEL 9
REMARK VINA RESULT:      -7.1      1.184      1.899
REMARK  Name = 
REMARK  6 active torsions:
REMARK  status: ('A' for Active; 'I' for Inactive)
REMARK    1  A    between atoms: C_1  and  C_2
REMARK    2  A    between atoms: C_5  and  C_6
REMARK    3  A    between atoms: C_7  and  N_8
REMARK    4  A    between atoms: C_9  and  C_11
REMARK    5  A    between atoms: N_15  and  C_16
REMARK    6  A    between atoms: C_19  and  C_20
REMARK                            x       y       z     vdW  Elec       q    Type
REMARK                         _______ _______ _______ _____ _____    ______ ____
ROOT
ATOM      1  C   UNL     1       2.451   6.510  18.568  0.00  0.00    +0.000 C 
ATOM      2  C   UNL     1       2.212   6.280  20.058  0.00  0.00    +0.000 C 
ATOM      3  C   UNL     1       1.458   7.530  20.481  0.00  0.00    +0.000 C 
ATOM      4  O   UNL     1       0.826   7.644  21.516  0.00  0.00    +0.000 OA
ATOM      5  N   UNL     1       1.653   8.494  19.503  0.00  0.00    +0.000 N 
ATOM      6  C   UNL     1       2.545   8.028  18.481  0.00  0.00    +0.000 C 
ENDROOT
BRANCH   5   7
ATOM      7  C   UNL     1       1.212   9.888  19.522  0.00  0.00    +0.000 C 
ATOM      8  C   UNL     1      -0.313  10.045  19.488  0.00  0.00    +0.000 C 
ATOM      9  C   UNL     1      -0.717  11.518  19.553  0.00  0.00    +0.000 C 
ATOM     10  C   UNL     1      -0.038  12.342  18.448  0.00  0.00    +0.000 C 
ATOM     11  C   UNL     1      -0.422  13.818  18.554  0.00  0.00    +0.000 C 
ATOM     12  C   UNL     1       1.485  12.178  18.503  0.00  0.00    +0.000 C 
ATOM     13  C   UNL     1       1.891  10.707  18.422  0.00  0.00    +0.000 C 
ENDBRANCH   5   7
BRANCH   1  15
ATOM     14  N   UNL     1       4.402   6.737  17.108  0.00  0.00    +0.000 N 
ATOM     15  C   UNL     1       3.703   5.909  17.961  0.00  0.00    +0.000 C 
ATOM     16  O   UNL     1       4.058   4.780  18.287  0.00  0.00    +0.000 OA
ATOM     17  H   UNL     1       3.944   7.564  16.744  0.00  0.00    +0.000 HD
BRANCH  14  24
ATOM     18  C   UNL     1       5.051   4.560  14.862  0.00  0.00    +0.000 C 
ATOM     19  C   UNL     1       5.961   5.487  15.572  0.00  0.00    +0.000 A 
ATOM     20  N   UNL     1       7.267   5.454  15.285  0.00  0.00    +0.000 NA
ATOM     21  O   UNL     1       7.850   6.401  16.092  0.00  0.00    +0.000 OA
ATOM     22  C   UNL     1       6.903   7.009  16.858  0.00  0.00    +0.000 A 
ATOM     23  C   UNL     1       7.434   8.102  17.701  0.00  0.00    +0.000 C 
ATOM     24  C   UNL     1       5.666   6.449  16.585  0.00  0.00    +0.000 A 
ENDBRANCH  14  24
ENDBRANCH   1  15
TORSDOF 3
ENDMDL
