MODEL 1
REMARK VINA RESULT:      -7.0      0.000      0.000
REMARK  Name = 
REMARK  4 active torsions:
REMARK  status: ('A' for Active; 'I' for Inactive)
REMARK    1  A    between atoms: C_1  and  C_2
REMARK    2  A    between atoms: C_2  and  C_3
REMARK    3  A    between atoms: C_3  and  N_4
REMARK    4  A    between atoms: C_5  and  C_7
REMARK                            x       y       z     vdW  Elec       q    Type
REMARK                         _______ _______ _______ _____ _____    ______ ____
ROOT
ATOM      1  C   UNL     1       5.684   4.457  16.793  0.00  0.00    +0.000 A 
ATOM      2  C   UNL     1       5.949   4.331  18.131  0.00  0.00    +0.000 A 
ATOM      3  N   UNL     1       5.074   3.824  19.018  0.00  0.00    +0.000 NA
ATOM      4  C   UNL     1       3.857   3.447  18.575  0.00  0.00    +0.000 A 
ATOM      5  N   UNL     1       3.009   2.859  19.478  0.00  0.00    +0.000 N 
ATOM      6  C   UNL     1       1.567   2.905  19.315  0.00  0.00    +0.000 C 
ATOM      7  C   UNL     1       1.061   3.262  20.713  0.00  0.00    +0.000 C 
ATOM      8  C   UNL     1       2.104   2.661  21.643  0.00  0.00    +0.000 C 
ATOM      9  C   UNL     1       3.411   2.811  20.874  0.00  0.00    +0.000 C 
ATOM     10  N   UNL     1       3.489   3.589  17.288  0.00  0.00    +0.000 NA
ATOM     11  C   UNL     1       4.408   4.092  16.429  0.00  0.00    +0.000 A 
ENDROOT
BRANCH   1  13
ATOM     12  N   UNL     1       6.599   4.443  14.544  0.00  0.00    +0.000 N 
ATOM     13  C   UNL     1       6.649   4.976  15.818  0.00  0.00    +0.000 C 
ATOM     14  O   UNL     1       7.418   5.868  16.151  0.00  0.00    +0.000 OA
ATOM     15  H   UNL     1       5.863   3.803  14.279  0.00  0.00    +0.000 HD
BRANCH  12  16
ATOM     16  C   UNL     1       7.507   4.889  13.503  0.00  0.00    +0.000 C 
BRANCH  16  18
ATOM     17  C   UNL     1       6.021   3.305  12.190  0.00  0.00    +0.000 C 
ATOM     18  C   UNL     1       7.177   4.295  12.134  0.00  0.00    +0.000 C 
ENDBRANCH  16  18
ENDBRANCH  12  16
ENDBRANCH   1  13
TORSDOF 3
ENDMDL
MODEL 2
REMARK VINA RESULT:      -6.9      0.754      1.648
REMARK  Name = 
REMARK  4 active torsions:
REMARK  status: ('A' for Active; 'I' for Inactive)
REMARK    1  A    between atoms: C_1  and  C_2
REMARK    2  A    between atoms: C_2  and  C_3
REMARK    3  A    between atoms: C_3  and  N_4
REMARK    4  A    between atoms: C_5  and  C_7
REMARK                            x       y       z     vdW  Elec       q    Type
REMARK                         _______ _______ _______ _____ _____    ______ ____
ROOT
ATOM      1  C   UNL     1       5.628   4.394  16.741  0.00  0.00    +0.000 A 
ATOM      2  C   UNL     1       4.389   3.890  16.448  0.00  0.00    +0.000 A 
ATOM      3  N   UNL     1       3.389   3.804  17.344  0.00  0.00    +0.000 NA
ATOM      4  C   UNL     1       3.625   4.206  18.609  0.00  0.00    +0.000 A 
ATOM      5  N   UNL     1       2.572   4.187  19.488  0.00  0.00    +0.000 N 
ATOM      6  C   UNL     1       2.773   4.061  20.919  0.00  0.00    +0.000 C 
ATOM      7  C   UNL     1       1.733   3.020  21.336  0.00  0.00    +0.000 C 
ATOM      8  C   UNL     1       0.603   3.214  20.336  0.00  0.00    +0.000 C 
ATOM      9  C   UNL     1       1.317   3.602  19.047  0.00  0.00    +0.000 C 
ATOM     10  N   UNL     1       4.830   4.661  19.002  0.00  0.00    +0.000 NA
ATOM     11  C   UNL     1       5.802   4.742  18.062  0.00  0.00    +0.000 A 
ENDROOT
BRANCH   1  13
ATOM     12  N   UNL     1       6.336   4.679  14.436  0.00  0.00    +0.000 N 
ATOM     13  C   UNL     1       6.708   4.522  15.758  0.00  0.00    +0.000 C 
ATOM     14  O   UNL     1       7.871   4.523  16.141  0.00  0.00    +0.000 OA
ATOM     15  H   UNL     1       5.366   4.802  14.183  0.00  0.00    +0.000 HD
BRANCH  12  16
ATOM     16  C   UNL     1       7.328   4.817  13.385  0.00  0.00    +0.000 C 
BRANCH  16  18
ATOM     17  C   UNL     1       5.654   3.290  12.243  0.00  0.00    +0.000 C 
ATOM     18  C   UNL     1       7.027   3.942  12.168  0.00  0.00    +0.000 C 
ENDBRANCH  16  18
ENDBRANCH  12  16
ENDBRANCH   1  13
TORSDOF 3
ENDMDL
MODEL 3
REMARK VINA RESULT:      -6.8      1.926      2.270
REMARK  Name = 
REMARK  4 active torsions:
REMARK  status: ('A' for Active; 'I' for Inactive)
REMARK    1  A    between atoms: C_1  and  C_2
REMARK    2  A    between atoms: C_2  and  C_3
REMARK    3  A    between atoms: C_3  and  N_4
REMARK    4  A    between atoms: C_5  and  C_7
REMARK                            x       y       z     vdW  Elec       q    Type
REMARK                         _______ _______ _______ _____ _____    ______ ____
ROOT
ATOM      1  C   UNL     1       5.534   4.953  15.949  0.00  0.00    +0.000 A 
ATOM      2  C   UNL     1       4.890   6.116  16.274  0.00  0.00    +0.000 A 
ATOM      3  N   UNL     1       4.173   6.281  17.401  0.00  0.00    +0.000 NA
ATOM      4  C   UNL     1       4.054   5.235  18.243  0.00  0.00    +0.000 A 
ATOM      5  N   UNL     1       3.388   5.445  19.424  0.00  0.00    +0.000 N 
ATOM      6  C   UNL     1       2.731   4.364  20.135  0.00  0.00    +0.000 C 
ATOM      7  C   UNL     1       1.376   4.959  20.519  0.00  0.00    +0.000 C 
ATOM      8  C   UNL     1       1.662   6.445  20.677  0.00  0.00    +0.000 C 
ATOM      9  C   UNL     1       2.730   6.726  19.627  0.00  0.00    +0.000 C 
ATOM     10  N   UNL     1       4.605   4.035  17.978  0.00  0.00    +0.000 NA
ATOM     11  C   UNL     1       5.328   3.922  16.838  0.00  0.00    +0.000 A 
ENDROOT
BRANCH   1  13
ATOM     12  N   UNL     1       5.857   3.921  13.775  0.00  0.00    +0.000 N 
ATOM     13  C   UNL     1       6.346   4.781  14.740  0.00  0.00    +0.000 C 
ATOM     14  O   UNL     1       7.383   5.421  14.618  0.00  0.00    +0.000 OA
ATOM     15  H   UNL     1       4.936   3.517  13.861  0.00  0.00    +0.000 HD
BRANCH  12  16
ATOM     16  C   UNL     1       6.582   3.683  12.540  0.00  0.00    +0.000 C 
BRANCH  16  18
ATOM     17  C   UNL     1       4.365   3.134  11.434  0.00  0.00    +0.000 C 
ATOM     18  C   UNL     1       5.833   2.757  11.582  0.00  0.00    +0.000 C 
ENDBRANCH  16  18
ENDBRANCH  12  16
ENDBRANCH   1  13
TORSDOF 3
ENDMDL
MODEL 4
REMARK VINA RESULT:      -6.7      1.607      2.012
REMARK  Name = 
REMARK  4 active torsions:
REMARK  status: ('A' for Active; 'I' for Inactive)
REMARK    1  A    between atoms: C_1  and  C_2
REMARK    2  A    between atoms: C_2  and  C_3
REMARK    3  A    between atoms: C_3  and  N_4
REMARK    4  A    between atoms: C_5  and  C_7
REMARK                            x       y       z     vdW  Elec       q    Type
REMARK                         _______ _______ _______ _____ _____    ______ ____
ROOT
ATOM      1  C   UNL     1       5.342   4.861  15.845  0.00  0.00    +0.000 A 
ATOM      2  C   UNL     1       4.677   3.757  16.306  0.00  0.00    +0.000 A 
ATOM      3  N   UNL     1       3.709   3.808  17.241  0.00  0.00    +0.000 NA
ATOM      4  C   UNL     1       3.398   5.006  17.777  0.00  0.00    +0.000 A 
ATOM      5  N   UNL     1       2.356   5.049  18.667  0.00  0.00    +0.000 N 
ATOM      6  C   UNL     1       2.263   6.080  19.685  0.00  0.00    +0.000 C 
ATOM      7  C   UNL     1       1.887   5.302  20.948  0.00  0.00    +0.000 C 
ATOM      8  C   UNL     1       1.093   4.116  20.422  0.00  0.00    +0.000 C 
ATOM      9  C   UNL     1       1.753   3.795  19.087  0.00  0.00    +0.000 C 
ATOM     10  N   UNL     1       4.041   6.136  17.426  0.00  0.00    +0.000 NA
ATOM     11  C   UNL     1       4.998   6.037  16.472  0.00  0.00    +0.000 A 
ENDROOT
BRANCH   1  13
ATOM     12  N   UNL     1       6.041   4.167  13.625  0.00  0.00    +0.000 N 
ATOM     13  C   UNL     1       6.372   4.813  14.801  0.00  0.00    +0.000 C 
ATOM     14  O   UNL     1       7.447   5.367  14.993  0.00  0.00    +0.000 OA
ATOM     15  H   UNL     1       5.100   3.839  13.462  0.00  0.00    +0.000 HD
BRANCH  12  16
ATOM     16  C   UNL     1       6.987   4.066  12.528  0.00  0.00    +0.000 C 
BRANCH  16  18
ATOM     17  C   UNL     1       5.270   2.507  11.498  0.00  0.00    +0.000 C 
ATOM     18  C   UNL     1       6.748   2.837  11.652  0.00  0.00    +0.000 C 
ENDBRANCH  16  18
ENDBRANCH  12  16
ENDBRANCH   1  13
TORSDOF 3
ENDMDL
MODEL 5
REMARK VINA RESULT:      -6.5      2.869      3.856
REMARK  Name = 
REMARK  4 active torsions:
REMARK  status: ('A' for Active; 'I' for Inactive)
REMARK    1  A    between atoms: C_1  and  C_2
REMARK    2  A    between atoms: C_2  and  C_3
REMARK    3  A    between atoms: C_3  and  N_4
REMARK    4  A    between atoms: C_5  and  C_7
REMARK                            x       y       z     vdW  Elec       q    Type
REMARK                         _______ _______ _______ _____ _____    ______ ____
ROOT
ATOM      1  C   UNL     1       5.907   5.772  17.653  0.00  0.00    +0.000 A 
ATOM      2  C   UNL     1       5.651   5.554  18.980  0.00  0.00    +0.000 A 
ATOM      3  N   UNL     1       4.705   4.706  19.426  0.00  0.00    +0.000 NA
ATOM      4  C   UNL     1       3.944   4.059  18.520  0.00  0.00    +0.000 A 
ATOM      5  N   UNL     1       3.041   3.141  18.991  0.00  0.00    +0.000 N 
ATOM      6  C   UNL     1       1.844   2.795  18.247  0.00  0.00    +0.000 C 
ATOM      7  C   UNL     1       0.746   2.808  19.312  0.00  0.00    +0.000 C 
ATOM      8  C   UNL     1       1.472   2.413  20.589  0.00  0.00    +0.000 C 
ATOM      9  C   UNL     1       2.857   3.029  20.428  0.00  0.00    +0.000 C 
ATOM     10  N   UNL     1       4.086   4.257  17.195  0.00  0.00    +0.000 NA
ATOM     11  C   UNL     1       5.060   5.108  16.794  0.00  0.00    +0.000 A 
ENDROOT
BRANCH   1  13
ATOM     12  N   UNL     1       7.206   7.808  17.903  0.00  0.00    +0.000 N 
ATOM     13  C   UNL     1       6.960   6.667  17.163  0.00  0.00    +0.000 C 
ATOM     14  O   UNL     1       7.593   6.357  16.162  0.00  0.00    +0.000 OA
ATOM     15  H   UNL     1       6.749   7.957  18.791  0.00  0.00    +0.000 HD
BRANCH  12  16
ATOM     16  C   UNL     1       8.229   8.758  17.507  0.00  0.00    +0.000 C 
BRANCH  16  18
ATOM     17  C   UNL     1       9.450  10.863  18.227  0.00  0.00    +0.000 C 
ATOM     18  C   UNL     1       8.754   9.587  18.679  0.00  0.00    +0.000 C 
ENDBRANCH  16  18
ENDBRANCH  12  16
ENDBRANCH   1  13
TORSDOF 3
ENDMDL
MODEL 6
REMARK VINA RESULT:      -6.3      3.176      4.355
REMARK  Name = 
REMARK  4 active torsions:
REMARK  status: ('A' for Active; 'I' for Inactive)
REMARK    1  A    between atoms: C_1  and  C_2
REMARK    2  A    between atoms: C_2  and  C_3
REMARK    3  A    between atoms: C_3  and  N_4
REMARK    4  A    between atoms: C_5  and  C_7
REMARK                            x       y       z     vdW  Elec       q    Type
REMARK                         _______ _______ _______ _____ _____    ______ ____
ROOT
ATOM      1  C   UNL     1       6.008   6.209  17.809  0.00  0.00    +0.000 A 
ATOM      2  C   UNL     1       4.692   6.361  17.463  0.00  0.00    +0.000 A 
ATOM      3  N   UNL     1       3.701   5.591  17.950  0.00  0.00    +0.000 NA
ATOM      4  C   UNL     1       4.021   4.595  18.800  0.00  0.00    +0.000 A 
ATOM      5  N   UNL     1       2.991   3.874  19.348  0.00  0.00    +0.000 N 
ATOM      6  C   UNL     1       3.172   2.509  19.807  0.00  0.00    +0.000 C 
ATOM      7  C   UNL     1       1.950   1.779  19.250  0.00  0.00    +0.000 C 
ATOM      8  C   UNL     1       0.874   2.854  19.203  0.00  0.00    +0.000 C 
ATOM      9  C   UNL     1       1.642   4.127  18.871  0.00  0.00    +0.000 C 
ATOM     10  N   UNL     1       5.295   4.335  19.151  0.00  0.00    +0.000 NA
ATOM     11  C   UNL     1       6.257   5.144  18.646  0.00  0.00    +0.000 A 
ENDROOT
BRANCH   1  13
ATOM     12  N   UNL     1       7.326   8.239  18.003  0.00  0.00    +0.000 N 
ATOM     13  C   UNL     1       7.086   7.068  17.309  0.00  0.00    +0.000 C 
ATOM     14  O   UNL     1       7.741   6.706  16.340  0.00  0.00    +0.000 OA
ATOM     15  H   UNL     1       6.848   8.433  18.871  0.00  0.00    +0.000 HD
BRANCH  12  16
ATOM     16  C   UNL     1       8.372   9.158  17.592  0.00  0.00    +0.000 C 
BRANCH  16  18
ATOM     17  C   UNL     1       9.806  11.128  18.300  0.00  0.00    +0.000 C 
ATOM     18  C   UNL     1       8.953   9.955  18.760  0.00  0.00    +0.000 C 
ENDBRANCH  16  18
ENDBRANCH  12  16
ENDBRANCH   1  13
TORSDOF 3
ENDMDL
MODEL 7
REMARK VINA RESULT:      -6.3      1.110      1.110
REMARK  Name = 
REMARK  4 active torsions:
REMARK  status: ('A' for Active; 'I' for Inactive)
REMARK    1  A    between atoms: C_1  and  C_2
REMARK    2  A    between atoms: C_2  and  C_3
REMARK    3  A    between atoms: C_3  and  N_4
REMARK    4  A    between atoms: C_5  and  C_7
REMARK                            x       y       z     vdW  Elec       q    Type
REMARK                         _______ _______ _______ _____ _____    ______ ____
ROOT
ATOM      1  C   UNL     1       5.016   4.730  16.433  0.00  0.00    +0.000 A 
ATOM      2  C   UNL     1       4.703   5.526  17.502  0.00  0.00    +0.000 A 
ATOM      3  N   UNL     1       4.082   5.077  18.608  0.00  0.00    +0.000 NA
ATOM      4  C   UNL     1       3.718   3.779  18.657  0.00  0.00    +0.000 A 
ATOM      5  N   UNL     1       3.160   3.322  19.823  0.00  0.00    +0.000 N 
ATOM      6  C   UNL     1       2.264   2.180  19.845  0.00  0.00    +0.000 C 
ATOM      7  C   UNL     1       1.119   2.641  20.748  0.00  0.00    +0.000 C 
ATOM      8  C   UNL     1       1.784   3.612  21.712  0.00  0.00    +0.000 C 
ATOM      9  C   UNL     1       2.861   4.284  20.870  0.00  0.00    +0.000 C 
ATOM     10  N   UNL     1       3.933   2.936  17.629  0.00  0.00    +0.000 NA
ATOM     11  C   UNL     1       4.574   3.431  16.542  0.00  0.00    +0.000 A 
ENDROOT
BRANCH   1  13
ATOM     12  N   UNL     1       6.308   4.250  14.433  0.00  0.00    +0.000 N 
ATOM     13  C   UNL     1       5.725   5.208  15.241  0.00  0.00    +0.000 C 
ATOM     14  O   UNL     1       5.741   6.407  14.993  0.00  0.00    +0.000 OA
ATOM     15  H   UNL     1       6.159   3.266  14.607  0.00  0.00    +0.000 HD
BRANCH  12  16
ATOM     16  C   UNL     1       7.030   4.617  13.229  0.00  0.00    +0.000 C 
BRANCH  16  18
ATOM     17  C   UNL     1       5.288   3.176  12.076  0.00  0.00    +0.000 C 
ATOM     18  C   UNL     1       6.718   3.699  12.048  0.00  0.00    +0.000 C 
ENDBRANCH  16  18
ENDBRANCH  12  16
ENDBRANCH   1  13
TORSDOF 3
ENDMDL
MODEL 8
REMARK VINA RESULT:      -6.2      3.068      4.135
REMARK  Name = 
REMARK  4 active torsions:
REMARK  status: ('A' for Active; 'I' for Inactive)
REMARK    1  A    between atoms: C_1  and  C_2
REMARK    2  A    between atoms: C_2  and  C_3
REMARK    3  A    between atoms: C_3  and  N_4
REMARK    4  A    between atoms: C_5  and  C_7
REMARK                            x       y       z     vdW  Elec       q    Type
REMARK                         _______ _______ _______ _____ _____    ______ ____
ROOT
ATOM      1  C   UNL     1       5.747   6.026  17.305  0.00  0.00    +0.000 A 
ATOM      2  C   UNL     1       5.752   4.657  17.295  0.00  0.00    +0.000 A 
ATOM      3  N   UNL     1       4.663   3.907  17.546  0.00  0.00    +0.000 NA
ATOM      4  C   UNL     1       3.510   4.534  17.857  0.00  0.00    +0.000 A 
ATOM      5  N   UNL     1       2.393   3.757  18.031  0.00  0.00    +0.000 N 
ATOM      6  C   UNL     1       1.282   4.189  18.859  0.00  0.00    +0.000 C 
ATOM      7  C   UNL     1       0.949   2.946  19.686  0.00  0.00    +0.000 C 
ATOM      8  C   UNL     1       1.337   1.789  18.778  0.00  0.00    +0.000 C 
ATOM      9  C   UNL     1       2.549   2.312  18.016  0.00  0.00    +0.000 C 
ATOM     10  N   UNL     1       3.426   5.875  17.948  0.00  0.00    +0.000 NA
ATOM     11  C   UNL     1       4.545   6.588  17.673  0.00  0.00    +0.000 A 
ENDROOT
BRANCH   1  13
ATOM     12  N   UNL     1       7.090   8.003  17.734  0.00  0.00    +0.000 N 
ATOM     13  C   UNL     1       6.922   6.847  16.996  0.00  0.00    +0.000 C 
ATOM     14  O   UNL     1       7.712   6.466  16.142  0.00  0.00    +0.000 OA
ATOM     15  H   UNL     1       6.485   8.210  18.516  0.00  0.00    +0.000 HD
BRANCH  12  16
ATOM     16  C   UNL     1       8.222   8.884  17.510  0.00  0.00    +0.000 C 
BRANCH  16  18
ATOM     17  C   UNL     1       9.392  10.845  18.616  0.00  0.00    +0.000 C 
ATOM     18  C   UNL     1       8.791   9.459  18.807  0.00  0.00    +0.000 C 
ENDBRANCH  16  18
ENDBRANCH  12  16
ENDBRANCH   1  13
TORSDOF 3
ENDMDL
MODEL 9
REMARK VINA RESULT:      -6.1      2.447      2.610
REMARK  Name = 
REMARK  4 active torsions:
REMARK  status: ('A' for Active; 'I' for Inactive)
REMARK    1  A    between atoms: C_1  and  C_2
REMARK    2  A    between atoms: C_2  and  C_3
REMARK    3  A    between atoms: C_3  and  N_4
REMARK    4  A    between atoms: C_5  and  C_7
REMARK                            x       y       z     vdW  Elec       q    Type
REMARK                         _______ _______ _______ _____ _____    ______ ____
ROOT
ATOM      1  C   UNL     1       5.724   5.390  16.451  0.00  0.00    +0.000 A 
ATOM      2  C   UNL     1       5.267   4.599  17.471  0.00  0.00    +0.000 A 
ATOM      3  N   UNL     1       4.232   4.931  18.264  0.00  0.00    +0.000 NA
ATOM      4  C   UNL     1       3.629   6.121  18.067  0.00  0.00    +0.000 A 
ATOM      5  N   UNL     1       2.527   6.407  18.831  0.00  0.00    +0.000 N 
ATOM      6  C   UNL     1       2.129   7.773  19.118  0.00  0.00    +0.000 C 
ATOM      7  C   UNL     1       1.816   7.746  20.615  0.00  0.00    +0.000 C 
ATOM      8  C   UNL     1       1.338   6.323  20.862  0.00  0.00    +0.000 C 
ATOM      9  C   UNL     1       2.167   5.486  19.896  0.00  0.00    +0.000 C 
ATOM     10  N   UNL     1       4.048   6.989  17.126  0.00  0.00    +0.000 NA
ATOM     11  C   UNL     1       5.085   6.605  16.343  0.00  0.00    +0.000 A 
ENDROOT
BRANCH   1  13
ATOM     12  N   UNL     1       6.650   5.246  14.210  0.00  0.00    +0.000 N 
ATOM     13  C   UNL     1       6.828   5.015  15.561  0.00  0.00    +0.000 C 
ATOM     14  O   UNL     1       7.857   4.558  16.043  0.00  0.00    +0.000 OA
ATOM     15  H   UNL     1       5.839   5.745  13.873  0.00  0.00    +0.000 HD
BRANCH  12  16
ATOM     16  C   UNL     1       7.683   4.914  13.246  0.00  0.00    +0.000 C 
BRANCH  16  18
ATOM     17  C   UNL     1       5.958   3.308  12.305  0.00  0.00    +0.000 C 
ATOM     18  C   UNL     1       7.128   4.231  11.996  0.00  0.00    +0.000 C 
ENDBRANCH  16  18
ENDBRANCH  12  16
ENDBRANCH   1  13
TORSDOF 3
ENDMDL
