MODEL 1
REMARK VINA RESULT:      -5.6      0.000      0.000
REMARK  Name = 
REMARK  8 active torsions:
REMARK  status: ('A' for Active; 'I' for Inactive)
REMARK    1  A    between atoms: C_1  and  N_2
REMARK    2  A    between atoms: N_2  and  C_3
REMARK    3  A    between atoms: N_2  and  C_4
REMARK    4  A    between atoms: N_2  and  C_5
REMARK    5  A    between atoms: C_5  and  C_6
REMARK    6  A    between atoms: C_6  and  O_7
REMARK    7  A    between atoms: O_7  and  C_8
REMARK    8  A    between atoms: N_10  and  C_11
REMARK                            x       y       z     vdW  Elec       q    Type
REMARK                         _______ _______ _______ _____ _____    ______ ____
ROOT
ATOM      1  C   UNL     1       3.109   3.868  17.358  0.00  0.00    +0.000 C 
ATOM      2  O   UNL     1       2.626   4.989  17.443  0.00  0.00    +0.000 OA
ATOM      3  N   UNL     1       4.424   3.513  17.433  0.00  0.00    +0.000 N 
ATOM      4  H   UNL     1       4.618   2.518  17.425  0.00  0.00    +0.000 HD
ENDROOT
BRANCH   3   5
ATOM      5  C   UNL     1       5.537   4.386  17.532  0.00  0.00    +0.000 A 
ATOM      6  C   UNL     1       6.007   4.862  18.757  0.00  0.00    +0.000 A 
ATOM      7  C   UNL     1       7.069   5.752  18.775  0.00  0.00    +0.000 A 
ATOM      8  N   UNL     1       7.697   6.185  17.667  0.00  0.00    +0.000 NA
ATOM      9  C   UNL     1       7.249   5.704  16.485  0.00  0.00    +0.000 A 
ATOM     10  C   UNL     1       6.189   4.812  16.367  0.00  0.00    +0.000 A 
ATOM     11 BR   UNL     1       5.670   4.228  14.640  0.00  0.00    +0.000 Br
ENDBRANCH   3   5
BRANCH   1  12
ATOM     12  O   UNL     1       2.333   2.767  17.159  0.00  0.00    +0.000 OA
BRANCH  12  13
ATOM     13  C   UNL     1       2.153   1.968  18.344  0.00  0.00    +0.000 C 
BRANCH  13  14
ATOM     14  C   UNL     1       1.277   2.656  19.414  0.00  0.00    +0.000 C 
BRANCH  14  16
ATOM     15  C   UNL     1       2.039   4.569  20.828  0.00  0.00    +0.000 C 
ATOM     16  N   UNL     1       2.040   3.041  20.708  0.00  0.00    +0.000 N 
ATOM     17  C   UNL     1       3.496   2.582  20.642  0.00  0.00    +0.000 C 
ATOM     18  C   UNL     1       1.363   2.459  21.938  0.00  0.00    +0.000 C 
ENDBRANCH  14  16
ENDBRANCH  13  14
ENDBRANCH  12  13
ENDBRANCH   1  12
TORSDOF 5
ENDMDL
MODEL 2
REMARK VINA RESULT:      -5.6      0.815      1.498
REMARK  Name = 
REMARK  8 active torsions:
REMARK  status: ('A' for Active; 'I' for Inactive)
REMARK    1  A    between atoms: C_1  and  N_2
REMARK    2  A    between atoms: N_2  and  C_3
REMARK    3  A    between atoms: N_2  and  C_4
REMARK    4  A    between atoms: N_2  and  C_5
REMARK    5  A    between atoms: C_5  and  C_6
REMARK    6  A    between atoms: C_6  and  O_7
REMARK    7  A    between atoms: O_7  and  C_8
REMARK    8  A    between atoms: N_10  and  C_11
REMARK                            x       y       z     vdW  Elec       q    Type
REMARK                         _______ _______ _______ _____ _____    ______ ____
ROOT
ATOM      1  C   UNL     1       3.314   3.268  17.330  0.00  0.00    +0.000 C 
ATOM      2  O   UNL     1       3.945   2.222  17.381  0.00  0.00    +0.000 OA
ATOM      3  N   UNL     1       3.786   4.541  17.466  0.00  0.00    +0.000 N 
ATOM      4  H   UNL     1       3.115   5.285  17.304  0.00  0.00    +0.000 HD
ENDROOT
BRANCH   3   5
ATOM      5  C   UNL     1       5.110   4.927  17.796  0.00  0.00    +0.000 A 
ATOM      6  C   UNL     1       5.520   5.135  19.113  0.00  0.00    +0.000 A 
ATOM      7  C   UNL     1       6.816   5.559  19.359  0.00  0.00    +0.000 A 
ATOM      8  N   UNL     1       7.726   5.775  18.392  0.00  0.00    +0.000 NA
ATOM      9  C   UNL     1       7.326   5.552  17.120  0.00  0.00    +0.000 A 
ATOM     10  C   UNL     1       6.047   5.129  16.774  0.00  0.00    +0.000 A 
ATOM     11 BR   UNL     1       5.631   4.863  14.945  0.00  0.00    +0.000 Br
ENDBRANCH   3   5
BRANCH   1  12
ATOM     12  O   UNL     1       1.968   3.284  17.118  0.00  0.00    +0.000 OA
BRANCH  12  13
ATOM     13  C   UNL     1       1.203   3.591  18.299  0.00  0.00    +0.000 C 
BRANCH  13  14
ATOM     14  C   UNL     1       1.372   2.544  19.423  0.00  0.00    +0.000 C 
BRANCH  14  16
ATOM     15  C   UNL     1       3.464   2.534  20.787  0.00  0.00    +0.000 C 
ATOM     16  N   UNL     1       2.041   3.096  20.707  0.00  0.00    +0.000 N 
ATOM     17  C   UNL     1       1.291   2.636  21.957  0.00  0.00    +0.000 C 
ATOM     18  C   UNL     1       2.122   4.614  20.675  0.00  0.00    +0.000 C 
ENDBRANCH  14  16
ENDBRANCH  13  14
ENDBRANCH  12  13
ENDBRANCH   1  12
TORSDOF 5
ENDMDL
MODEL 3
REMARK VINA RESULT:      -5.5      2.271      3.222
REMARK  Name = 
REMARK  8 active torsions:
REMARK  status: ('A' for Active; 'I' for Inactive)
REMARK    1  A    between atoms: C_1  and  N_2
REMARK    2  A    between atoms: N_2  and  C_3
REMARK    3  A    between atoms: N_2  and  C_4
REMARK    4  A    between atoms: N_2  and  C_5
REMARK    5  A    between atoms: C_5  and  C_6
REMARK    6  A    between atoms: C_6  and  O_7
REMARK    7  A    between atoms: O_7  and  C_8
REMARK    8  A    between atoms: N_10  and  C_11
REMARK                            x       y       z     vdW  Elec       q    Type
REMARK                         _______ _______ _______ _____ _____    ______ ____
ROOT
ATOM      1  C   UNL     1       4.998   4.836  19.049  0.00  0.00    +0.000 C 
ATOM      2  O   UNL     1       5.763   3.932  19.351  0.00  0.00    +0.000 OA
ATOM      3  N   UNL     1       4.791   5.385  17.817  0.00  0.00    +0.000 N 
ATOM      4  H   UNL     1       4.048   6.072  17.754  0.00  0.00    +0.000 HD
ENDROOT
BRANCH   3   5
ATOM      5  C   UNL     1       5.497   5.087  16.623  0.00  0.00    +0.000 A 
ATOM      6  C   UNL     1       5.037   4.151  15.697  0.00  0.00    +0.000 A 
ATOM      7  C   UNL     1       5.804   3.874  14.577  0.00  0.00    +0.000 A 
ATOM      8  N   UNL     1       6.980   4.472  14.312  0.00  0.00    +0.000 NA
ATOM      9  C   UNL     1       7.409   5.393  15.205  0.00  0.00    +0.000 A 
ATOM     10  C   UNL     1       6.712   5.734  16.358  0.00  0.00    +0.000 A 
ATOM     11 BR   UNL     1       7.442   7.042  17.519  0.00  0.00    +0.000 Br
ENDBRANCH   3   5
BRANCH   1  12
ATOM     12  O   UNL     1       4.209   5.447  19.976  0.00  0.00    +0.000 OA
BRANCH  12  13
ATOM     13  C   UNL     1       2.812   5.121  19.847  0.00  0.00    +0.000 C 
BRANCH  13  14
ATOM     14  C   UNL     1       2.533   3.603  19.905  0.00  0.00    +0.000 C 
BRANCH  14  16
ATOM     15  C   UNL     1       1.547   4.192  17.687  0.00  0.00    +0.000 C 
ATOM     16  N   UNL     1       1.906   3.023  18.611  0.00  0.00    +0.000 N 
ATOM     17  C   UNL     1       0.617   2.264  18.918  0.00  0.00    +0.000 C 
ATOM     18  C   UNL     1       2.887   2.117  17.884  0.00  0.00    +0.000 C 
ENDBRANCH  14  16
ENDBRANCH  13  14
ENDBRANCH  12  13
ENDBRANCH   1  12
TORSDOF 5
ENDMDL
MODEL 4
REMARK VINA RESULT:      -5.5      1.497      2.220
REMARK  Name = 
REMARK  8 active torsions:
REMARK  status: ('A' for Active; 'I' for Inactive)
REMARK    1  A    between atoms: C_1  and  N_2
REMARK    2  A    between atoms: N_2  and  C_3
REMARK    3  A    between atoms: N_2  and  C_4
REMARK    4  A    between atoms: N_2  and  C_5
REMARK    5  A    between atoms: C_5  and  C_6
REMARK    6  A    between atoms: C_6  and  O_7
REMARK    7  A    between atoms: O_7  and  C_8
REMARK    8  A    between atoms: N_10  and  C_11
REMARK                            x       y       z     vdW  Elec       q    Type
REMARK                         _______ _______ _______ _____ _____    ______ ____
ROOT
ATOM      1  C   UNL     1       2.994   4.060  17.247  0.00  0.00    +0.000 C 
ATOM      2  O   UNL     1       2.711   5.237  17.418  0.00  0.00    +0.000 OA
ATOM      3  N   UNL     1       4.167   3.537  16.788  0.00  0.00    +0.000 N 
ATOM      4  H   UNL     1       4.238   2.525  16.798  0.00  0.00    +0.000 HD
ENDROOT
BRANCH   3   5
ATOM      5  C   UNL     1       5.292   4.258  16.312  0.00  0.00    +0.000 A 
ATOM      6  C   UNL     1       5.636   4.298  14.961  0.00  0.00    +0.000 A 
ATOM      7  C   UNL     1       6.777   4.982  14.573  0.00  0.00    +0.000 A 
ATOM      8  N   UNL     1       7.583   5.634  15.431  0.00  0.00    +0.000 NA
ATOM      9  C   UNL     1       7.231   5.606  16.736  0.00  0.00    +0.000 A 
ATOM     10  C   UNL     1       6.109   4.945  17.220  0.00  0.00    +0.000 A 
ATOM     11 BR   UNL     1       5.747   4.990  19.080  0.00  0.00    +0.000 Br
ENDBRANCH   3   5
BRANCH   1  12
ATOM     12  O   UNL     1       2.105   3.063  17.512  0.00  0.00    +0.000 OA
BRANCH  12  13
ATOM     13  C   UNL     1       1.061   3.451  18.425  0.00  0.00    +0.000 C 
BRANCH  13  14
ATOM     14  C   UNL     1       1.031   2.599  19.714  0.00  0.00    +0.000 C 
BRANCH  14  16
ATOM     15  C   UNL     1       1.501   2.584  22.166  0.00  0.00    +0.000 C 
ATOM     16  N   UNL     1       2.020   3.072  20.810  0.00  0.00    +0.000 N 
ATOM     17  C   UNL     1       2.091   4.598  20.863  0.00  0.00    +0.000 C 
ATOM     18  C   UNL     1       3.407   2.492  20.585  0.00  0.00    +0.000 C 
ENDBRANCH  14  16
ENDBRANCH  13  14
ENDBRANCH  12  13
ENDBRANCH   1  12
TORSDOF 5
ENDMDL
MODEL 5
REMARK VINA RESULT:      -5.5      2.000      2.786
REMARK  Name = 
REMARK  8 active torsions:
REMARK  status: ('A' for Active; 'I' for Inactive)
REMARK    1  A    between atoms: C_1  and  N_2
REMARK    2  A    between atoms: N_2  and  C_3
REMARK    3  A    between atoms: N_2  and  C_4
REMARK    4  A    between atoms: N_2  and  C_5
REMARK    5  A    between atoms: C_5  and  C_6
REMARK    6  A    between atoms: C_6  and  O_7
REMARK    7  A    between atoms: O_7  and  C_8
REMARK    8  A    between atoms: N_10  and  C_11
REMARK                            x       y       z     vdW  Elec       q    Type
REMARK                         _______ _______ _______ _____ _____    ______ ____
ROOT
ATOM      1  C   UNL     1       3.322   6.351  17.862  0.00  0.00    +0.000 C 
ATOM      2  O   UNL     1       3.656   7.494  17.584  0.00  0.00    +0.000 OA
ATOM      3  N   UNL     1       3.965   5.189  17.550  0.00  0.00    +0.000 N 
ATOM      4  H   UNL     1       3.572   4.342  17.946  0.00  0.00    +0.000 HD
ENDROOT
BRANCH   3   5
ATOM      5  C   UNL     1       5.124   5.047  16.745  0.00  0.00    +0.000 A 
ATOM      6  C   UNL     1       5.056   4.862  15.364  0.00  0.00    +0.000 A 
ATOM      7  C   UNL     1       6.228   4.681  14.647  0.00  0.00    +0.000 A 
ATOM      8  N   UNL     1       7.452   4.687  15.205  0.00  0.00    +0.000 NA
ATOM      9  C   UNL     1       7.510   4.887  16.542  0.00  0.00    +0.000 A 
ATOM     10  C   UNL     1       6.391   5.073  17.345  0.00  0.00    +0.000 A 
ATOM     11 BR   UNL     1       6.629   5.337  19.206  0.00  0.00    +0.000 Br
ENDBRANCH   3   5
BRANCH   1  12
ATOM     12  O   UNL     1       2.184   6.088  18.562  0.00  0.00    +0.000 OA
BRANCH  12  13
ATOM     13  C   UNL     1       2.420   5.768  19.946  0.00  0.00    +0.000 C 
BRANCH  13  14
ATOM     14  C   UNL     1       1.394   4.768  20.524  0.00  0.00    +0.000 C 
BRANCH  14  16
ATOM     15  C   UNL     1       1.428   2.540  21.651  0.00  0.00    +0.000 C 
ATOM     16  N   UNL     1       1.800   3.280  20.362  0.00  0.00    +0.000 N 
ATOM     17  C   UNL     1       3.308   3.141  20.166  0.00  0.00    +0.000 C 
ATOM     18  C   UNL     1       1.059   2.633  19.203  0.00  0.00    +0.000 C 
ENDBRANCH  14  16
ENDBRANCH  13  14
ENDBRANCH  12  13
ENDBRANCH   1  12
TORSDOF 5
ENDMDL
MODEL 6
REMARK VINA RESULT:      -5.5      0.988      1.161
REMARK  Name = 
REMARK  8 active torsions:
REMARK  status: ('A' for Active; 'I' for Inactive)
REMARK    1  A    between atoms: C_1  and  N_2
REMARK    2  A    between atoms: N_2  and  C_3
REMARK    3  A    between atoms: N_2  and  C_4
REMARK    4  A    between atoms: N_2  and  C_5
REMARK    5  A    between atoms: C_5  and  C_6
REMARK    6  A    between atoms: C_6  and  O_7
REMARK    7  A    between atoms: O_7  and  C_8
REMARK    8  A    between atoms: N_10  and  C_11
REMARK                            x       y       z     vdW  Elec       q    Type
REMARK                         _______ _______ _______ _____ _____    ______ ____
ROOT
ATOM      1  C   UNL     1       3.431   3.598  17.219  0.00  0.00    +0.000 C 
ATOM      2  O   UNL     1       4.102   2.581  17.107  0.00  0.00    +0.000 OA
ATOM      3  N   UNL     1       3.859   4.857  17.524  0.00  0.00    +0.000 N 
ATOM      4  H   UNL     1       3.156   5.588  17.485  0.00  0.00    +0.000 HD
ENDROOT
BRANCH   3   5
ATOM      5  C   UNL     1       5.176   5.247  17.875  0.00  0.00    +0.000 A 
ATOM      6  C   UNL     1       5.645   5.195  19.187  0.00  0.00    +0.000 A 
ATOM      7  C   UNL     1       6.928   5.638  19.465  0.00  0.00    +0.000 A 
ATOM      8  N   UNL     1       7.773   6.112  18.530  0.00  0.00    +0.000 NA
ATOM      9  C   UNL     1       7.317   6.139  17.257  0.00  0.00    +0.000 A 
ATOM     10  C   UNL     1       6.045   5.720  16.882  0.00  0.00    +0.000 A 
ATOM     11 BR   UNL     1       5.546   5.823  15.057  0.00  0.00    +0.000 Br
ENDBRANCH   3   5
BRANCH   1  12
ATOM     12  O   UNL     1       2.080   3.587  17.044  0.00  0.00    +0.000 OA
BRANCH  12  13
ATOM     13  C   UNL     1       1.340   3.812  18.258  0.00  0.00    +0.000 C 
BRANCH  13  14
ATOM     14  C   UNL     1       1.485   2.663  19.281  0.00  0.00    +0.000 C 
BRANCH  14  16
ATOM     15  C   UNL     1       2.350   4.588  20.617  0.00  0.00    +0.000 C 
ATOM     16  N   UNL     1       2.238   3.060  20.577  0.00  0.00    +0.000 N 
ATOM     17  C   UNL     1       3.657   2.492  20.582  0.00  0.00    +0.000 C 
ATOM     18  C   UNL     1       1.484   2.598  21.813  0.00  0.00    +0.000 C 
ENDBRANCH  14  16
ENDBRANCH  13  14
ENDBRANCH  12  13
ENDBRANCH   1  12
TORSDOF 5
ENDMDL
MODEL 7
REMARK VINA RESULT:      -5.3      1.704      2.542
REMARK  Name = 
REMARK  8 active torsions:
REMARK  status: ('A' for Active; 'I' for Inactive)
REMARK    1  A    between atoms: C_1  and  N_2
REMARK    2  A    between atoms: N_2  and  C_3
REMARK    3  A    between atoms: N_2  and  C_4
REMARK    4  A    between atoms: N_2  and  C_5
REMARK    5  A    between atoms: C_5  and  C_6
REMARK    6  A    between atoms: C_6  and  O_7
REMARK    7  A    between atoms: O_7  and  C_8
REMARK    8  A    between atoms: N_10  and  C_11
REMARK                            x       y       z     vdW  Elec       q    Type
REMARK                         _______ _______ _______ _____ _____    ______ ____
ROOT
ATOM      1  C   UNL     1       2.921   4.682  17.420  0.00  0.00    +0.000 C 
ATOM      2  O   UNL     1       2.832   3.540  16.991  0.00  0.00    +0.000 OA
ATOM      3  N   UNL     1       3.941   5.570  17.239  0.00  0.00    +0.000 N 
ATOM      4  H   UNL     1       3.789   6.503  17.605  0.00  0.00    +0.000 HD
ENDROOT
BRANCH   3   5
ATOM      5  C   UNL     1       5.176   5.325  16.588  0.00  0.00    +0.000 A 
ATOM      6  C   UNL     1       5.287   5.255  15.199  0.00  0.00    +0.000 A 
ATOM      7  C   UNL     1       6.518   4.963  14.632  0.00  0.00    +0.000 A 
ATOM      8  N   UNL     1       7.637   4.752  15.348  0.00  0.00    +0.000 NA
ATOM      9  C   UNL     1       7.525   4.842  16.693  0.00  0.00    +0.000 A 
ATOM     10  C   UNL     1       6.334   5.125  17.352  0.00  0.00    +0.000 A 
ATOM     11 BR   UNL     1       6.330   5.213  19.245  0.00  0.00    +0.000 Br
ENDBRANCH   3   5
BRANCH   1  12
ATOM     12  O   UNL     1       1.941   5.238  18.186  0.00  0.00    +0.000 OA
BRANCH  12  13
ATOM     13  C   UNL     1       2.299   5.364  19.576  0.00  0.00    +0.000 C 
BRANCH  13  14
ATOM     14  C   UNL     1       1.380   4.554  20.517  0.00  0.00    +0.000 C 
BRANCH  14  16
ATOM     15  C   UNL     1       3.258   2.911  20.426  0.00  0.00    +0.000 C 
ATOM     16  N   UNL     1       1.745   3.051  20.621  0.00  0.00    +0.000 N 
ATOM     17  C   UNL     1       1.059   2.243  19.520  0.00  0.00    +0.000 C 
ATOM     18  C   UNL     1       1.380   2.491  21.986  0.00  0.00    +0.000 C 
ENDBRANCH  14  16
ENDBRANCH  13  14
ENDBRANCH  12  13
ENDBRANCH   1  12
TORSDOF 5
ENDMDL
MODEL 8
REMARK VINA RESULT:      -5.3      4.671      7.914
REMARK  Name = 
REMARK  8 active torsions:
REMARK  status: ('A' for Active; 'I' for Inactive)
REMARK    1  A    between atoms: C_1  and  N_2
REMARK    2  A    between atoms: N_2  and  C_3
REMARK    3  A    between atoms: N_2  and  C_4
REMARK    4  A    between atoms: N_2  and  C_5
REMARK    5  A    between atoms: C_5  and  C_6
REMARK    6  A    between atoms: C_6  and  O_7
REMARK    7  A    between atoms: O_7  and  C_8
REMARK    8  A    between atoms: N_10  and  C_11
REMARK                            x       y       z     vdW  Elec       q    Type
REMARK                         _______ _______ _______ _____ _____    ______ ____
ROOT
ATOM      1  C   UNL     1       7.630   7.806  17.785  0.00  0.00    +0.000 C 
ATOM      2  O   UNL     1       8.224   7.093  18.581  0.00  0.00    +0.000 OA
ATOM      3  N   UNL     1       6.682   7.439  16.875  0.00  0.00    +0.000 N 
ATOM      4  H   UNL     1       6.243   8.194  16.360  0.00  0.00    +0.000 HD
ENDROOT
BRANCH   3   5
ATOM      5  C   UNL     1       6.245   6.121  16.586  0.00  0.00    +0.000 A 
ATOM      6  C   UNL     1       7.057   5.191  15.938  0.00  0.00    +0.000 A 
ATOM      7  C   UNL     1       6.546   3.936  15.643  0.00  0.00    +0.000 A 
ATOM      8  N   UNL     1       5.298   3.546  15.960  0.00  0.00    +0.000 NA
ATOM      9  C   UNL     1       4.524   4.448  16.606  0.00  0.00    +0.000 A 
ATOM     10  C   UNL     1       4.947   5.730  16.940  0.00  0.00    +0.000 A 
ATOM     11 BR   UNL     1       3.746   6.886  17.842  0.00  0.00    +0.000 Br
ENDBRANCH   3   5
BRANCH   1  12
ATOM     12  O   UNL     1       7.866   9.145  17.706  0.00  0.00    +0.000 OA
BRANCH  12  13
ATOM     13  C   UNL     1       8.848   9.613  18.650  0.00  0.00    +0.000 C 
BRANCH  13  14
ATOM     14  C   UNL     1       9.430  10.997  18.288  0.00  0.00    +0.000 C 
BRANCH  14  16
ATOM     15  C   UNL     1       9.360  11.185  20.777  0.00  0.00    +0.000 C 
ATOM     16  N   UNL     1       9.946  11.806  19.505  0.00  0.00    +0.000 N 
ATOM     17  C   UNL     1       9.474  13.258  19.439  0.00  0.00    +0.000 C 
ATOM     18  C   UNL     1      11.463  11.753  19.596  0.00  0.00    +0.000 C 
ENDBRANCH  14  16
ENDBRANCH  13  14
ENDBRANCH  12  13
ENDBRANCH   1  12
TORSDOF 5
ENDMDL
MODEL 9
REMARK VINA RESULT:      -5.3      0.454      1.178
REMARK  Name = 
REMARK  8 active torsions:
REMARK  status: ('A' for Active; 'I' for Inactive)
REMARK    1  A    between atoms: C_1  and  N_2
REMARK    2  A    between atoms: N_2  and  C_3
REMARK    3  A    between atoms: N_2  and  C_4
REMARK    4  A    between atoms: N_2  and  C_5
REMARK    5  A    between atoms: C_5  and  C_6
REMARK    6  A    between atoms: C_6  and  O_7
REMARK    7  A    between atoms: O_7  and  C_8
REMARK    8  A    between atoms: N_10  and  C_11
REMARK                            x       y       z     vdW  Elec       q    Type
REMARK                         _______ _______ _______ _____ _____    ______ ____
ROOT
ATOM      1  C   UNL     1       2.988   4.289  17.531  0.00  0.00    +0.000 C 
ATOM      2  O   UNL     1       2.611   5.443  17.681  0.00  0.00    +0.000 OA
ATOM      3  N   UNL     1       4.267   3.815  17.541  0.00  0.00    +0.000 N 
ATOM      4  H   UNL     1       4.369   2.808  17.484  0.00  0.00    +0.000 HD
ENDROOT
BRANCH   3   5
ATOM      5  C   UNL     1       5.457   4.581  17.632  0.00  0.00    +0.000 A 
ATOM      6  C   UNL     1       5.968   5.025  18.852  0.00  0.00    +0.000 A 
ATOM      7  C   UNL     1       7.109   5.811  18.861  0.00  0.00    +0.000 A 
ATOM      8  N   UNL     1       7.777   6.169  17.750  0.00  0.00    +0.000 NA
ATOM      9  C   UNL     1       7.287   5.717  16.573  0.00  0.00    +0.000 A 
ATOM     10  C   UNL     1       6.148   4.928  16.463  0.00  0.00    +0.000 A 
ATOM     11 BR   UNL     1       5.578   4.374  14.743  0.00  0.00    +0.000 Br
ENDBRANCH   3   5
BRANCH   1  12
ATOM     12  O   UNL     1       2.109   3.271  17.318  0.00  0.00    +0.000 OA
BRANCH  12  13
ATOM     13  C   UNL     1       1.067   3.192  18.310  0.00  0.00    +0.000 C 
BRANCH  13  14
ATOM     14  C   UNL     1       1.414   2.250  19.484  0.00  0.00    +0.000 C 
BRANCH  14  16
ATOM     15  C   UNL     1       1.369   2.360  21.979  0.00  0.00    +0.000 C 
ATOM     16  N   UNL     1       2.001   2.972  20.724  0.00  0.00    +0.000 N 
ATOM     17  C   UNL     1       1.653   4.460  20.709  0.00  0.00    +0.000 C 
ATOM     18  C   UNL     1       3.508   2.788  20.803  0.00  0.00    +0.000 C 
ENDBRANCH  14  16
ENDBRANCH  13  14
ENDBRANCH  12  13
ENDBRANCH   1  12
TORSDOF 5
ENDMDL
