MODEL 1
REMARK VINA RESULT:      -7.2      0.000      0.000
REMARK  Name = 
REMARK  10 active torsions:
REMARK  status: ('A' for Active; 'I' for Inactive)
REMARK    1  A    between atoms: C_1  and  C_2
REMARK    2  A    between atoms: N_6  and  C_7
REMARK    3  A    between atoms: C_7  and  C_8
REMARK    4  A    between atoms: C_8  and  C_9
REMARK    5  A    between atoms: C_9  and  N_10
REMARK    6  A    between atoms: C_11  and  C_13
REMARK    7  A    between atoms: C_16  and  C_17
REMARK    8  A    between atoms: C_17  and  S_18
REMARK    9  A    between atoms: S_18  and  C_21
REMARK   10  A    between atoms: C_21  and  C_22
REMARK                            x       y       z     vdW  Elec       q    Type
REMARK                         _______ _______ _______ _____ _____    ______ ____
ROOT
ATOM      1  C   UNL     1       1.905   7.176  19.444  0.00  0.00    +0.000 A 
ATOM      2  C   UNL     1       2.200   7.719  18.208  0.00  0.00    +0.000 A 
ATOM      3  C   UNL     1       1.947   9.107  18.297  0.00  0.00    +0.000 A 
ATOM      4  C   UNL     1       1.494   9.338  19.579  0.00  0.00    +0.000 A 
ATOM      5  O   UNL     1       1.474   8.172  20.289  0.00  0.00    +0.000 OA
ENDROOT
BRANCH   1   7
ATOM      6  N   UNL     1       2.414   4.906  18.960  0.00  0.00    +0.000 N 
ATOM      7  C   UNL     1       1.987   5.808  19.913  0.00  0.00    +0.000 C 
ATOM      8  O   UNL     1       1.698   5.472  21.061  0.00  0.00    +0.000 OA
ATOM      9  H   UNL     1       2.588   5.256  18.026  0.00  0.00    +0.000 HD
BRANCH   6  10
ATOM     10  C   UNL     1       2.544   3.490  19.234  0.00  0.00    +0.000 C 
BRANCH  10  11
ATOM     11  C   UNL     1       3.884   2.942  18.748  0.00  0.00    +0.000 C 
BRANCH  11  12
ATOM     12  C   UNL     1       5.078   3.732  19.307  0.00  0.00    +0.000 C 
BRANCH  12  18
ATOM     13  C   UNL     1       4.908   6.637  15.996  0.00  0.00    +0.000 C 
ATOM     14  C   UNL     1       6.050   5.624  16.146  0.00  0.00    +0.000 C 
ATOM     15  C   UNL     1       7.327   6.289  16.671  0.00  0.00    +0.000 C 
ATOM     16  C   UNL     1       7.181   6.682  18.135  0.00  0.00    +0.000 C 
ATOM     17  C   UNL     1       6.719   5.500  18.984  0.00  0.00    +0.000 C 
ATOM     18  N   UNL     1       5.489   4.872  18.469  0.00  0.00    +0.000 NA
ATOM     19  C   UNL     1       5.657   4.453  17.066  0.00  0.00    +0.000 C 
ENDBRANCH  12  18
ENDBRANCH  11  12
ENDBRANCH  10  11
ENDBRANCH   6  10
ENDBRANCH   1   7
BRANCH   4  20
ATOM     20  C   UNL     1       1.087  10.565  20.296  0.00  0.00    +0.000 C 
BRANCH  20  21
ATOM     21  S   UNL     1      -0.312  11.331  19.485  0.00  0.00    +0.000 S 
ATOM     22  O   UNL     1      -1.010  12.082  20.517  0.00  0.00    +0.000 OA
ATOM     23  O   UNL     1       0.168  12.011  18.294  0.00  0.00    +0.000 OA
BRANCH  21  24
ATOM     24  C   UNL     1      -1.364   9.957  19.001  0.00  0.00    +0.000 C 
BRANCH  24  25
ATOM     25  C   UNL     1      -2.323  10.408  17.921  0.00  0.00    +0.000 A 
ATOM     26  C   UNL     1      -3.428  11.214  18.232  0.00  0.00    +0.000 A 
ATOM     27  C   UNL     1      -4.328  11.609  17.237  0.00  0.00    +0.000 A 
ATOM     28  C   UNL     1      -4.135  11.201  15.919  0.00  0.00    +0.000 A 
ATOM     29  C   UNL     1      -3.033  10.411  15.598  0.00  0.00    +0.000 A 
ATOM     30 CL   UNL     1      -2.798   9.902  13.971  0.00  0.00    +0.000 Cl
ATOM     31  C   UNL     1      -2.127  10.019  16.587  0.00  0.00    +0.000 A 
ENDBRANCH  24  25
ENDBRANCH  21  24
ENDBRANCH  20  21
ENDBRANCH   4  20
TORSDOF 9
ENDMDL
MODEL 2
REMARK VINA RESULT:      -7.0      1.756      2.517
REMARK  Name = 
REMARK  10 active torsions:
REMARK  status: ('A' for Active; 'I' for Inactive)
REMARK    1  A    between atoms: C_1  and  C_2
REMARK    2  A    between atoms: N_6  and  C_7
REMARK    3  A    between atoms: C_7  and  C_8
REMARK    4  A    between atoms: C_8  and  C_9
REMARK    5  A    between atoms: C_9  and  N_10
REMARK    6  A    between atoms: C_11  and  C_13
REMARK    7  A    between atoms: C_16  and  C_17
REMARK    8  A    between atoms: C_17  and  S_18
REMARK    9  A    between atoms: S_18  and  C_21
REMARK   10  A    between atoms: C_21  and  C_22
REMARK                            x       y       z     vdW  Elec       q    Type
REMARK                         _______ _______ _______ _____ _____    ______ ____
ROOT
ATOM      1  C   UNL     1       1.846   6.091  18.940  0.00  0.00    +0.000 A 
ATOM      2  C   UNL     1       2.128   7.215  18.188  0.00  0.00    +0.000 A 
ATOM      3  C   UNL     1       2.143   8.314  19.077  0.00  0.00    +0.000 A 
ATOM      4  C   UNL     1       1.852   7.806  20.326  0.00  0.00    +0.000 A 
ATOM      5  O   UNL     1       1.679   6.453  20.256  0.00  0.00    +0.000 OA
ENDROOT
BRANCH   1   7
ATOM      6  N   UNL     1       2.125   3.799  19.502  0.00  0.00    +0.000 N 
ATOM      7  C   UNL     1       1.716   4.703  18.544  0.00  0.00    +0.000 C 
ATOM      8  O   UNL     1       1.282   4.355  17.446  0.00  0.00    +0.000 OA
ATOM      9  H   UNL     1       2.512   4.168  20.362  0.00  0.00    +0.000 HD
BRANCH   6  10
ATOM     10  C   UNL     1       2.086   2.368  19.285  0.00  0.00    +0.000 C 
BRANCH  10  11
ATOM     11  C   UNL     1       3.439   1.831  18.820  0.00  0.00    +0.000 C 
BRANCH  11  12
ATOM     12  C   UNL     1       4.618   2.581  19.459  0.00  0.00    +0.000 C 
BRANCH  12  18
ATOM     13  C   UNL     1       7.557   5.592  18.144  0.00  0.00    +0.000 C 
ATOM     14  C   UNL     1       6.051   5.877  18.194  0.00  0.00    +0.000 C 
ATOM     15  C   UNL     1       5.429   5.865  16.793  0.00  0.00    +0.000 C 
ATOM     16  C   UNL     1       5.373   4.452  16.230  0.00  0.00    +0.000 C 
ATOM     17  C   UNL     1       4.693   3.492  17.203  0.00  0.00    +0.000 C 
ATOM     18  N   UNL     1       5.303   3.512  18.545  0.00  0.00    +0.000 NA
ATOM     19  C   UNL     1       5.310   4.877  19.102  0.00  0.00    +0.000 C 
ENDBRANCH  12  18
ENDBRANCH  11  12
ENDBRANCH  10  11
ENDBRANCH   6  10
ENDBRANCH   1   7
BRANCH   4  20
ATOM     20  C   UNL     1       1.740   8.427  21.663  0.00  0.00    +0.000 C 
BRANCH  20  21
ATOM     21  S   UNL     1       0.313   9.501  21.739  0.00  0.00    +0.000 S 
ATOM     22  O   UNL     1      -0.816   8.699  21.293  0.00  0.00    +0.000 OA
ATOM     23  O   UNL     1       0.283  10.128  23.049  0.00  0.00    +0.000 OA
BRANCH  21  24
ATOM     24  C   UNL     1       0.621  10.755  20.488  0.00  0.00    +0.000 C 
BRANCH  24  25
ATOM     25  C   UNL     1      -0.657  11.043  19.733  0.00  0.00    +0.000 A 
ATOM     26  C   UNL     1      -1.616  11.927  20.251  0.00  0.00    +0.000 A 
ATOM     27  C   UNL     1      -2.809  12.173  19.564  0.00  0.00    +0.000 A 
ATOM     28  C   UNL     1      -3.059  11.536  18.351  0.00  0.00    +0.000 A 
ATOM     29  C   UNL     1      -2.108  10.667  17.821  0.00  0.00    +0.000 A 
ATOM     30 CL   UNL     1      -2.420   9.875  16.325  0.00  0.00    +0.000 Cl
ATOM     31  C   UNL     1      -0.912  10.423  18.500  0.00  0.00    +0.000 A 
ENDBRANCH  24  25
ENDBRANCH  21  24
ENDBRANCH  20  21
ENDBRANCH   4  20
TORSDOF 9
ENDMDL
MODEL 3
REMARK VINA RESULT:      -7.0      5.871      8.883
REMARK  Name = 
REMARK  10 active torsions:
REMARK  status: ('A' for Active; 'I' for Inactive)
REMARK    1  A    between atoms: C_1  and  C_2
REMARK    2  A    between atoms: N_6  and  C_7
REMARK    3  A    between atoms: C_7  and  C_8
REMARK    4  A    between atoms: C_8  and  C_9
REMARK    5  A    between atoms: C_9  and  N_10
REMARK    6  A    between atoms: C_11  and  C_13
REMARK    7  A    between atoms: C_16  and  C_17
REMARK    8  A    between atoms: C_17  and  S_18
REMARK    9  A    between atoms: S_18  and  C_21
REMARK   10  A    between atoms: C_21  and  C_22
REMARK                            x       y       z     vdW  Elec       q    Type
REMARK                         _______ _______ _______ _____ _____    ______ ____
ROOT
ATOM      1  C   UNL     1       8.142   8.424  18.136  0.00  0.00    +0.000 A 
ATOM      2  C   UNL     1       8.407   7.401  19.027  0.00  0.00    +0.000 A 
ATOM      3  C   UNL     1       7.835   6.226  18.488  0.00  0.00    +0.000 A 
ATOM      4  C   UNL     1       7.236   6.595  17.301  0.00  0.00    +0.000 A 
ATOM      5  O   UNL     1       7.424   7.928  17.073  0.00  0.00    +0.000 OA
ENDROOT
BRANCH   1   7
ATOM      6  N   UNL     1       9.428  10.145  19.152  0.00  0.00    +0.000 N 
ATOM      7  C   UNL     1       8.496   9.828  18.185  0.00  0.00    +0.000 C 
ATOM      8  O   UNL     1       8.007  10.671  17.434  0.00  0.00    +0.000 OA
ATOM      9  H   UNL     1       9.747   9.400  19.759  0.00  0.00    +0.000 HD
BRANCH   6  10
ATOM     10  C   UNL     1       9.895  11.499  19.365  0.00  0.00    +0.000 C 
BRANCH  10  11
ATOM     11  C   UNL     1      10.238  11.753  20.832  0.00  0.00    +0.000 C 
BRANCH  11  12
ATOM     12  C   UNL     1       9.785  13.143  21.307  0.00  0.00    +0.000 C 
BRANCH  12  18
ATOM     13  C   UNL     1       8.050  12.505  25.309  0.00  0.00    +0.000 C 
ATOM     14  C   UNL     1       7.611  11.697  24.082  0.00  0.00    +0.000 C 
ATOM     15  C   UNL     1       6.247  12.164  23.559  0.00  0.00    +0.000 C 
ATOM     16  C   UNL     1       6.350  13.534  22.902  0.00  0.00    +0.000 C 
ATOM     17  C   UNL     1       7.448  13.560  21.841  0.00  0.00    +0.000 C 
ATOM     18  N   UNL     1       8.753  13.111  22.358  0.00  0.00    +0.000 NA
ATOM     19  C   UNL     1       8.653  11.766  22.950  0.00  0.00    +0.000 C 
ENDBRANCH  12  18
ENDBRANCH  11  12
ENDBRANCH  10  11
ENDBRANCH   6  10
ENDBRANCH   1   7
BRANCH   4  20
ATOM     20  C   UNL     1       6.500   5.836  16.268  0.00  0.00    +0.000 C 
BRANCH  20  21
ATOM     21  S   UNL     1       5.187   4.875  17.011  0.00  0.00    +0.000 S 
ATOM     22  O   UNL     1       4.639   4.054  15.943  0.00  0.00    +0.000 OA
ATOM     23  O   UNL     1       5.707   4.246  18.213  0.00  0.00    +0.000 OA
BRANCH  21  24
ATOM     24  C   UNL     1       3.940   6.086  17.467  0.00  0.00    +0.000 C 
BRANCH  24  25
ATOM     25  C   UNL     1       2.979   5.474  18.462  0.00  0.00    +0.000 A 
ATOM     26  C   UNL     1       2.782   6.056  19.723  0.00  0.00    +0.000 A 
ATOM     27  C   UNL     1       1.912   5.476  20.652  0.00  0.00    +0.000 A 
ATOM     28  C   UNL     1       1.230   4.304  20.332  0.00  0.00    +0.000 A 
ATOM     29  C   UNL     1       1.410   3.724  19.078  0.00  0.00    +0.000 A 
ATOM     30 CL   UNL     1       0.573   2.273  18.684  0.00  0.00    +0.000 Cl
ATOM     31  C   UNL     1       2.271   4.304  18.144  0.00  0.00    +0.000 A 
ENDBRANCH  24  25
ENDBRANCH  21  24
ENDBRANCH  20  21
ENDBRANCH   4  20
TORSDOF 9
ENDMDL
MODEL 4
REMARK VINA RESULT:      -7.0      2.577      4.242
REMARK  Name = 
REMARK  10 active torsions:
REMARK  status: ('A' for Active; 'I' for Inactive)
REMARK    1  A    between atoms: C_1  and  C_2
REMARK    2  A    between atoms: N_6  and  C_7
REMARK    3  A    between atoms: C_7  and  C_8
REMARK    4  A    between atoms: C_8  and  C_9
REMARK    5  A    between atoms: C_9  and  N_10
REMARK    6  A    between atoms: C_11  and  C_13
REMARK    7  A    between atoms: C_16  and  C_17
REMARK    8  A    between atoms: C_17  and  S_18
REMARK    9  A    between atoms: S_18  and  C_21
REMARK   10  A    between atoms: C_21  and  C_22
REMARK                            x       y       z     vdW  Elec       q    Type
REMARK                         _______ _______ _______ _____ _____    ______ ____
ROOT
ATOM      1  C   UNL     1       0.789   9.439  20.524  0.00  0.00    +0.000 A 
ATOM      2  C   UNL     1       1.216   8.950  21.744  0.00  0.00    +0.000 A 
ATOM      3  C   UNL     1       0.465   9.614  22.740  0.00  0.00    +0.000 A 
ATOM      4  C   UNL     1      -0.372  10.488  22.077  0.00  0.00    +0.000 A 
ATOM      5  O   UNL     1      -0.190  10.383  20.728  0.00  0.00    +0.000 OA
ENDROOT
BRANCH   1   7
ATOM      6  N   UNL     1       2.101   8.055  19.106  0.00  0.00    +0.000 N 
ATOM      7  C   UNL     1       1.212   9.108  19.178  0.00  0.00    +0.000 C 
ATOM      8  O   UNL     1       0.818   9.713  18.182  0.00  0.00    +0.000 OA
ATOM      9  H   UNL     1       2.410   7.641  19.976  0.00  0.00    +0.000 HD
BRANCH   6  10
ATOM     10  C   UNL     1       2.650   7.588  17.850  0.00  0.00    +0.000 C 
BRANCH  10  11
ATOM     11  C   UNL     1       3.655   6.456  18.060  0.00  0.00    +0.000 C 
BRANCH  11  12
ATOM     12  C   UNL     1       3.524   5.806  19.446  0.00  0.00    +0.000 C 
BRANCH  12  18
ATOM     13  C   UNL     1       3.315   1.511  18.476  0.00  0.00    +0.000 C 
ATOM     14  C   UNL     1       2.288   2.524  17.956  0.00  0.00    +0.000 C 
ATOM     15  C   UNL     1       0.961   2.422  18.718  0.00  0.00    +0.000 C 
ATOM     16  C   UNL     1       1.101   2.952  20.138  0.00  0.00    +0.000 C 
ATOM     17  C   UNL     1       1.702   4.355  20.152  0.00  0.00    +0.000 C 
ATOM     18  N   UNL     1       2.978   4.438  19.418  0.00  0.00    +0.000 NA
ATOM     19  C   UNL     1       2.821   3.968  18.031  0.00  0.00    +0.000 C 
ENDBRANCH  12  18
ENDBRANCH  11  12
ENDBRANCH  10  11
ENDBRANCH   6  10
ENDBRANCH   1   7
BRANCH   4  20
ATOM     20  C   UNL     1      -1.405  11.439  22.542  0.00  0.00    +0.000 C 
BRANCH  20  21
ATOM     21  S   UNL     1      -0.780  13.114  22.501  0.00  0.00    +0.000 S 
ATOM     22  O   UNL     1      -1.018  13.663  23.828  0.00  0.00    +0.000 OA
ATOM     23  O   UNL     1       0.569  13.085  21.962  0.00  0.00    +0.000 OA
BRANCH  21  24
ATOM     24  C   UNL     1      -1.861  13.974  21.351  0.00  0.00    +0.000 C 
BRANCH  24  25
ATOM     25  C   UNL     1      -1.990  13.167  20.077  0.00  0.00    +0.000 A 
ATOM     26  C   UNL     1      -0.945  13.129  19.141  0.00  0.00    +0.000 A 
ATOM     27  C   UNL     1      -1.075  12.404  17.952  0.00  0.00    +0.000 A 
ATOM     28  C   UNL     1      -2.252  11.709  17.684  0.00  0.00    +0.000 A 
ATOM     29  C   UNL     1      -3.291  11.730  18.613  0.00  0.00    +0.000 A 
ATOM     30 CL   UNL     1      -4.747  10.877  18.279  0.00  0.00    +0.000 Cl
ATOM     31  C   UNL     1      -3.163  12.447  19.805  0.00  0.00    +0.000 A 
ENDBRANCH  24  25
ENDBRANCH  21  24
ENDBRANCH  20  21
ENDBRANCH   4  20
TORSDOF 9
ENDMDL
MODEL 5
REMARK VINA RESULT:      -7.0      6.850      9.508
REMARK  Name = 
REMARK  10 active torsions:
REMARK  status: ('A' for Active; 'I' for Inactive)
REMARK    1  A    between atoms: C_1  and  C_2
REMARK    2  A    between atoms: N_6  and  C_7
REMARK    3  A    between atoms: C_7  and  C_8
REMARK    4  A    between atoms: C_8  and  C_9
REMARK    5  A    between atoms: C_9  and  N_10
REMARK    6  A    between atoms: C_11  and  C_13
REMARK    7  A    between atoms: C_16  and  C_17
REMARK    8  A    between atoms: C_17  and  S_18
REMARK    9  A    between atoms: S_18  and  C_21
REMARK   10  A    between atoms: C_21  and  C_22
REMARK                            x       y       z     vdW  Elec       q    Type
REMARK                         _______ _______ _______ _____ _____    ______ ____
ROOT
ATOM      1  C   UNL     1       8.637   9.462  18.470  0.00  0.00    +0.000 A 
ATOM      2  C   UNL     1       9.147   9.813  19.705  0.00  0.00    +0.000 A 
ATOM      3  C   UNL     1       9.545  11.166  19.618  0.00  0.00    +0.000 A 
ATOM      4  C   UNL     1       9.271  11.568  18.327  0.00  0.00    +0.000 A 
ATOM      5  O   UNL     1       8.710  10.542  17.622  0.00  0.00    +0.000 OA
ENDROOT
BRANCH   1   7
ATOM      6  N   UNL     1       8.289   7.144  18.860  0.00  0.00    +0.000 N 
ATOM      7  C   UNL     1       8.086   8.206  18.003  0.00  0.00    +0.000 C 
ATOM      8  O   UNL     1       7.490   8.090  16.933  0.00  0.00    +0.000 OA
ATOM      9  H   UNL     1       8.828   7.314  19.700  0.00  0.00    +0.000 HD
BRANCH   6  10
ATOM     10  C   UNL     1       7.826   5.805  18.560  0.00  0.00    +0.000 C 
BRANCH  10  11
ATOM     11  C   UNL     1       6.482   5.511  19.224  0.00  0.00    +0.000 C 
BRANCH  11  12
ATOM     12  C   UNL     1       5.299   5.697  18.261  0.00  0.00    +0.000 C 
BRANCH  12  18
ATOM     13  C   UNL     1       3.065   1.898  18.177  0.00  0.00    +0.000 C 
ATOM     14  C   UNL     1       2.590   3.149  17.430  0.00  0.00    +0.000 C 
ATOM     15  C   UNL     1       1.420   3.827  18.154  0.00  0.00    +0.000 C 
ATOM     16  C   UNL     1       1.884   4.495  19.441  0.00  0.00    +0.000 C 
ATOM     17  C   UNL     1       3.065   5.430  19.188  0.00  0.00    +0.000 C 
ATOM     18  N   UNL     1       4.182   4.764  18.494  0.00  0.00    +0.000 NA
ATOM     19  C   UNL     1       3.733   4.162  17.227  0.00  0.00    +0.000 C 
ENDBRANCH  12  18
ENDBRANCH  11  12
ENDBRANCH  10  11
ENDBRANCH   6  10
ENDBRANCH   1   7
BRANCH   4  20
ATOM     20  C   UNL     1       9.433  12.857  17.620  0.00  0.00    +0.000 C 
BRANCH  20  21
ATOM     21  S   UNL     1      11.165  13.278  17.470  0.00  0.00    +0.000 S 
ATOM     22  O   UNL     1      11.888  12.286  18.250  0.00  0.00    +0.000 OA
ATOM     23  O   UNL     1      11.470  13.454  16.060  0.00  0.00    +0.000 OA
BRANCH  21  24
ATOM     24  C   UNL     1      11.321  14.858  18.312  0.00  0.00    +0.000 C 
BRANCH  24  25
ATOM     25  C   UNL     1      10.384  14.895  19.499  0.00  0.00    +0.000 A 
ATOM     26  C   UNL     1      10.747  14.308  20.720  0.00  0.00    +0.000 A 
ATOM     27  C   UNL     1       9.869  14.321  21.809  0.00  0.00    +0.000 A 
ATOM     28  C   UNL     1       8.617  14.919  21.689  0.00  0.00    +0.000 A 
ATOM     29  C   UNL     1       8.252  15.516  20.484  0.00  0.00    +0.000 A 
ATOM     30 CL   UNL     1       6.703  16.249  20.334  0.00  0.00    +0.000 Cl
ATOM     31  C   UNL     1       9.127  15.512  19.396  0.00  0.00    +0.000 A 
ENDBRANCH  24  25
ENDBRANCH  21  24
ENDBRANCH  20  21
ENDBRANCH   4  20
TORSDOF 9
ENDMDL
MODEL 6
REMARK VINA RESULT:      -7.0      4.746      7.371
REMARK  Name = 
REMARK  10 active torsions:
REMARK  status: ('A' for Active; 'I' for Inactive)
REMARK    1  A    between atoms: C_1  and  C_2
REMARK    2  A    between atoms: N_6  and  C_7
REMARK    3  A    between atoms: C_7  and  C_8
REMARK    4  A    between atoms: C_8  and  C_9
REMARK    5  A    between atoms: C_9  and  N_10
REMARK    6  A    between atoms: C_11  and  C_13
REMARK    7  A    between atoms: C_16  and  C_17
REMARK    8  A    between atoms: C_17  and  S_18
REMARK    9  A    between atoms: S_18  and  C_21
REMARK   10  A    between atoms: C_21  and  C_22
REMARK                            x       y       z     vdW  Elec       q    Type
REMARK                         _______ _______ _______ _____ _____    ______ ____
ROOT
ATOM      1  C   UNL     1       6.323   5.811  17.364  0.00  0.00    +0.000 A 
ATOM      2  C   UNL     1       5.786   5.684  16.098  0.00  0.00    +0.000 A 
ATOM      3  C   UNL     1       4.736   4.741  16.187  0.00  0.00    +0.000 A 
ATOM      4  C   UNL     1       4.697   4.328  17.503  0.00  0.00    +0.000 A 
ATOM      5  O   UNL     1       5.652   4.979  18.230  0.00  0.00    +0.000 OA
ENDROOT
BRANCH   1   7
ATOM      6  N   UNL     1       7.573   7.821  17.152  0.00  0.00    +0.000 N 
ATOM      7  C   UNL     1       7.410   6.639  17.845  0.00  0.00    +0.000 C 
ATOM      8  O   UNL     1       8.134   6.318  18.788  0.00  0.00    +0.000 OA
ATOM      9  H   UNL     1       6.965   7.989  16.361  0.00  0.00    +0.000 HD
BRANCH   6  10
ATOM     10  C   UNL     1       8.616   8.772  17.475  0.00  0.00    +0.000 C 
BRANCH  10  11
ATOM     11  C   UNL     1       8.131   9.827  18.467  0.00  0.00    +0.000 C 
BRANCH  11  12
ATOM     12  C   UNL     1       9.253  10.319  19.396  0.00  0.00    +0.000 C 
BRANCH  12  18
ATOM     13  C   UNL     1      11.855  13.035  17.099  0.00  0.00    +0.000 C 
ATOM     14  C   UNL     1      12.018  12.819  18.608  0.00  0.00    +0.000 C 
ATOM     15  C   UNL     1      11.475  14.008  19.409  0.00  0.00    +0.000 C 
ATOM     16  C   UNL     1       9.955  14.061  19.351  0.00  0.00    +0.000 C 
ATOM     17  C   UNL     1       9.336  12.724  19.755  0.00  0.00    +0.000 C 
ATOM     18  N   UNL     1       9.865  11.591  18.975  0.00  0.00    +0.000 NA
ATOM     19  C   UNL     1      11.334  11.520  19.075  0.00  0.00    +0.000 C 
ENDBRANCH  12  18
ENDBRANCH  11  12
ENDBRANCH  10  11
ENDBRANCH   6  10
ENDBRANCH   1   7
BRANCH   4  20
ATOM     20  C   UNL     1       3.825   3.385  18.235  0.00  0.00    +0.000 C 
BRANCH  20  21
ATOM     21  S   UNL     1       2.425   4.244  18.942  0.00  0.00    +0.000 S 
ATOM     22  O   UNL     1       1.697   4.815  17.819  0.00  0.00    +0.000 OA
ATOM     23  O   UNL     1       1.750   3.339  19.857  0.00  0.00    +0.000 OA
BRANCH  21  24
ATOM     24  C   UNL     1       3.148   5.601  19.873  0.00  0.00    +0.000 C 
BRANCH  24  25
ATOM     25  C   UNL     1       2.547   6.910  19.411  0.00  0.00    +0.000 A 
ATOM     26  C   UNL     1       2.850   7.432  18.144  0.00  0.00    +0.000 A 
ATOM     27  C   UNL     1       2.315   8.655  17.726  0.00  0.00    +0.000 A 
ATOM     28  C   UNL     1       1.472   9.373  18.572  0.00  0.00    +0.000 A 
ATOM     29  C   UNL     1       1.156   8.857  19.827  0.00  0.00    +0.000 A 
ATOM     30 CL   UNL     1       0.120   9.746  20.875  0.00  0.00    +0.000 Cl
ATOM     31  C   UNL     1       1.682   7.633  20.246  0.00  0.00    +0.000 A 
ENDBRANCH  24  25
ENDBRANCH  21  24
ENDBRANCH  20  21
ENDBRANCH   4  20
TORSDOF 9
ENDMDL
MODEL 7
REMARK VINA RESULT:      -6.9      3.597      9.716
REMARK  Name = 
REMARK  10 active torsions:
REMARK  status: ('A' for Active; 'I' for Inactive)
REMARK    1  A    between atoms: C_1  and  C_2
REMARK    2  A    between atoms: N_6  and  C_7
REMARK    3  A    between atoms: C_7  and  C_8
REMARK    4  A    between atoms: C_8  and  C_9
REMARK    5  A    between atoms: C_9  and  N_10
REMARK    6  A    between atoms: C_11  and  C_13
REMARK    7  A    between atoms: C_16  and  C_17
REMARK    8  A    between atoms: C_17  and  S_18
REMARK    9  A    between atoms: S_18  and  C_21
REMARK   10  A    between atoms: C_21  and  C_22
REMARK                            x       y       z     vdW  Elec       q    Type
REMARK                         _______ _______ _______ _____ _____    ______ ____
ROOT
ATOM      1  C   UNL     1       1.538   9.299  18.931  0.00  0.00    +0.000 A 
ATOM      2  C   UNL     1       2.172   8.912  17.766  0.00  0.00    +0.000 A 
ATOM      3  C   UNL     1       2.650   7.598  17.974  0.00  0.00    +0.000 A 
ATOM      4  C   UNL     1       2.297   7.256  19.263  0.00  0.00    +0.000 A 
ATOM      5  O   UNL     1       1.612   8.280  19.851  0.00  0.00    +0.000 OA
ENDROOT
BRANCH   1   7
ATOM      6  N   UNL     1       0.042  11.026  18.275  0.00  0.00    +0.000 N 
ATOM      7  C   UNL     1       0.867  10.538  19.268  0.00  0.00    +0.000 C 
ATOM      8  O   UNL     1       1.020  11.114  20.345  0.00  0.00    +0.000 OA
ATOM      9  H   UNL     1       0.007  10.516  17.401  0.00  0.00    +0.000 HD
BRANCH   6  10
ATOM     10  C   UNL     1      -0.700  12.260  18.420  0.00  0.00    +0.000 C 
BRANCH  10  11
ATOM     11  C   UNL     1      -2.033  12.037  19.133  0.00  0.00    +0.000 C 
BRANCH  11  12
ATOM     12  C   UNL     1      -3.153  11.623  18.165  0.00  0.00    +0.000 C 
BRANCH  12  18
ATOM     13  C   UNL     1      -6.923   9.664  19.339  0.00  0.00    +0.000 C 
ATOM     14  C   UNL     1      -6.885  10.904  18.438  0.00  0.00    +0.000 C 
ATOM     15  C   UNL     1      -7.297  12.168  19.201  0.00  0.00    +0.000 C 
ATOM     16  C   UNL     1      -6.225  12.581  20.200  0.00  0.00    +0.000 C 
ATOM     17  C   UNL     1      -4.857  12.696  19.531  0.00  0.00    +0.000 C 
ATOM     18  N   UNL     1      -4.472  11.473  18.803  0.00  0.00    +0.000 NA
ATOM     19  C   UNL     1      -5.494  11.108  17.806  0.00  0.00    +0.000 C 
ENDBRANCH  12  18
ENDBRANCH  11  12
ENDBRANCH  10  11
ENDBRANCH   6  10
ENDBRANCH   1   7
BRANCH   4  20
ATOM     20  C   UNL     1       2.484   6.028  20.065  0.00  0.00    +0.000 C 
BRANCH  20  21
ATOM     21  S   UNL     1       2.220   4.574  19.057  0.00  0.00    +0.000 S 
ATOM     22  O   UNL     1       1.288   3.737  19.798  0.00  0.00    +0.000 OA
ATOM     23  O   UNL     1       1.891   5.007  17.710  0.00  0.00    +0.000 OA
BRANCH  21  24
ATOM     24  C   UNL     1       3.811   3.739  19.040  0.00  0.00    +0.000 C 
BRANCH  24  25
ATOM     25  C   UNL     1       4.725   4.409  18.038  0.00  0.00    +0.000 A 
ATOM     26  C   UNL     1       5.582   5.449  18.429  0.00  0.00    +0.000 A 
ATOM     27  C   UNL     1       6.408   6.085  17.497  0.00  0.00    +0.000 A 
ATOM     28  C   UNL     1       6.386   5.692  16.161  0.00  0.00    +0.000 A 
ATOM     29  C   UNL     1       5.547   4.652  15.765  0.00  0.00    +0.000 A 
ATOM     30 CL   UNL     1       5.514   4.170  14.113  0.00  0.00    +0.000 Cl
ATOM     31  C   UNL     1       4.725   4.009  16.693  0.00  0.00    +0.000 A 
ENDBRANCH  24  25
ENDBRANCH  21  24
ENDBRANCH  20  21
ENDBRANCH   4  20
TORSDOF 9
ENDMDL
MODEL 8
REMARK VINA RESULT:      -6.8      4.837      7.498
REMARK  Name = 
REMARK  10 active torsions:
REMARK  status: ('A' for Active; 'I' for Inactive)
REMARK    1  A    between atoms: C_1  and  C_2
REMARK    2  A    between atoms: N_6  and  C_7
REMARK    3  A    between atoms: C_7  and  C_8
REMARK    4  A    between atoms: C_8  and  C_9
REMARK    5  A    between atoms: C_9  and  N_10
REMARK    6  A    between atoms: C_11  and  C_13
REMARK    7  A    between atoms: C_16  and  C_17
REMARK    8  A    between atoms: C_17  and  S_18
REMARK    9  A    between atoms: S_18  and  C_21
REMARK   10  A    between atoms: C_21  and  C_22
REMARK                            x       y       z     vdW  Elec       q    Type
REMARK                         _______ _______ _______ _____ _____    ______ ____
ROOT
ATOM      1  C   UNL     1       6.352   5.970  17.411  0.00  0.00    +0.000 A 
ATOM      2  C   UNL     1       5.829   5.885  16.136  0.00  0.00    +0.000 A 
ATOM      3  C   UNL     1       4.801   4.915  16.176  0.00  0.00    +0.000 A 
ATOM      4  C   UNL     1       4.762   4.445  17.472  0.00  0.00    +0.000 A 
ATOM      5  O   UNL     1       5.695   5.087  18.235  0.00  0.00    +0.000 OA
ENDROOT
BRANCH   1   7
ATOM      6  N   UNL     1       7.613   7.978  17.242  0.00  0.00    +0.000 N 
ATOM      7  C   UNL     1       7.416   6.802  17.937  0.00  0.00    +0.000 C 
ATOM      8  O   UNL     1       8.093   6.489  18.916  0.00  0.00    +0.000 OA
ATOM      9  H   UNL     1       7.044   8.139  16.421  0.00  0.00    +0.000 HD
BRANCH   6  10
ATOM     10  C   UNL     1       8.640   8.932  17.606  0.00  0.00    +0.000 C 
BRANCH  10  11
ATOM     11  C   UNL     1       8.042  10.207  18.197  0.00  0.00    +0.000 C 
BRANCH  11  12
ATOM     12  C   UNL     1       8.865  11.457  17.848  0.00  0.00    +0.000 C 
BRANCH  12  18
ATOM     13  C   UNL     1       9.556  13.209  21.833  0.00  0.00    +0.000 C 
ATOM     14  C   UNL     1       9.876  13.961  20.536  0.00  0.00    +0.000 C 
ATOM     15  C   UNL     1      11.383  13.987  20.258  0.00  0.00    +0.000 C 
ATOM     16  C   UNL     1      11.891  12.610  19.851  0.00  0.00    +0.000 C 
ATOM     17  C   UNL     1      11.071  12.034  18.699  0.00  0.00    +0.000 C 
ATOM     18  N   UNL     1       9.624  12.012  18.982  0.00  0.00    +0.000 NA
ATOM     19  C   UNL     1       9.134  13.358  19.328  0.00  0.00    +0.000 C 
ENDBRANCH  12  18
ENDBRANCH  11  12
ENDBRANCH  10  11
ENDBRANCH   6  10
ENDBRANCH   1   7
BRANCH   4  20
ATOM     20  C   UNL     1       3.906   3.452  18.156  0.00  0.00    +0.000 C 
BRANCH  20  21
ATOM     21  S   UNL     1       2.484   4.248  18.893  0.00  0.00    +0.000 S 
ATOM     22  O   UNL     1       1.734   4.829  17.790  0.00  0.00    +0.000 OA
ATOM     23  O   UNL     1       1.841   3.298  19.785  0.00  0.00    +0.000 OA
BRANCH  21  24
ATOM     24  C   UNL     1       3.171   5.599  19.860  0.00  0.00    +0.000 C 
BRANCH  24  25
ATOM     25  C   UNL     1       2.545   6.905  19.421  0.00  0.00    +0.000 A 
ATOM     26  C   UNL     1       2.811   7.439  18.151  0.00  0.00    +0.000 A 
ATOM     27  C   UNL     1       2.253   8.659  17.756  0.00  0.00    +0.000 A 
ATOM     28  C   UNL     1       1.424   9.362  18.628  0.00  0.00    +0.000 A 
ATOM     29  C   UNL     1       1.145   8.834  19.887  0.00  0.00    +0.000 A 
ATOM     30 CL   UNL     1       0.126   9.705  20.966  0.00  0.00    +0.000 Cl
ATOM     31  C   UNL     1       1.693   7.612  20.283  0.00  0.00    +0.000 A 
ENDBRANCH  24  25
ENDBRANCH  21  24
ENDBRANCH  20  21
ENDBRANCH   4  20
TORSDOF 9
ENDMDL
MODEL 9
REMARK VINA RESULT:      -6.7      3.777      5.190
REMARK  Name = 
REMARK  10 active torsions:
REMARK  status: ('A' for Active; 'I' for Inactive)
REMARK    1  A    between atoms: C_1  and  C_2
REMARK    2  A    between atoms: N_6  and  C_7
REMARK    3  A    between atoms: C_7  and  C_8
REMARK    4  A    between atoms: C_8  and  C_9
REMARK    5  A    between atoms: C_9  and  N_10
REMARK    6  A    between atoms: C_11  and  C_13
REMARK    7  A    between atoms: C_16  and  C_17
REMARK    8  A    between atoms: C_17  and  S_18
REMARK    9  A    between atoms: S_18  and  C_21
REMARK   10  A    between atoms: C_21  and  C_22
REMARK                            x       y       z     vdW  Elec       q    Type
REMARK                         _______ _______ _______ _____ _____    ______ ____
ROOT
ATOM      1  C   UNL     1       1.946   8.270  18.882  0.00  0.00    +0.000 A 
ATOM      2  C   UNL     1       1.757   9.142  17.827  0.00  0.00    +0.000 A 
ATOM      3  C   UNL     1       0.754  10.056  18.222  0.00  0.00    +0.000 A 
ATOM      4  C   UNL     1       0.370   9.685  19.494  0.00  0.00    +0.000 A 
ATOM      5  O   UNL     1       1.095   8.606  19.909  0.00  0.00    +0.000 OA
ENDROOT
BRANCH   1   7
ATOM      6  N   UNL     1       3.830   7.082  18.053  0.00  0.00    +0.000 N 
ATOM      7  C   UNL     1       2.850   7.146  19.023  0.00  0.00    +0.000 C 
ATOM      8  O   UNL     1       2.754   6.315  19.925  0.00  0.00    +0.000 OA
ATOM      9  H   UNL     1       3.811   7.779  17.320  0.00  0.00    +0.000 HD
BRANCH   6  10
ATOM     10  C   UNL     1       4.816   6.022  18.016  0.00  0.00    +0.000 C 
BRANCH  10  11
ATOM     11  C   UNL     1       4.961   5.435  16.613  0.00  0.00    +0.000 C 
BRANCH  11  12
ATOM     12  C   UNL     1       4.178   4.124  16.442  0.00  0.00    +0.000 C 
BRANCH  12  18
ATOM     13  C   UNL     1       3.346   2.669  20.519  0.00  0.00    +0.000 C 
ATOM     14  C   UNL     1       2.867   1.927  19.266  0.00  0.00    +0.000 C 
ATOM     15  C   UNL     1       1.367   2.134  19.027  0.00  0.00    +0.000 C 
ATOM     16  C   UNL     1       1.074   3.557  18.573  0.00  0.00    +0.000 C 
ATOM     17  C   UNL     1       1.938   3.947  17.375  0.00  0.00    +0.000 C 
ATOM     18  N   UNL     1       3.377   3.745  17.619  0.00  0.00    +0.000 NA
ATOM     19  C   UNL     1       3.657   2.353  18.013  0.00  0.00    +0.000 C 
ENDBRANCH  12  18
ENDBRANCH  11  12
ENDBRANCH  10  11
ENDBRANCH   6  10
ENDBRANCH   1   7
BRANCH   4  20
ATOM     20  C   UNL     1      -0.607  10.245  20.452  0.00  0.00    +0.000 C 
BRANCH  20  21
ATOM     21  S   UNL     1       0.191  11.400  21.561  0.00  0.00    +0.000 S 
ATOM     22  O   UNL     1      -0.126  10.946  22.906  0.00  0.00    +0.000 OA
ATOM     23  O   UNL     1       1.577  11.541  21.151  0.00  0.00    +0.000 OA
BRANCH  21  24
ATOM     24  C   UNL     1      -0.669  12.955  21.291  0.00  0.00    +0.000 C 
BRANCH  24  25
ATOM     25  C   UNL     1      -1.689  13.168  22.389  0.00  0.00    +0.000 A 
ATOM     26  C   UNL     1      -2.929  12.512  22.356  0.00  0.00    +0.000 A 
ATOM     27  C   UNL     1      -3.880  12.729  23.358  0.00  0.00    +0.000 A 
ATOM     28  C   UNL     1      -3.604  13.606  24.404  0.00  0.00    +0.000 A 
ATOM     29  C   UNL     1      -2.371  14.253  24.452  0.00  0.00    +0.000 A 
ATOM     30 CL   UNL     1      -2.032  15.342  25.741  0.00  0.00    +0.000 Cl
ATOM     31  C   UNL     1      -1.414  14.034  23.458  0.00  0.00    +0.000 A 
ENDBRANCH  24  25
ENDBRANCH  21  24
ENDBRANCH  20  21
ENDBRANCH   4  20
TORSDOF 9
ENDMDL
