MODEL 1
REMARK VINA RESULT:      -8.6      0.000      0.000
REMARK  Name = 
REMARK  5 active torsions:
REMARK  status: ('A' for Active; 'I' for Inactive)
REMARK    1  A    between atoms: C_1  and  C_2
REMARK    2  A    between atoms: N_12  and  C_13
REMARK    3  A    between atoms: C_13  and  C_14
REMARK    4  A    between atoms: N_16  and  C_17
REMARK    5  A    between atoms: C_17  and  C_18
REMARK                            x       y       z     vdW  Elec       q    Type
REMARK                         _______ _______ _______ _____ _____    ______ ____
ROOT
ATOM      1  C   UNL     1       3.401   6.340  17.887  0.00  0.00    +0.000 C 
ATOM      2  O   UNL     1       2.352   5.690  17.925  0.00  0.00    +0.000 OA
ATOM      3  N   UNL     1       3.384   7.708  17.704  0.00  0.00    +0.000 N 
ATOM      4  H   UNL     1       4.248   8.248  17.621  0.00  0.00    +0.000 HD
ENDROOT
BRANCH   1   5
ATOM      5  C   UNL     1       4.742   5.644  18.158  0.00  0.00    +0.000 C 
BRANCH   5  17
ATOM      6  C   UNL     1       7.289   7.085  17.723  0.00  0.00    +0.000 C 
ATOM      7  C   UNL     1       6.761   6.063  16.741  0.00  0.00    +0.000 A 
ATOM      8  N   UNL     1       7.456   5.926  15.651  0.00  0.00    +0.000 NA
ATOM      9  C   UNL     1       6.983   5.075  14.651  0.00  0.00    +0.000 A 
ATOM     10  C   UNL     1       7.698   4.985  13.452  0.00  0.00    +0.000 A 
ATOM     11  C   UNL     1       7.224   4.193  12.403  0.00  0.00    +0.000 A 
ATOM     12  C   UNL     1       6.031   3.486  12.548  0.00  0.00    +0.000 A 
ATOM     13  C   UNL     1       5.318   3.560  13.746  0.00  0.00    +0.000 A 
ATOM     14  C   UNL     1       5.805   4.354  14.789  0.00  0.00    +0.000 A 
ATOM     15  C   UNL     1       5.069   4.493  16.059  0.00  0.00    +0.000 A 
ATOM     16  O   UNL     1       4.031   3.858  16.239  0.00  0.00    +0.000 OA
ATOM     17  N   UNL     1       5.594   5.379  16.999  0.00  0.00    +0.000 N 
ENDBRANCH   5  17
ENDBRANCH   1   5
BRANCH   3  18
ATOM     18  C   UNL     1       2.091   8.370  17.639  0.00  0.00    +0.000 C 
BRANCH  18  19
ATOM     19  C   UNL     1       1.559   8.913  18.935  0.00  0.00    +0.000 A 
ATOM     20  N   UNL     1       1.544   8.321  20.111  0.00  0.00    +0.000 NA
ATOM     21  C   UNL     1       0.881   9.125  21.038  0.00  0.00    +0.000 A 
ATOM     22  C   UNL     1       0.608   8.789  22.380  0.00  0.00    +0.000 A 
ATOM     23  C   UNL     1      -0.134   9.665  23.187  0.00  0.00    +0.000 A 
ATOM     24  C   UNL     1      -0.562  10.890  22.688  0.00  0.00    +0.000 A 
ATOM     25  C   UNL     1      -0.267  11.270  21.376  0.00  0.00    +0.000 A 
ATOM     26  C   UNL     1       0.435  10.358  20.562  0.00  0.00    +0.000 A 
ATOM     27  S   UNL     1       0.869  10.500  18.906  0.00  0.00    +0.000 S 
ENDBRANCH  18  19
ENDBRANCH   3  18
TORSDOF 4
ENDMDL
MODEL 2
REMARK VINA RESULT:      -8.4      4.816      7.441
REMARK  Name = 
REMARK  5 active torsions:
REMARK  status: ('A' for Active; 'I' for Inactive)
REMARK    1  A    between atoms: C_1  and  C_2
REMARK    2  A    between atoms: N_12  and  C_13
REMARK    3  A    between atoms: C_13  and  C_14
REMARK    4  A    between atoms: N_16  and  C_17
REMARK    5  A    between atoms: C_17  and  C_18
REMARK                            x       y       z     vdW  Elec       q    Type
REMARK                         _______ _______ _______ _____ _____    ______ ____
ROOT
ATOM      1  C   UNL     1       7.303   7.155  17.407  0.00  0.00    +0.000 C 
ATOM      2  O   UNL     1       6.339   7.490  16.712  0.00  0.00    +0.000 OA
ATOM      3  N   UNL     1       8.097   8.100  18.025  0.00  0.00    +0.000 N 
ATOM      4  H   UNL     1       8.926   7.834  18.562  0.00  0.00    +0.000 HD
ENDROOT
BRANCH   1   5
ATOM      5  C   UNL     1       7.564   5.668  17.686  0.00  0.00    +0.000 C 
BRANCH   5  17
ATOM      6  C   UNL     1       6.679   4.426  15.151  0.00  0.00    +0.000 C 
ATOM      7  C   UNL     1       5.942   4.215  16.454  0.00  0.00    +0.000 A 
ATOM      8  N   UNL     1       4.843   3.525  16.369  0.00  0.00    +0.000 NA
ATOM      9  C   UNL     1       4.054   3.368  17.509  0.00  0.00    +0.000 A 
ATOM     10  C   UNL     1       2.839   2.684  17.396  0.00  0.00    +0.000 A 
ATOM     11  C   UNL     1       1.989   2.561  18.498  0.00  0.00    +0.000 A 
ATOM     12  C   UNL     1       2.353   3.121  19.722  0.00  0.00    +0.000 A 
ATOM     13  C   UNL     1       3.570   3.794  19.847  0.00  0.00    +0.000 A 
ATOM     14  C   UNL     1       4.411   3.908  18.737  0.00  0.00    +0.000 A 
ATOM     15  C   UNL     1       5.688   4.640  18.810  0.00  0.00    +0.000 A 
ATOM     16  O   UNL     1       6.060   5.119  19.881  0.00  0.00    +0.000 OA
ATOM     17  N   UNL     1       6.409   4.772  17.624  0.00  0.00    +0.000 N 
ENDBRANCH   5  17
ENDBRANCH   1   5
BRANCH   3  18
ATOM     18  C   UNL     1       7.715   9.497  17.899  0.00  0.00    +0.000 C 
BRANCH  18  19
ATOM     19  C   UNL     1       8.789  10.507  18.193  0.00  0.00    +0.000 A 
ATOM     20  N   UNL     1       9.909  10.320  18.857  0.00  0.00    +0.000 NA
ATOM     21  C   UNL     1      10.590  11.531  18.988  0.00  0.00    +0.000 A 
ATOM     22  C   UNL     1      11.790  11.734  19.700  0.00  0.00    +0.000 A 
ATOM     23  C   UNL     1      12.332  13.023  19.812  0.00  0.00    +0.000 A 
ATOM     24  C   UNL     1      11.720  14.102  19.183  0.00  0.00    +0.000 A 
ATOM     25  C   UNL     1      10.554  13.924  18.433  0.00  0.00    +0.000 A 
ATOM     26  C   UNL     1       9.993  12.632  18.371  0.00  0.00    +0.000 A 
ATOM     27  S   UNL     1       8.543  12.117  17.608  0.00  0.00    +0.000 S 
ENDBRANCH  18  19
ENDBRANCH   3  18
TORSDOF 4
ENDMDL
MODEL 3
REMARK VINA RESULT:      -8.3      4.765      7.233
REMARK  Name = 
REMARK  5 active torsions:
REMARK  status: ('A' for Active; 'I' for Inactive)
REMARK    1  A    between atoms: C_1  and  C_2
REMARK    2  A    between atoms: N_12  and  C_13
REMARK    3  A    between atoms: C_13  and  C_14
REMARK    4  A    between atoms: N_16  and  C_17
REMARK    5  A    between atoms: C_17  and  C_18
REMARK                            x       y       z     vdW  Elec       q    Type
REMARK                         _______ _______ _______ _____ _____    ______ ____
ROOT
ATOM      1  C   UNL     1       7.346   7.482  17.790  0.00  0.00    +0.000 C 
ATOM      2  O   UNL     1       7.892   6.627  18.494  0.00  0.00    +0.000 OA
ATOM      3  N   UNL     1       7.745   8.803  17.835  0.00  0.00    +0.000 N 
ATOM      4  H   UNL     1       7.267   9.525  17.293  0.00  0.00    +0.000 HD
ENDROOT
BRANCH   1   5
ATOM      5  C   UNL     1       6.285   7.062  16.763  0.00  0.00    +0.000 C 
BRANCH   5  17
ATOM      6  C   UNL     1       7.071   4.381  15.788  0.00  0.00    +0.000 C 
ATOM      7  C   UNL     1       5.814   4.610  16.597  0.00  0.00    +0.000 A 
ATOM      8  N   UNL     1       5.057   3.566  16.758  0.00  0.00    +0.000 NA
ATOM      9  C   UNL     1       3.831   3.715  17.409  0.00  0.00    +0.000 A 
ATOM     10  C   UNL     1       2.989   2.603  17.518  0.00  0.00    +0.000 A 
ATOM     11  C   UNL     1       1.727   2.725  18.106  0.00  0.00    +0.000 A 
ATOM     12  C   UNL     1       1.301   3.962  18.588  0.00  0.00    +0.000 A 
ATOM     13  C   UNL     1       2.140   5.074  18.495  0.00  0.00    +0.000 A 
ATOM     14  C   UNL     1       3.401   4.938  17.907  0.00  0.00    +0.000 A 
ATOM     15  C   UNL     1       4.307   6.090  17.753  0.00  0.00    +0.000 A 
ATOM     16  O   UNL     1       3.982   7.189  18.197  0.00  0.00    +0.000 OA
ATOM     17  N   UNL     1       5.504   5.864  17.073  0.00  0.00    +0.000 N 
ENDBRANCH   5  17
ENDBRANCH   1   5
BRANCH   3  18
ATOM     18  C   UNL     1       8.881   9.141  18.678  0.00  0.00    +0.000 C 
BRANCH  18  19
ATOM     19  C   UNL     1       9.152  10.607  18.867  0.00  0.00    +0.000 A 
ATOM     20  N   UNL     1       9.205  11.542  17.942  0.00  0.00    +0.000 NA
ATOM     21  C   UNL     1       9.573  12.758  18.518  0.00  0.00    +0.000 A 
ATOM     22  C   UNL     1       9.800  13.966  17.828  0.00  0.00    +0.000 A 
ATOM     23  C   UNL     1      10.237  15.103  18.525  0.00  0.00    +0.000 A 
ATOM     24  C   UNL     1      10.402  15.063  19.905  0.00  0.00    +0.000 A 
ATOM     25  C   UNL     1      10.141  13.892  20.622  0.00  0.00    +0.000 A 
ATOM     26  C   UNL     1       9.751  12.744  19.902  0.00  0.00    +0.000 A 
ATOM     27  S   UNL     1       9.442  11.157  20.482  0.00  0.00    +0.000 S 
ENDBRANCH  18  19
ENDBRANCH   3  18
TORSDOF 4
ENDMDL
MODEL 4
REMARK VINA RESULT:      -8.2      3.755      9.075
REMARK  Name = 
REMARK  5 active torsions:
REMARK  status: ('A' for Active; 'I' for Inactive)
REMARK    1  A    between atoms: C_1  and  C_2
REMARK    2  A    between atoms: N_12  and  C_13
REMARK    3  A    between atoms: C_13  and  C_14
REMARK    4  A    between atoms: N_16  and  C_17
REMARK    5  A    between atoms: C_17  and  C_18
REMARK                            x       y       z     vdW  Elec       q    Type
REMARK                         _______ _______ _______ _____ _____    ______ ____
ROOT
ATOM      1  C   UNL     1       0.660   9.339  21.243  0.00  0.00    +0.000 C 
ATOM      2  O   UNL     1      -0.095   9.075  22.183  0.00  0.00    +0.000 OA
ATOM      3  N   UNL     1       1.446   8.362  20.664  0.00  0.00    +0.000 N 
ATOM      4  H   UNL     1       2.110   8.581  19.919  0.00  0.00    +0.000 HD
ENDROOT
BRANCH   1   5
ATOM      5  C   UNL     1       0.650  10.745  20.627  0.00  0.00    +0.000 C 
BRANCH   5  17
ATOM      6  C   UNL     1      -1.490  12.489  21.691  0.00  0.00    +0.000 C 
ATOM      7  C   UNL     1      -1.558  11.878  20.309  0.00  0.00    +0.000 A 
ATOM      8  N   UNL     1      -2.660  12.098  19.656  0.00  0.00    +0.000 NA
ATOM      9  C   UNL     1      -2.842  11.488  18.414  0.00  0.00    +0.000 A 
ATOM     10  C   UNL     1      -4.058  11.671  17.747  0.00  0.00    +0.000 A 
ATOM     11  C   UNL     1      -4.304  11.026  16.532  0.00  0.00    +0.000 A 
ATOM     12  C   UNL     1      -3.333  10.194  15.977  0.00  0.00    +0.000 A 
ATOM     13  C   UNL     1      -2.112  10.016  16.629  0.00  0.00    +0.000 A 
ATOM     14  C   UNL     1      -1.877  10.669  17.843  0.00  0.00    +0.000 A 
ATOM     15  C   UNL     1      -0.619  10.483  18.587  0.00  0.00    +0.000 A 
ATOM     16  O   UNL     1       0.276   9.785  18.113  0.00  0.00    +0.000 OA
ATOM     17  N   UNL     1      -0.522  11.108  19.830  0.00  0.00    +0.000 N 
ENDBRANCH   5  17
ENDBRANCH   1   5
BRANCH   3  18
ATOM     18  C   UNL     1       1.296   6.997  21.143  0.00  0.00    +0.000 C 
BRANCH  18  19
ATOM     19  C   UNL     1       1.972   5.931  20.327  0.00  0.00    +0.000 A 
ATOM     20  N   UNL     1       2.792   6.094  19.311  0.00  0.00    +0.000 NA
ATOM     21  C   UNL     1       3.128   4.852  18.770  0.00  0.00    +0.000 A 
ATOM     22  C   UNL     1       3.927   4.636  17.629  0.00  0.00    +0.000 A 
ATOM     23  C   UNL     1       4.128   3.333  17.149  0.00  0.00    +0.000 A 
ATOM     24  C   UNL     1       3.584   2.243  17.820  0.00  0.00    +0.000 A 
ATOM     25  C   UNL     1       2.825   2.424  18.979  0.00  0.00    +0.000 A 
ATOM     26  C   UNL     1       2.589   3.742  19.421  0.00  0.00    +0.000 A 
ATOM     27  S   UNL     1       1.641   4.285  20.746  0.00  0.00    +0.000 S 
ENDBRANCH  18  19
ENDBRANCH   3  18
TORSDOF 4
ENDMDL
MODEL 5
REMARK VINA RESULT:      -8.1      4.444      7.065
REMARK  Name = 
REMARK  5 active torsions:
REMARK  status: ('A' for Active; 'I' for Inactive)
REMARK    1  A    between atoms: C_1  and  C_2
REMARK    2  A    between atoms: N_12  and  C_13
REMARK    3  A    between atoms: C_13  and  C_14
REMARK    4  A    between atoms: N_16  and  C_17
REMARK    5  A    between atoms: C_17  and  C_18
REMARK                            x       y       z     vdW  Elec       q    Type
REMARK                         _______ _______ _______ _____ _____    ______ ____
ROOT
ATOM      1  C   UNL     1       6.675   6.989  17.396  0.00  0.00    +0.000 C 
ATOM      2  O   UNL     1       7.157   6.131  18.142  0.00  0.00    +0.000 OA
ATOM      3  N   UNL     1       7.201   8.264  17.344  0.00  0.00    +0.000 N 
ATOM      4  H   UNL     1       6.778   8.994  16.767  0.00  0.00    +0.000 HD
ENDROOT
BRANCH   1   5
ATOM      5  C   UNL     1       5.547   6.610  16.426  0.00  0.00    +0.000 C 
BRANCH   5  17
ATOM      6  C   UNL     1       3.310   8.054  17.716  0.00  0.00    +0.000 C 
ATOM      7  C   UNL     1       3.361   6.544  17.642  0.00  0.00    +0.000 A 
ATOM      8  N   UNL     1       2.402   5.922  18.260  0.00  0.00    +0.000 NA
ATOM      9  C   UNL     1       2.431   4.529  18.322  0.00  0.00    +0.000 A 
ATOM     10  C   UNL     1       1.435   3.867  19.049  0.00  0.00    +0.000 A 
ATOM     11  C   UNL     1       1.463   2.477  19.188  0.00  0.00    +0.000 A 
ATOM     12  C   UNL     1       2.491   1.740  18.599  0.00  0.00    +0.000 A 
ATOM     13  C   UNL     1       3.481   2.391  17.861  0.00  0.00    +0.000 A 
ATOM     14  C   UNL     1       3.439   3.782  17.728  0.00  0.00    +0.000 A 
ATOM     15  C   UNL     1       4.483   4.516  16.990  0.00  0.00    +0.000 A 
ATOM     16  O   UNL     1       5.385   3.899  16.427  0.00  0.00    +0.000 OA
ATOM     17  N   UNL     1       4.396   5.908  16.993  0.00  0.00    +0.000 N 
ENDBRANCH   5  17
ENDBRANCH   1   5
BRANCH   3  18
ATOM     18  C   UNL     1       8.389   8.542  18.134  0.00  0.00    +0.000 C 
BRANCH  18  19
ATOM     19  C   UNL     1       8.680   9.991  18.406  0.00  0.00    +0.000 A 
ATOM     20  N   UNL     1       8.399  11.026  17.643  0.00  0.00    +0.000 NA
ATOM     21  C   UNL     1       8.917  12.189  18.212  0.00  0.00    +0.000 A 
ATOM     22  C   UNL     1       8.874  13.479  17.644  0.00  0.00    +0.000 A 
ATOM     23  C   UNL     1       9.499  14.554  18.293  0.00  0.00    +0.000 A 
ATOM     24  C   UNL     1      10.122  14.369  19.523  0.00  0.00    +0.000 A 
ATOM     25  C   UNL     1      10.141  13.112  20.132  0.00  0.00    +0.000 A 
ATOM     26  C   UNL     1       9.553  12.030  19.444  0.00  0.00    +0.000 A 
ATOM     27  S   UNL     1       9.489  10.373  19.888  0.00  0.00    +0.000 S 
ENDBRANCH  18  19
ENDBRANCH   3  18
TORSDOF 4
ENDMDL
MODEL 6
REMARK VINA RESULT:      -8.0      4.370      7.180
REMARK  Name = 
REMARK  5 active torsions:
REMARK  status: ('A' for Active; 'I' for Inactive)
REMARK    1  A    between atoms: C_1  and  C_2
REMARK    2  A    between atoms: N_12  and  C_13
REMARK    3  A    between atoms: C_13  and  C_14
REMARK    4  A    between atoms: N_16  and  C_17
REMARK    5  A    between atoms: C_17  and  C_18
REMARK                            x       y       z     vdW  Elec       q    Type
REMARK                         _______ _______ _______ _____ _____    ______ ____
ROOT
ATOM      1  C   UNL     1       6.620   6.964  16.903  0.00  0.00    +0.000 C 
ATOM      2  O   UNL     1       7.542   6.316  16.401  0.00  0.00    +0.000 OA
ATOM      3  N   UNL     1       6.873   8.025  17.750  0.00  0.00    +0.000 N 
ATOM      4  H   UNL     1       6.116   8.536  18.209  0.00  0.00    +0.000 HD
ENDROOT
BRANCH   1   5
ATOM      5  C   UNL     1       5.169   6.667  16.499  0.00  0.00    +0.000 C 
BRANCH   5  17
ATOM      6  C   UNL     1       5.507   3.879  15.567  0.00  0.00    +0.000 C 
ATOM      7  C   UNL     1       4.612   4.238  16.732  0.00  0.00    +0.000 A 
ATOM      8  N   UNL     1       3.933   3.253  17.239  0.00  0.00    +0.000 NA
ATOM      9  C   UNL     1       3.011   3.518  18.253  0.00  0.00    +0.000 A 
ATOM     10  C   UNL     1       2.233   2.466  18.747  0.00  0.00    +0.000 A 
ATOM     11  C   UNL     1       1.255   2.701  19.716  0.00  0.00    +0.000 A 
ATOM     12  C   UNL     1       1.051   3.994  20.199  0.00  0.00    +0.000 A 
ATOM     13  C   UNL     1       1.832   5.048  19.721  0.00  0.00    +0.000 A 
ATOM     14  C   UNL     1       2.809   4.798  18.753  0.00  0.00    +0.000 A 
ATOM     15  C   UNL     1       3.632   5.884  18.192  0.00  0.00    +0.000 A 
ATOM     16  O   UNL     1       3.507   7.031  18.617  0.00  0.00    +0.000 OA
ATOM     17  N   UNL     1       4.515   5.541  17.167  0.00  0.00    +0.000 N 
ENDBRANCH   5  17
ENDBRANCH   1   5
BRANCH   3  18
ATOM     18  C   UNL     1       8.260   8.406  17.966  0.00  0.00    +0.000 C 
BRANCH  18  19
ATOM     19  C   UNL     1       8.512   9.862  18.236  0.00  0.00    +0.000 A 
ATOM     20  N   UNL     1       8.127  10.894  17.516  0.00  0.00    +0.000 NA
ATOM     21  C   UNL     1       8.642  12.070  18.060  0.00  0.00    +0.000 A 
ATOM     22  C   UNL     1       8.499  13.364  17.518  0.00  0.00    +0.000 A 
ATOM     23  C   UNL     1       9.131  14.457  18.131  0.00  0.00    +0.000 A 
ATOM     24  C   UNL     1       9.861  14.282  19.302  0.00  0.00    +0.000 A 
ATOM     25  C   UNL     1       9.982  13.019  19.887  0.00  0.00    +0.000 A 
ATOM     26  C   UNL     1       9.384  11.923  19.232  0.00  0.00    +0.000 A 
ATOM     27  S   UNL     1       9.425  10.258  19.653  0.00  0.00    +0.000 S 
ENDBRANCH  18  19
ENDBRANCH   3  18
TORSDOF 4
ENDMDL
MODEL 7
REMARK VINA RESULT:      -8.0      4.032      8.953
REMARK  Name = 
REMARK  5 active torsions:
REMARK  status: ('A' for Active; 'I' for Inactive)
REMARK    1  A    between atoms: C_1  and  C_2
REMARK    2  A    between atoms: N_12  and  C_13
REMARK    3  A    between atoms: C_13  and  C_14
REMARK    4  A    between atoms: N_16  and  C_17
REMARK    5  A    between atoms: C_17  and  C_18
REMARK                            x       y       z     vdW  Elec       q    Type
REMARK                         _______ _______ _______ _____ _____    ______ ____
ROOT
ATOM      1  C   UNL     1       0.652   9.087  21.050  0.00  0.00    +0.000 C 
ATOM      2  O   UNL     1      -0.315   8.813  21.768  0.00  0.00    +0.000 OA
ATOM      3  N   UNL     1       1.614   8.141  20.759  0.00  0.00    +0.000 N 
ATOM      4  H   UNL     1       2.443   8.372  20.207  0.00  0.00    +0.000 HD
ENDROOT
BRANCH   1   5
ATOM      5  C   UNL     1       0.737  10.464  20.376  0.00  0.00    +0.000 C 
BRANCH   5  17
ATOM      6  C   UNL     1      -1.292  12.278  21.538  0.00  0.00    +0.000 C 
ATOM      7  C   UNL     1      -1.423  11.707  20.144  0.00  0.00    +0.000 A 
ATOM      8  N   UNL     1      -2.529  11.994  19.524  0.00  0.00    +0.000 NA
ATOM      9  C   UNL     1      -2.769  11.425  18.273  0.00  0.00    +0.000 A 
ATOM     10  C   UNL     1      -3.991  11.682  17.642  0.00  0.00    +0.000 A 
ATOM     11  C   UNL     1      -4.297  11.081  16.418  0.00  0.00    +0.000 A 
ATOM     12  C   UNL     1      -3.380  10.219  15.818  0.00  0.00    +0.000 A 
ATOM     13  C   UNL     1      -2.153   9.967  16.434  0.00  0.00    +0.000 A 
ATOM     14  C   UNL     1      -1.859  10.577  17.657  0.00  0.00    +0.000 A 
ATOM     15  C   UNL     1      -0.592  10.314  18.364  0.00  0.00    +0.000 A 
ATOM     16  O   UNL     1       0.257   9.587  17.851  0.00  0.00    +0.000 OA
ATOM     17  N   UNL     1      -0.436  10.902  19.619  0.00  0.00    +0.000 N 
ENDBRANCH   5  17
ENDBRANCH   1   5
BRANCH   3  18
ATOM     18  C   UNL     1       1.410   6.790  21.255  0.00  0.00    +0.000 C 
BRANCH  18  19
ATOM     19  C   UNL     1       1.872   5.677  20.357  0.00  0.00    +0.000 A 
ATOM     20  N   UNL     1       1.791   4.381  20.572  0.00  0.00    +0.000 NA
ATOM     21  C   UNL     1       2.416   3.688  19.535  0.00  0.00    +0.000 A 
ATOM     22  C   UNL     1       2.589   2.291  19.460  0.00  0.00    +0.000 A 
ATOM     23  C   UNL     1       3.303   1.728  18.392  0.00  0.00    +0.000 A 
ATOM     24  C   UNL     1       3.802   2.535  17.375  0.00  0.00    +0.000 A 
ATOM     25  C   UNL     1       3.607   3.918  17.399  0.00  0.00    +0.000 A 
ATOM     26  C   UNL     1       2.932   4.475  18.505  0.00  0.00    +0.000 A 
ATOM     27  S   UNL     1       2.613   6.125  18.858  0.00  0.00    +0.000 S 
ENDBRANCH  18  19
ENDBRANCH   3  18
TORSDOF 4
ENDMDL
MODEL 8
REMARK VINA RESULT:      -8.0      4.663      6.825
REMARK  Name = 
REMARK  5 active torsions:
REMARK  status: ('A' for Active; 'I' for Inactive)
REMARK    1  A    between atoms: C_1  and  C_2
REMARK    2  A    between atoms: N_12  and  C_13
REMARK    3  A    between atoms: C_13  and  C_14
REMARK    4  A    between atoms: N_16  and  C_17
REMARK    5  A    between atoms: C_17  and  C_18
REMARK                            x       y       z     vdW  Elec       q    Type
REMARK                         _______ _______ _______ _____ _____    ______ ____
ROOT
ATOM      1  C   UNL     1       7.256   7.357  17.769  0.00  0.00    +0.000 C 
ATOM      2  O   UNL     1       7.835   6.449  18.371  0.00  0.00    +0.000 OA
ATOM      3  N   UNL     1       7.706   8.661  17.843  0.00  0.00    +0.000 N 
ATOM      4  H   UNL     1       7.204   9.427  17.388  0.00  0.00    +0.000 HD
ENDROOT
BRANCH   1   5
ATOM      5  C   UNL     1       6.085   7.028  16.832  0.00  0.00    +0.000 C 
BRANCH   5  17
ATOM      6  C   UNL     1       6.804   4.426  15.622  0.00  0.00    +0.000 C 
ATOM      7  C   UNL     1       5.611   4.589  16.537  0.00  0.00    +0.000 A 
ATOM      8  N   UNL     1       4.872   3.530  16.685  0.00  0.00    +0.000 NA
ATOM      9  C   UNL     1       3.699   3.624  17.435  0.00  0.00    +0.000 A 
ATOM     10  C   UNL     1       2.872   2.500  17.533  0.00  0.00    +0.000 A 
ATOM     11  C   UNL     1       1.658   2.572  18.221  0.00  0.00    +0.000 A 
ATOM     12  C   UNL     1       1.265   3.770  18.817  0.00  0.00    +0.000 A 
ATOM     13  C   UNL     1       2.091   4.892  18.736  0.00  0.00    +0.000 A 
ATOM     14  C   UNL     1       3.304   4.807  18.046  0.00  0.00    +0.000 A 
ATOM     15  C   UNL     1       4.191   5.974  17.902  0.00  0.00    +0.000 A 
ATOM     16  O   UNL     1       3.897   7.039  18.442  0.00  0.00    +0.000 OA
ATOM     17  N   UNL     1       5.334   5.806  17.119  0.00  0.00    +0.000 N 
ENDBRANCH   5  17
ENDBRANCH   1   5
BRANCH   3  18
ATOM     18  C   UNL     1       8.930   8.916  18.584  0.00  0.00    +0.000 C 
BRANCH  18  19
ATOM     19  C   UNL     1       9.113  10.316  19.099  0.00  0.00    +0.000 A 
ATOM     20  N   UNL     1       9.414  10.691  20.323  0.00  0.00    +0.000 NA
ATOM     21  C   UNL     1       9.401  12.084  20.409  0.00  0.00    +0.000 A 
ATOM     22  C   UNL     1       9.606  12.843  21.580  0.00  0.00    +0.000 A 
ATOM     23  C   UNL     1       9.495  14.241  21.539  0.00  0.00    +0.000 A 
ATOM     24  C   UNL     1       9.232  14.892  20.339  0.00  0.00    +0.000 A 
ATOM     25  C   UNL     1       9.070  14.169  19.154  0.00  0.00    +0.000 A 
ATOM     26  C   UNL     1       9.134  12.762  19.220  0.00  0.00    +0.000 A 
ATOM     27  S   UNL     1       8.897  11.610  17.969  0.00  0.00    +0.000 S 
ENDBRANCH  18  19
ENDBRANCH   3  18
TORSDOF 4
ENDMDL
MODEL 9
REMARK VINA RESULT:      -7.8      1.739      2.315
REMARK  Name = 
REMARK  5 active torsions:
REMARK  status: ('A' for Active; 'I' for Inactive)
REMARK    1  A    between atoms: C_1  and  C_2
REMARK    2  A    between atoms: N_12  and  C_13
REMARK    3  A    between atoms: C_13  and  C_14
REMARK    4  A    between atoms: N_16  and  C_17
REMARK    5  A    between atoms: C_17  and  C_18
REMARK                            x       y       z     vdW  Elec       q    Type
REMARK                         _______ _______ _______ _____ _____    ______ ____
ROOT
ATOM      1  C   UNL     1       3.672   5.906  18.237  0.00  0.00    +0.000 C 
ATOM      2  O   UNL     1       2.753   5.182  18.629  0.00  0.00    +0.000 OA
ATOM      3  N   UNL     1       3.426   7.184  17.777  0.00  0.00    +0.000 N 
ATOM      4  H   UNL     1       4.174   7.773  17.404  0.00  0.00    +0.000 HD
ENDROOT
BRANCH   1   5
ATOM      5  C   UNL     1       5.127   5.431  18.365  0.00  0.00    +0.000 C 
BRANCH   5  17
ATOM      6  C   UNL     1       7.555   7.002  17.742  0.00  0.00    +0.000 C 
ATOM      7  C   UNL     1       6.977   5.991  16.777  0.00  0.00    +0.000 A 
ATOM      8  N   UNL     1       7.567   5.924  15.621  0.00  0.00    +0.000 NA
ATOM      9  C   UNL     1       7.035   5.087  14.639  0.00  0.00    +0.000 A 
ATOM     10  C   UNL     1       7.633   5.070  13.374  0.00  0.00    +0.000 A 
ATOM     11  C   UNL     1       7.093   4.294  12.345  0.00  0.00    +0.000 A 
ATOM     12  C   UNL     1       5.951   3.528  12.578  0.00  0.00    +0.000 A 
ATOM     13  C   UNL     1       5.357   3.528  13.841  0.00  0.00    +0.000 A 
ATOM     14  C   UNL     1       5.908   4.307  14.862  0.00  0.00    +0.000 A 
ATOM     15  C   UNL     1       5.295   4.368  16.201  0.00  0.00    +0.000 A 
ATOM     16  O   UNL     1       4.308   3.680  16.456  0.00  0.00    +0.000 OA
ATOM     17  N   UNL     1       5.872   5.245  17.120  0.00  0.00    +0.000 N 
ENDBRANCH   5  17
ENDBRANCH   1   5
BRANCH   3  18
ATOM     18  C   UNL     1       2.060   7.679  17.844  0.00  0.00    +0.000 C 
BRANCH  18  19
ATOM     19  C   UNL     1       1.901   9.146  18.130  0.00  0.00    +0.000 A 
ATOM     20  N   UNL     1       2.587  10.145  17.619  0.00  0.00    +0.000 NA
ATOM     21  C   UNL     1       2.192  11.344  18.213  0.00  0.00    +0.000 A 
ATOM     22  C   UNL     1       2.756  12.613  17.970  0.00  0.00    +0.000 A 
ATOM     23  C   UNL     1       2.309  13.731  18.692  0.00  0.00    +0.000 A 
ATOM     24  C   UNL     1       1.276  13.606  19.614  0.00  0.00    +0.000 A 
ATOM     25  C   UNL     1       0.667  12.370  19.843  0.00  0.00    +0.000 A 
ATOM     26  C   UNL     1       1.161  11.247  19.148  0.00  0.00    +0.000 A 
ATOM     27  S   UNL     1       0.682   9.602  19.272  0.00  0.00    +0.000 S 
ENDBRANCH  18  19
ENDBRANCH   3  18
TORSDOF 4
ENDMDL
