MODEL 1
REMARK VINA RESULT:      -8.1      0.000      0.000
REMARK  Name = 
REMARK  3 active torsions:
REMARK  status: ('A' for Active; 'I' for Inactive)
REMARK    1  A    between atoms: C_5  and  N_6
REMARK    2  A    between atoms: N_6  and  C_7
REMARK    3  A    between atoms: C_15  and  C_16
REMARK                            x       y       z     vdW  Elec       q    Type
REMARK                         _______ _______ _______ _____ _____    ______ ____
ROOT
ATOM      1  O   UNL     1       6.677   4.421  18.797  0.00  0.00    +0.000 OA
ATOM      2  C   UNL     1       6.510   4.433  17.583  0.00  0.00    +0.000 A 
ATOM      3  N   UNL     1       7.527   4.771  16.724  0.00  0.00    +0.000 N 
ATOM      4  C   UNL     1       7.394   4.834  15.363  0.00  0.00    +0.000 A 
ATOM      5  C   UNL     1       6.226   4.564  14.750  0.00  0.00    +0.000 A 
ATOM      6  C   UNL     1       5.109   4.155  15.590  0.00  0.00    +0.000 A 
ATOM      7  C   UNL     1       5.200   4.095  16.934  0.00  0.00    +0.000 A 
ATOM      8  H   UNL     1       8.413   4.989  17.161  0.00  0.00    +0.000 HD
ENDROOT
BRANCH   7   9
ATOM      9  C   UNL     1       4.033   3.731  17.738  0.00  0.00    +0.000 A 
ATOM     10  C   UNL     1       3.576   2.406  17.817  0.00  0.00    +0.000 A 
ATOM     11  C   UNL     1       2.468   2.084  18.597  0.00  0.00    +0.000 A 
ATOM     12  C   UNL     1       1.785   3.068  19.319  0.00  0.00    +0.000 A 
ATOM     13  C   UNL     1       2.250   4.385  19.227  0.00  0.00    +0.000 A 
ATOM     14  N   UNL     1       1.773   5.535  19.818  0.00  0.00    +0.000 N 
ATOM     15  C   UNL     1       2.540   6.609  19.453  0.00  0.00    +0.000 A 
ATOM     16  C   UNL     1       3.523   6.155  18.606  0.00  0.00    +0.000 A 
ATOM     17  C   UNL     1       3.357   4.746  18.453  0.00  0.00    +0.000 A 
ATOM     18  H   UNL     1       0.969   5.573  20.428  0.00  0.00    +0.000 HD
ENDBRANCH   7   9
BRANCH   5  19
ATOM     19  N   UNL     1       6.033   4.623  13.387  0.00  0.00    +0.000 N 
ATOM     20  H   UNL     1       6.130   5.543  12.961  0.00  0.00    +0.000 HD
BRANCH  19  21
ATOM     21  C   UNL     1       6.210   3.571  12.457  0.00  0.00    +0.000 A 
ATOM     22  C   UNL     1       7.471   3.100  12.063  0.00  0.00    +0.000 A 
ATOM     23  C   UNL     1       7.597   2.001  11.207  0.00  0.00    +0.000 A 
ATOM     24  C   UNL     1       6.463   1.345  10.735  0.00  0.00    +0.000 A 
ATOM     25  C   UNL     1       5.200   1.798  11.108  0.00  0.00    +0.000 A 
ATOM     26  C   UNL     1       5.084   2.895  11.960  0.00  0.00    +0.000 A 
ATOM     27  F   UNL     1       3.856   3.314  12.307  0.00  0.00    +0.000 F 
ENDBRANCH  19  21
ENDBRANCH   5  19
TORSDOF 3
ENDMDL
MODEL 2
REMARK VINA RESULT:      -8.1      4.767      7.811
REMARK  Name = 
REMARK  3 active torsions:
REMARK  status: ('A' for Active; 'I' for Inactive)
REMARK    1  A    between atoms: C_5  and  N_6
REMARK    2  A    between atoms: N_6  and  C_7
REMARK    3  A    between atoms: C_15  and  C_16
REMARK                            x       y       z     vdW  Elec       q    Type
REMARK                         _______ _______ _______ _____ _____    ______ ____
ROOT
ATOM      1  O   UNL     1       0.585   9.761  21.757  0.00  0.00    +0.000 OA
ATOM      2  C   UNL     1       1.069   9.082  20.860  0.00  0.00    +0.000 A 
ATOM      3  N   UNL     1       1.578   7.830  21.105  0.00  0.00    +0.000 N 
ATOM      4  C   UNL     1       2.160   7.037  20.153  0.00  0.00    +0.000 A 
ATOM      5  C   UNL     1       2.281   7.437  18.873  0.00  0.00    +0.000 A 
ATOM      6  C   UNL     1       1.726   8.737  18.523  0.00  0.00    +0.000 A 
ATOM      7  C   UNL     1       1.157   9.550  19.437  0.00  0.00    +0.000 A 
ATOM      8  H   UNL     1       1.509   7.511  22.063  0.00  0.00    +0.000 HD
ENDROOT
BRANCH   7   9
ATOM      9  C   UNL     1       0.663  10.870  19.047  0.00  0.00    +0.000 A 
ATOM     10  C   UNL     1       1.463  12.019  19.156  0.00  0.00    +0.000 A 
ATOM     11  C   UNL     1       0.971  13.263  18.768  0.00  0.00    +0.000 A 
ATOM     12  C   UNL     1      -0.324  13.400  18.263  0.00  0.00    +0.000 A 
ATOM     13  C   UNL     1      -1.111  12.247  18.163  0.00  0.00    +0.000 A 
ATOM     14  N   UNL     1      -2.404  12.094  17.713  0.00  0.00    +0.000 N 
ATOM     15  C   UNL     1      -2.780  10.780  17.787  0.00  0.00    +0.000 A 
ATOM     16  C   UNL     1      -1.722  10.069  18.302  0.00  0.00    +0.000 A 
ATOM     17  C   UNL     1      -0.653  10.982  18.544  0.00  0.00    +0.000 A 
ATOM     18  H   UNL     1      -2.987  12.849  17.381  0.00  0.00    +0.000 HD
ENDBRANCH   7   9
BRANCH   5  19
ATOM     19  N   UNL     1       2.867   6.686  17.877  0.00  0.00    +0.000 N 
ATOM     20  H   UNL     1       3.457   7.195  17.222  0.00  0.00    +0.000 HD
BRANCH  19  21
ATOM     21  C   UNL     1       3.167   5.304  17.920  0.00  0.00    +0.000 A 
ATOM     22  C   UNL     1       4.413   4.801  18.321  0.00  0.00    +0.000 A 
ATOM     23  C   UNL     1       4.636   3.425  18.431  0.00  0.00    +0.000 A 
ATOM     24  C   UNL     1       3.613   2.523  18.150  0.00  0.00    +0.000 A 
ATOM     25  C   UNL     1       2.368   2.998  17.744  0.00  0.00    +0.000 A 
ATOM     26  C   UNL     1       2.156   4.371  17.636  0.00  0.00    +0.000 A 
ATOM     27  F   UNL     1       0.947   4.806  17.244  0.00  0.00    +0.000 F 
ENDBRANCH  19  21
ENDBRANCH   5  19
TORSDOF 3
ENDMDL
MODEL 3
REMARK VINA RESULT:      -8.1      4.846      7.996
REMARK  Name = 
REMARK  3 active torsions:
REMARK  status: ('A' for Active; 'I' for Inactive)
REMARK    1  A    between atoms: C_5  and  N_6
REMARK    2  A    between atoms: N_6  and  C_7
REMARK    3  A    between atoms: C_15  and  C_16
REMARK                            x       y       z     vdW  Elec       q    Type
REMARK                         _______ _______ _______ _____ _____    ______ ____
ROOT
ATOM      1  O   UNL     1       0.435   9.877  21.810  0.00  0.00    +0.000 OA
ATOM      2  C   UNL     1       0.952   9.183  20.942  0.00  0.00    +0.000 A 
ATOM      3  N   UNL     1       1.459   7.939  21.228  0.00  0.00    +0.000 N 
ATOM      4  C   UNL     1       2.075   7.131  20.312  0.00  0.00    +0.000 A 
ATOM      5  C   UNL     1       2.235   7.506  19.029  0.00  0.00    +0.000 A 
ATOM      6  C   UNL     1       1.685   8.796  18.635  0.00  0.00    +0.000 A 
ATOM      7  C   UNL     1       1.084   9.624  19.515  0.00  0.00    +0.000 A 
ATOM      8  H   UNL     1       1.360   7.639  22.190  0.00  0.00    +0.000 HD
ENDROOT
BRANCH   7   9
ATOM      9  C   UNL     1       0.596  10.933  19.082  0.00  0.00    +0.000 A 
ATOM     10  C   UNL     1       1.393  12.085  19.177  0.00  0.00    +0.000 A 
ATOM     11  C   UNL     1       0.908  13.319  18.749  0.00  0.00    +0.000 A 
ATOM     12  C   UNL     1      -0.378  13.442  18.216  0.00  0.00    +0.000 A 
ATOM     13  C   UNL     1      -1.163  12.285  18.132  0.00  0.00    +0.000 A 
ATOM     14  N   UNL     1      -2.448  12.120  17.663  0.00  0.00    +0.000 N 
ATOM     15  C   UNL     1      -2.824  10.808  17.764  0.00  0.00    +0.000 A 
ATOM     16  C   UNL     1      -1.776  10.111  18.315  0.00  0.00    +0.000 A 
ATOM     17  C   UNL     1      -0.711  11.031  18.553  0.00  0.00    +0.000 A 
ATOM     18  H   UNL     1      -3.025  12.866  17.301  0.00  0.00    +0.000 HD
ENDBRANCH   7   9
BRANCH   5  19
ATOM     19  N   UNL     1       2.857   6.739  18.067  0.00  0.00    +0.000 N 
ATOM     20  H   UNL     1       3.564   7.211  17.508  0.00  0.00    +0.000 HD
BRANCH  19  21
ATOM     21  C   UNL     1       3.017   5.333  18.075  0.00  0.00    +0.000 A 
ATOM     22  C   UNL     1       2.012   4.445  17.665  0.00  0.00    +0.000 A 
ATOM     23  C   UNL     1       2.244   3.067  17.608  0.00  0.00    +0.000 A 
ATOM     24  C   UNL     1       3.491   2.550  17.951  0.00  0.00    +0.000 A 
ATOM     25  C   UNL     1       4.503   3.412  18.367  0.00  0.00    +0.000 A 
ATOM     26  C   UNL     1       4.262   4.784  18.423  0.00  0.00    +0.000 A 
ATOM     27  F   UNL     1       5.252   5.596  18.825  0.00  0.00    +0.000 F 
ENDBRANCH  19  21
ENDBRANCH   5  19
TORSDOF 3
ENDMDL
MODEL 4
REMARK VINA RESULT:      -8.0      3.697      7.797
REMARK  Name = 
REMARK  3 active torsions:
REMARK  status: ('A' for Active; 'I' for Inactive)
REMARK    1  A    between atoms: C_5  and  N_6
REMARK    2  A    between atoms: N_6  and  C_7
REMARK    3  A    between atoms: C_15  and  C_16
REMARK                            x       y       z     vdW  Elec       q    Type
REMARK                         _______ _______ _______ _____ _____    ______ ____
ROOT
ATOM      1  O   UNL     1       2.895   2.183  18.641  0.00  0.00    +0.000 OA
ATOM      2  C   UNL     1       2.682   3.285  19.133  0.00  0.00    +0.000 A 
ATOM      3  N   UNL     1       1.681   3.475  20.055  0.00  0.00    +0.000 N 
ATOM      4  C   UNL     1       1.373   4.685  20.615  0.00  0.00    +0.000 A 
ATOM      5  C   UNL     1       2.045   5.807  20.296  0.00  0.00    +0.000 A 
ATOM      6  C   UNL     1       3.151   5.681  19.357  0.00  0.00    +0.000 A 
ATOM      7  C   UNL     1       3.474   4.507  18.775  0.00  0.00    +0.000 A 
ATOM      8  H   UNL     1       1.154   2.648  20.303  0.00  0.00    +0.000 HD
ENDROOT
BRANCH   7   9
ATOM      9  C   UNL     1       4.559   4.442  17.796  0.00  0.00    +0.000 A 
ATOM     10  C   UNL     1       4.346   3.975  16.489  0.00  0.00    +0.000 A 
ATOM     11  C   UNL     1       5.394   3.932  15.573  0.00  0.00    +0.000 A 
ATOM     12  C   UNL     1       6.679   4.350  15.929  0.00  0.00    +0.000 A 
ATOM     13  C   UNL     1       6.878   4.810  17.237  0.00  0.00    +0.000 A 
ATOM     14  N   UNL     1       8.023   5.270  17.850  0.00  0.00    +0.000 N 
ATOM     15  C   UNL     1       7.758   5.621  19.146  0.00  0.00    +0.000 A 
ATOM     16  C   UNL     1       6.427   5.378  19.384  0.00  0.00    +0.000 A 
ATOM     17  C   UNL     1       5.851   4.865  18.184  0.00  0.00    +0.000 A 
ATOM     18  H   UNL     1       8.926   5.331  17.401  0.00  0.00    +0.000 HD
ENDBRANCH   7   9
BRANCH   5  19
ATOM     19  N   UNL     1       1.770   7.052  20.821  0.00  0.00    +0.000 N 
ATOM     20  H   UNL     1       2.117   7.227  21.761  0.00  0.00    +0.000 HD
BRANCH  19  21
ATOM     21  C   UNL     1       1.531   8.244  20.097  0.00  0.00    +0.000 A 
ATOM     22  C   UNL     1       1.928   8.425  18.764  0.00  0.00    +0.000 A 
ATOM     23  C   UNL     1       1.594   9.589  18.063  0.00  0.00    +0.000 A 
ATOM     24  C   UNL     1       0.848  10.591  18.679  0.00  0.00    +0.000 A 
ATOM     25  C   UNL     1       0.449  10.436  20.004  0.00  0.00    +0.000 A 
ATOM     26  C   UNL     1       0.787   9.274  20.695  0.00  0.00    +0.000 A 
ATOM     27  F   UNL     1       0.390   9.147  21.972  0.00  0.00    +0.000 F 
ENDBRANCH  19  21
ENDBRANCH   5  19
TORSDOF 3
ENDMDL
MODEL 5
REMARK VINA RESULT:      -8.0      1.759      2.770
REMARK  Name = 
REMARK  3 active torsions:
REMARK  status: ('A' for Active; 'I' for Inactive)
REMARK    1  A    between atoms: C_5  and  N_6
REMARK    2  A    between atoms: N_6  and  C_7
REMARK    3  A    between atoms: C_15  and  C_16
REMARK                            x       y       z     vdW  Elec       q    Type
REMARK                         _______ _______ _______ _____ _____    ______ ____
ROOT
ATOM      1  O   UNL     1       6.471   5.146  20.130  0.00  0.00    +0.000 OA
ATOM      2  C   UNL     1       6.364   5.268  18.915  0.00  0.00    +0.000 A 
ATOM      3  N   UNL     1       7.462   5.483  18.118  0.00  0.00    +0.000 N 
ATOM      4  C   UNL     1       7.404   5.659  16.762  0.00  0.00    +0.000 A 
ATOM      5  C   UNL     1       6.237   5.633  16.092  0.00  0.00    +0.000 A 
ATOM      6  C   UNL     1       5.029   5.366  16.861  0.00  0.00    +0.000 A 
ATOM      7  C   UNL     1       5.047   5.202  18.200  0.00  0.00    +0.000 A 
ATOM      8  H   UNL     1       8.351   5.517  18.600  0.00  0.00    +0.000 HD
ENDROOT
BRANCH   7   9
ATOM      9  C   UNL     1       3.800   4.990  18.935  0.00  0.00    +0.000 A 
ATOM     10  C   UNL     1       3.179   6.028  19.649  0.00  0.00    +0.000 A 
ATOM     11  C   UNL     1       1.987   5.802  20.333  0.00  0.00    +0.000 A 
ATOM     12  C   UNL     1       1.381   4.543  20.327  0.00  0.00    +0.000 A 
ATOM     13  C   UNL     1       2.014   3.517  19.615  0.00  0.00    +0.000 A 
ATOM     14  N   UNL     1       1.647   2.199  19.448  0.00  0.00    +0.000 N 
ATOM     15  C   UNL     1       2.563   1.548  18.666  0.00  0.00    +0.000 A 
ATOM     16  C   UNL     1       3.544   2.450  18.328  0.00  0.00    +0.000 A 
ATOM     17  C   UNL     1       3.211   3.705  18.919  0.00  0.00    +0.000 A 
ATOM     18  H   UNL     1       0.821   1.780  19.851  0.00  0.00    +0.000 HD
ENDBRANCH   7   9
BRANCH   5  19
ATOM     19  N   UNL     1       6.119   5.815  14.731  0.00  0.00    +0.000 N 
ATOM     20  H   UNL     1       6.327   6.750  14.385  0.00  0.00    +0.000 HD
BRANCH  19  21
ATOM     21  C   UNL     1       6.237   4.825  13.728  0.00  0.00    +0.000 A 
ATOM     22  C   UNL     1       5.234   3.883  13.458  0.00  0.00    +0.000 A 
ATOM     23  C   UNL     1       5.358   2.977  12.399  0.00  0.00    +0.000 A 
ATOM     24  C   UNL     1       6.488   3.000  11.584  0.00  0.00    +0.000 A 
ATOM     25  C   UNL     1       7.500   3.923  11.837  0.00  0.00    +0.000 A 
ATOM     26  C   UNL     1       7.368   4.820  12.895  0.00  0.00    +0.000 A 
ATOM     27  F   UNL     1       8.356   5.701  13.119  0.00  0.00    +0.000 F 
ENDBRANCH  19  21
ENDBRANCH   5  19
TORSDOF 3
ENDMDL
MODEL 6
REMARK VINA RESULT:      -7.9      4.662      7.435
REMARK  Name = 
REMARK  3 active torsions:
REMARK  status: ('A' for Active; 'I' for Inactive)
REMARK    1  A    between atoms: C_5  and  N_6
REMARK    2  A    between atoms: N_6  and  C_7
REMARK    3  A    between atoms: C_15  and  C_16
REMARK                            x       y       z     vdW  Elec       q    Type
REMARK                         _______ _______ _______ _____ _____    ______ ____
ROOT
ATOM      1  O   UNL     1       0.643   9.197  21.212  0.00  0.00    +0.000 OA
ATOM      2  C   UNL     1       1.268   8.763  20.252  0.00  0.00    +0.000 A 
ATOM      3  N   UNL     1       1.899   7.544  20.300  0.00  0.00    +0.000 N 
ATOM      4  C   UNL     1       2.638   7.020  19.274  0.00  0.00    +0.000 A 
ATOM      5  C   UNL     1       2.806   7.678  18.112  0.00  0.00    +0.000 A 
ATOM      6  C   UNL     1       2.132   8.961  17.965  0.00  0.00    +0.000 A 
ATOM      7  C   UNL     1       1.407   9.513  18.960  0.00  0.00    +0.000 A 
ATOM      8  H   UNL     1       1.797   7.034  21.169  0.00  0.00    +0.000 HD
ENDROOT
BRANCH   7   9
ATOM      9  C   UNL     1       0.793  10.830  18.784  0.00  0.00    +0.000 A 
ATOM     10  C   UNL     1       1.491  12.013  19.074  0.00  0.00    +0.000 A 
ATOM     11  C   UNL     1       0.887  13.255  18.888  0.00  0.00    +0.000 A 
ATOM     12  C   UNL     1      -0.423  13.354  18.411  0.00  0.00    +0.000 A 
ATOM     13  C   UNL     1      -1.108  12.165  18.130  0.00  0.00    +0.000 A 
ATOM     14  N   UNL     1      -2.389  11.971  17.662  0.00  0.00    +0.000 N 
ATOM     15  C   UNL     1      -2.647  10.634  17.528  0.00  0.00    +0.000 A 
ATOM     16  C   UNL     1      -1.524   9.947  17.923  0.00  0.00    +0.000 A 
ATOM     17  C   UNL     1      -0.535  10.902  18.306  0.00  0.00    +0.000 A 
ATOM     18  H   UNL     1      -3.040  12.715  17.454  0.00  0.00    +0.000 HD
ENDBRANCH   7   9
BRANCH   5  19
ATOM     19  N   UNL     1       3.548   7.204  17.051  0.00  0.00    +0.000 N 
ATOM     20  H   UNL     1       3.430   7.696  16.168  0.00  0.00    +0.000 HD
BRANCH  19  21
ATOM     21  C   UNL     1       4.768   6.492  17.120  0.00  0.00    +0.000 A 
ATOM     22  C   UNL     1       6.013   7.116  17.287  0.00  0.00    +0.000 A 
ATOM     23  C   UNL     1       7.184   6.365  17.436  0.00  0.00    +0.000 A 
ATOM     24  C   UNL     1       7.132   4.973  17.429  0.00  0.00    +0.000 A 
ATOM     25  C   UNL     1       5.908   4.331  17.258  0.00  0.00    +0.000 A 
ATOM     26  C   UNL     1       4.746   5.087  17.109  0.00  0.00    +0.000 A 
ATOM     27  F   UNL     1       3.578   4.446  16.947  0.00  0.00    +0.000 F 
ENDBRANCH  19  21
ENDBRANCH   5  19
TORSDOF 3
ENDMDL
MODEL 7
REMARK VINA RESULT:      -7.8      4.231      8.426
REMARK  Name = 
REMARK  3 active torsions:
REMARK  status: ('A' for Active; 'I' for Inactive)
REMARK    1  A    between atoms: C_5  and  N_6
REMARK    2  A    between atoms: N_6  and  C_7
REMARK    3  A    between atoms: C_15  and  C_16
REMARK                            x       y       z     vdW  Elec       q    Type
REMARK                         _______ _______ _______ _____ _____    ______ ____
ROOT
ATOM      1  O   UNL     1       3.262   5.190  20.258  0.00  0.00    +0.000 OA
ATOM      2  C   UNL     1       2.882   6.225  19.723  0.00  0.00    +0.000 A 
ATOM      3  N   UNL     1       2.042   7.098  20.370  0.00  0.00    +0.000 N 
ATOM      4  C   UNL     1       1.557   8.252  19.816  0.00  0.00    +0.000 A 
ATOM      5  C   UNL     1       1.876   8.625  18.562  0.00  0.00    +0.000 A 
ATOM      6  C   UNL     1       2.798   7.774  17.824  0.00  0.00    +0.000 A 
ATOM      7  C   UNL     1       3.284   6.623  18.334  0.00  0.00    +0.000 A 
ATOM      8  H   UNL     1       1.778   6.833  21.311  0.00  0.00    +0.000 HD
ENDROOT
BRANCH   7   9
ATOM      9  C   UNL     1       4.165   5.774  17.532  0.00  0.00    +0.000 A 
ATOM     10  C   UNL     1       3.731   4.545  17.010  0.00  0.00    +0.000 A 
ATOM     11  C   UNL     1       4.587   3.759  16.242  0.00  0.00    +0.000 A 
ATOM     12  C   UNL     1       5.894   4.171  15.972  0.00  0.00    +0.000 A 
ATOM     13  C   UNL     1       6.315   5.397  16.503  0.00  0.00    +0.000 A 
ATOM     14  N   UNL     1       7.533   6.034  16.401  0.00  0.00    +0.000 N 
ATOM     15  C   UNL     1       7.503   7.223  17.078  0.00  0.00    +0.000 A 
ATOM     16  C   UNL     1       6.255   7.359  17.635  0.00  0.00    +0.000 A 
ATOM     17  C   UNL     1       5.486   6.211  17.279  0.00  0.00    +0.000 A 
ATOM     18  H   UNL     1       8.330   5.667  15.900  0.00  0.00    +0.000 HD
ENDBRANCH   7   9
BRANCH   5  19
ATOM     19  N   UNL     1       1.409   9.769  17.950  0.00  0.00    +0.000 N 
ATOM     20  H   UNL     1       1.790   9.969  17.028  0.00  0.00    +0.000 HD
BRANCH  19  21
ATOM     21  C   UNL     1       0.168  10.407  18.178  0.00  0.00    +0.000 A 
ATOM     22  C   UNL     1      -1.051   9.911  17.693  0.00  0.00    +0.000 A 
ATOM     23  C   UNL     1      -2.264  10.529  18.016  0.00  0.00    +0.000 A 
ATOM     24  C   UNL     1      -2.282  11.652  18.840  0.00  0.00    +0.000 A 
ATOM     25  C   UNL     1      -1.084  12.167  19.329  0.00  0.00    +0.000 A 
ATOM     26  C   UNL     1       0.120  11.546  19.000  0.00  0.00    +0.000 A 
ATOM     27  F   UNL     1       1.262  12.059  19.484  0.00  0.00    +0.000 F 
ENDBRANCH  19  21
ENDBRANCH   5  19
TORSDOF 3
ENDMDL
MODEL 8
REMARK VINA RESULT:      -7.8      4.681      7.708
REMARK  Name = 
REMARK  3 active torsions:
REMARK  status: ('A' for Active; 'I' for Inactive)
REMARK    1  A    between atoms: C_5  and  N_6
REMARK    2  A    between atoms: N_6  and  C_7
REMARK    3  A    between atoms: C_15  and  C_16
REMARK                            x       y       z     vdW  Elec       q    Type
REMARK                         _______ _______ _______ _____ _____    ______ ____
ROOT
ATOM      1  O   UNL     1       0.481   9.574  21.578  0.00  0.00    +0.000 OA
ATOM      2  C   UNL     1       1.043   8.944  20.690  0.00  0.00    +0.000 A 
ATOM      3  N   UNL     1       1.551   7.688  20.916  0.00  0.00    +0.000 N 
ATOM      4  C   UNL     1       2.216   6.948  19.976  0.00  0.00    +0.000 A 
ATOM      5  C   UNL     1       2.428   7.409  18.729  0.00  0.00    +0.000 A 
ATOM      6  C   UNL     1       1.882   8.717  18.397  0.00  0.00    +0.000 A 
ATOM      7  C   UNL     1       1.233   9.479  19.302  0.00  0.00    +0.000 A 
ATOM      8  H   UNL     1       1.414   7.323  21.850  0.00  0.00    +0.000 HD
ENDROOT
BRANCH   7   9
ATOM      9  C   UNL     1       0.750  10.811  18.935  0.00  0.00    +0.000 A 
ATOM     10  C   UNL     1       1.581  11.941  19.000  0.00  0.00    +0.000 A 
ATOM     11  C   UNL     1       1.100  13.196  18.636  0.00  0.00    +0.000 A 
ATOM     12  C   UNL     1      -0.217  13.363  18.200  0.00  0.00    +0.000 A 
ATOM     13  C   UNL     1      -1.036  12.228  18.145  0.00  0.00    +0.000 A 
ATOM     14  N   UNL     1      -2.354  12.106  17.764  0.00  0.00    +0.000 N 
ATOM     15  C   UNL     1      -2.756  10.801  17.862  0.00  0.00    +0.000 A 
ATOM     16  C   UNL     1      -1.690  10.066  18.321  0.00  0.00    +0.000 A 
ATOM     17  C   UNL     1      -0.588  10.954  18.503  0.00  0.00    +0.000 A 
ATOM     18  H   UNL     1      -2.936  12.875  17.462  0.00  0.00    +0.000 HD
ENDBRANCH   7   9
BRANCH   5  19
ATOM     19  N   UNL     1       3.101   6.712  17.748  0.00  0.00    +0.000 N 
ATOM     20  H   UNL     1       2.751   6.828  16.799  0.00  0.00    +0.000 HD
BRANCH  19  21
ATOM     21  C   UNL     1       4.447   6.281  17.784  0.00  0.00    +0.000 A 
ATOM     22  C   UNL     1       5.008   5.609  18.880  0.00  0.00    +0.000 A 
ATOM     23  C   UNL     1       6.320   5.125  18.837  0.00  0.00    +0.000 A 
ATOM     24  C   UNL     1       7.094   5.295  17.692  0.00  0.00    +0.000 A 
ATOM     25  C   UNL     1       6.561   5.964  16.593  0.00  0.00    +0.000 A 
ATOM     26  C   UNL     1       5.254   6.445  16.646  0.00  0.00    +0.000 A 
ATOM     27  F   UNL     1       4.760   7.086  15.574  0.00  0.00    +0.000 F 
ENDBRANCH  19  21
ENDBRANCH   5  19
TORSDOF 3
ENDMDL
MODEL 9
REMARK VINA RESULT:      -7.8      1.619      2.042
REMARK  Name = 
REMARK  3 active torsions:
REMARK  status: ('A' for Active; 'I' for Inactive)
REMARK    1  A    between atoms: C_5  and  N_6
REMARK    2  A    between atoms: N_6  and  C_7
REMARK    3  A    between atoms: C_15  and  C_16
REMARK                            x       y       z     vdW  Elec       q    Type
REMARK                         _______ _______ _______ _____ _____    ______ ____
ROOT
ATOM      1  O   UNL     1       5.778   4.083  20.108  0.00  0.00    +0.000 OA
ATOM      2  C   UNL     1       5.860   4.383  18.923  0.00  0.00    +0.000 A 
ATOM      3  N   UNL     1       7.023   4.881  18.389  0.00  0.00    +0.000 N 
ATOM      4  C   UNL     1       7.167   5.264  17.083  0.00  0.00    +0.000 A 
ATOM      5  C   UNL     1       6.152   5.179  16.202  0.00  0.00    +0.000 A 
ATOM      6  C   UNL     1       4.896   4.619  16.680  0.00  0.00    +0.000 A 
ATOM      7  C   UNL     1       4.714   4.244  17.964  0.00  0.00    +0.000 A 
ATOM      8  H   UNL     1       7.798   4.965  19.034  0.00  0.00    +0.000 HD
ENDROOT
BRANCH   7   9
ATOM      9  C   UNL     1       3.416   3.738  18.409  0.00  0.00    +0.000 A 
ATOM     10  C   UNL     1       2.939   2.479  18.012  0.00  0.00    +0.000 A 
ATOM     11  C   UNL     1       1.703   2.016  18.458  0.00  0.00    +0.000 A 
ATOM     12  C   UNL     1       0.909   2.790  19.308  0.00  0.00    +0.000 A 
ATOM     13  C   UNL     1       1.395   4.046  19.692  0.00  0.00    +0.000 A 
ATOM     14  N   UNL     1       0.828   5.004  20.504  0.00  0.00    +0.000 N 
ATOM     15  C   UNL     1       1.659   6.086  20.612  0.00  0.00    +0.000 A 
ATOM     16  C   UNL     1       2.777   5.835  19.853  0.00  0.00    +0.000 A 
ATOM     17  C   UNL     1       2.629   4.544  19.264  0.00  0.00    +0.000 A 
ATOM     18  H   UNL     1      -0.074   4.914  20.950  0.00  0.00    +0.000 HD
ENDBRANCH   7   9
BRANCH   5  19
ATOM     19  N   UNL     1       6.237   5.560  14.880  0.00  0.00    +0.000 N 
ATOM     20  H   UNL     1       6.606   6.493  14.707  0.00  0.00    +0.000 HD
BRANCH  19  21
ATOM     21  C   UNL     1       6.359   4.709  13.757  0.00  0.00    +0.000 A 
ATOM     22  C   UNL     1       5.375   3.779  13.389  0.00  0.00    +0.000 A 
ATOM     23  C   UNL     1       5.499   3.019  12.221  0.00  0.00    +0.000 A 
ATOM     24  C   UNL     1       6.607   3.181  11.393  0.00  0.00    +0.000 A 
ATOM     25  C   UNL     1       7.600   4.094  11.741  0.00  0.00    +0.000 A 
ATOM     26  C   UNL     1       7.468   4.845  12.907  0.00  0.00    +0.000 A 
ATOM     27  F   UNL     1       8.438   5.720  13.221  0.00  0.00    +0.000 F 
ENDBRANCH  19  21
ENDBRANCH   5  19
TORSDOF 3
ENDMDL
