MODEL 1
REMARK VINA RESULT:      -8.3      0.000      0.000
REMARK  Name = 
REMARK  3 active torsions:
REMARK  status: ('A' for Active; 'I' for Inactive)
REMARK    1  A    between atoms: C_4  and  N_5
REMARK    2  A    between atoms: N_5  and  C_6
REMARK    3  A    between atoms: C_9  and  C_10
REMARK                            x       y       z     vdW  Elec       q    Type
REMARK                         _______ _______ _______ _____ _____    ______ ____
ROOT
ATOM      1  C   UNL     1       6.291   4.622  16.901  0.00  0.00    +0.000 A 
ATOM      2  C   UNL     1       6.541   5.106  18.191  0.00  0.00    +0.000 A 
ATOM      3  C   UNL     1       5.601   4.943  19.206  0.00  0.00    +0.000 A 
ATOM      4  C   UNL     1       4.391   4.278  18.961  0.00  0.00    +0.000 A 
ATOM      5  C   UNL     1       4.151   3.772  17.679  0.00  0.00    +0.000 A 
ATOM      6  C   UNL     1       5.108   3.921  16.669  0.00  0.00    +0.000 A 
ENDROOT
BRANCH   4   7
ATOM      7  C   UNL     1       3.350   4.133  20.052  0.00  0.00    +0.000 C 
ATOM      8  C   UNL     1       3.507   2.806  20.834  0.00  0.00    +0.000 C 
ATOM      9  N   UNL     1       2.473   2.649  21.885  0.00  0.00    +0.000 NA
ATOM     10  C   UNL     1       1.149   2.798  21.251  0.00  0.00    +0.000 C 
ATOM     11  C   UNL     1       1.022   4.107  20.456  0.00  0.00    +0.000 C 
ATOM     12  O   UNL     1       2.039   4.213  19.458  0.00  0.00    +0.000 OA
ATOM     13  H   UNL     1       2.591   3.397  22.568  0.00  0.00    +0.000 HD
ENDBRANCH   4   7
BRANCH   1  14
ATOM     14  N   UNL     1       7.278   4.825  15.917  0.00  0.00    +0.000 N 
ATOM     15  H   UNL     1       8.048   5.434  16.209  0.00  0.00    +0.000 HD
BRANCH  14  19
ATOM     16 CL   UNL     1       5.448   2.475  11.810  0.00  0.00    +0.000 Cl
ATOM     17  C   UNL     1       6.388   3.665  12.614  0.00  0.00    +0.000 A 
ATOM     18  C   UNL     1       6.354   3.766  13.980  0.00  0.00    +0.000 A 
ATOM     19  C   UNL     1       7.180   4.731  14.531  0.00  0.00    +0.000 A 
ATOM     20  N   UNL     1       7.943   5.528  13.772  0.00  0.00    +0.000 NA
ATOM     21  C   UNL     1       7.856   5.361  12.441  0.00  0.00    +0.000 A 
ATOM     22  N   UNL     1       7.113   4.445  11.805  0.00  0.00    +0.000 NA
ENDBRANCH  14  19
ENDBRANCH   1  14
TORSDOF 3
ENDMDL
MODEL 2
REMARK VINA RESULT:      -8.1      0.175      1.082
REMARK  Name = 
REMARK  3 active torsions:
REMARK  status: ('A' for Active; 'I' for Inactive)
REMARK    1  A    between atoms: C_4  and  N_5
REMARK    2  A    between atoms: N_5  and  C_6
REMARK    3  A    between atoms: C_9  and  C_10
REMARK                            x       y       z     vdW  Elec       q    Type
REMARK                         _______ _______ _______ _____ _____    ______ ____
ROOT
ATOM      1  C   UNL     1       6.385   4.695  16.984  0.00  0.00    +0.000 A 
ATOM      2  C   UNL     1       5.113   4.247  16.610  0.00  0.00    +0.000 A 
ATOM      3  C   UNL     1       4.102   4.106  17.558  0.00  0.00    +0.000 A 
ATOM      4  C   UNL     1       4.332   4.425  18.904  0.00  0.00    +0.000 A 
ATOM      5  C   UNL     1       5.596   4.897  19.275  0.00  0.00    +0.000 A 
ATOM      6  C   UNL     1       6.602   5.056  18.315  0.00  0.00    +0.000 A 
ENDROOT
BRANCH   4   7
ATOM      7  C   UNL     1       3.247   4.237  19.944  0.00  0.00    +0.000 C 
ATOM      8  C   UNL     1       3.468   2.960  20.792  0.00  0.00    +0.000 C 
ATOM      9  N   UNL     1       2.393   2.758  21.793  0.00  0.00    +0.000 NA
ATOM     10  C   UNL     1       1.099   2.769  21.084  0.00  0.00    +0.000 C 
ATOM     11  C   UNL     1       0.910   4.030  20.226  0.00  0.00    +0.000 C 
ATOM     12  O   UNL     1       1.970   4.181  19.279  0.00  0.00    +0.000 OA
ATOM     13  H   UNL     1       2.410   3.541  22.447  0.00  0.00    +0.000 HD
ENDBRANCH   4   7
BRANCH   1  14
ATOM     14  N   UNL     1       7.367   4.809  15.981  0.00  0.00    +0.000 N 
ATOM     15  H   UNL     1       8.198   5.338  16.261  0.00  0.00    +0.000 HD
BRANCH  14  19
ATOM     16 CL   UNL     1       5.381   2.560  11.891  0.00  0.00    +0.000 Cl
ATOM     17  C   UNL     1       6.368   3.717  12.686  0.00  0.00    +0.000 A 
ATOM     18  C   UNL     1       6.370   3.799  14.054  0.00  0.00    +0.000 A 
ATOM     19  C   UNL     1       7.232   4.737  14.597  0.00  0.00    +0.000 A 
ATOM     20  N   UNL     1       7.995   5.527  13.830  0.00  0.00    +0.000 NA
ATOM     21  C   UNL     1       7.871   5.381  12.500  0.00  0.00    +0.000 A 
ATOM     22  N   UNL     1       7.091   4.491  11.870  0.00  0.00    +0.000 NA
ENDBRANCH  14  19
ENDBRANCH   1  14
TORSDOF 3
ENDMDL
MODEL 3
REMARK VINA RESULT:      -7.8      3.138      3.430
REMARK  Name = 
REMARK  3 active torsions:
REMARK  status: ('A' for Active; 'I' for Inactive)
REMARK    1  A    between atoms: C_4  and  N_5
REMARK    2  A    between atoms: N_5  and  C_6
REMARK    3  A    between atoms: C_9  and  C_10
REMARK                            x       y       z     vdW  Elec       q    Type
REMARK                         _______ _______ _______ _____ _____    ______ ____
ROOT
ATOM      1  C   UNL     1       5.271   5.302  16.669  0.00  0.00    +0.000 A 
ATOM      2  C   UNL     1       5.237   6.701  16.655  0.00  0.00    +0.000 A 
ATOM      3  C   UNL     1       4.207   7.393  17.288  0.00  0.00    +0.000 A 
ATOM      4  C   UNL     1       3.192   6.703  17.965  0.00  0.00    +0.000 A 
ATOM      5  C   UNL     1       3.238   5.306  18.002  0.00  0.00    +0.000 A 
ATOM      6  C   UNL     1       4.286   4.617  17.381  0.00  0.00    +0.000 A 
ENDROOT
BRANCH   4   7
ATOM      7  C   UNL     1       2.049   7.451  18.622  0.00  0.00    +0.000 C 
ATOM      8  C   UNL     1       1.859   8.866  18.022  0.00  0.00    +0.000 C 
ATOM      9  N   UNL     1       0.759   9.611  18.681  0.00  0.00    +0.000 NA
ATOM     10  C   UNL     1       1.020   9.625  20.133  0.00  0.00    +0.000 C 
ATOM     11  C   UNL     1       1.235   8.215  20.704  0.00  0.00    +0.000 C 
ATOM     12  O   UNL     1       2.303   7.537  20.038  0.00  0.00    +0.000 OA
ATOM     13  H   UNL     1      -0.114   9.111  18.514  0.00  0.00    +0.000 HD
ENDBRANCH   4   7
BRANCH   1  14
ATOM     14  N   UNL     1       6.334   4.660  16.004  0.00  0.00    +0.000 N 
ATOM     15  H   UNL     1       7.181   4.548  16.570  0.00  0.00    +0.000 HD
BRANCH  14  19
ATOM     16 CL   UNL     1       5.547   2.376  11.543  0.00  0.00    +0.000 Cl
ATOM     17  C   UNL     1       6.292   3.528  12.574  0.00  0.00    +0.000 A 
ATOM     18  C   UNL     1       5.906   3.635  13.884  0.00  0.00    +0.000 A 
ATOM     19  C   UNL     1       6.598   4.566  14.640  0.00  0.00    +0.000 A 
ATOM     20  N   UNL     1       7.566   5.327  14.114  0.00  0.00    +0.000 NA
ATOM     21  C   UNL     1       7.824   5.159  12.805  0.00  0.00    +0.000 A 
ATOM     22  N   UNL     1       7.236   4.273  11.989  0.00  0.00    +0.000 NA
ENDBRANCH  14  19
ENDBRANCH   1  14
TORSDOF 3
ENDMDL
MODEL 4
REMARK VINA RESULT:      -7.8      1.034      1.645
REMARK  Name = 
REMARK  3 active torsions:
REMARK  status: ('A' for Active; 'I' for Inactive)
REMARK    1  A    between atoms: C_4  and  N_5
REMARK    2  A    between atoms: N_5  and  C_6
REMARK    3  A    between atoms: C_9  and  C_10
REMARK                            x       y       z     vdW  Elec       q    Type
REMARK                         _______ _______ _______ _____ _____    ______ ____
ROOT
ATOM      1  C   UNL     1       5.941   4.473  16.786  0.00  0.00    +0.000 A 
ATOM      2  C   UNL     1       4.742   3.977  16.262  0.00  0.00    +0.000 A 
ATOM      3  C   UNL     1       3.749   3.482  17.105  0.00  0.00    +0.000 A 
ATOM      4  C   UNL     1       3.924   3.485  18.496  0.00  0.00    +0.000 A 
ATOM      5  C   UNL     1       5.111   4.004  19.022  0.00  0.00    +0.000 A 
ATOM      6  C   UNL     1       6.096   4.518  18.172  0.00  0.00    +0.000 A 
ENDROOT
BRANCH   4   7
ATOM      7  C   UNL     1       2.862   2.913  19.413  0.00  0.00    +0.000 C 
ATOM      8  C   UNL     1       1.622   3.835  19.515  0.00  0.00    +0.000 C 
ATOM      9  N   UNL     1       0.593   3.291  20.434  0.00  0.00    +0.000 NA
ATOM     10  C   UNL     1       1.233   3.029  21.737  0.00  0.00    +0.000 C 
ATOM     11  C   UNL     1       2.477   2.136  21.611  0.00  0.00    +0.000 C 
ATOM     12  O   UNL     1       3.439   2.701  20.717  0.00  0.00    +0.000 OA
ATOM     13  H   UNL     1       0.258   2.405  20.054  0.00  0.00    +0.000 HD
ENDBRANCH   4   7
BRANCH   1  14
ATOM     14  N   UNL     1       6.909   4.952  15.881  0.00  0.00    +0.000 N 
ATOM     15  H   UNL     1       7.410   5.787  16.200  0.00  0.00    +0.000 HD
BRANCH  14  19
ATOM     16 CL   UNL     1       5.551   2.440  11.688  0.00  0.00    +0.000 Cl
ATOM     17  C   UNL     1       6.419   3.643  12.550  0.00  0.00    +0.000 A 
ATOM     18  C   UNL     1       6.209   3.818  13.893  0.00  0.00    +0.000 A 
ATOM     19  C   UNL     1       6.990   4.787  14.501  0.00  0.00    +0.000 A 
ATOM     20  N   UNL     1       7.876   5.519  13.812  0.00  0.00    +0.000 NA
ATOM     21  C   UNL     1       7.958   5.283  12.491  0.00  0.00    +0.000 A 
ATOM     22  N   UNL     1       7.273   4.357  11.808  0.00  0.00    +0.000 NA
ENDBRANCH  14  19
ENDBRANCH   1  14
TORSDOF 3
ENDMDL
MODEL 5
REMARK VINA RESULT:      -7.7      3.915      5.039
REMARK  Name = 
REMARK  3 active torsions:
REMARK  status: ('A' for Active; 'I' for Inactive)
REMARK    1  A    between atoms: C_4  and  N_5
REMARK    2  A    between atoms: N_5  and  C_6
REMARK    3  A    between atoms: C_9  and  C_10
REMARK                            x       y       z     vdW  Elec       q    Type
REMARK                         _______ _______ _______ _____ _____    ______ ____
ROOT
ATOM      1  C   UNL     1       3.355   5.193  19.033  0.00  0.00    +0.000 A 
ATOM      2  C   UNL     1       3.261   6.436  18.397  0.00  0.00    +0.000 A 
ATOM      3  C   UNL     1       2.454   7.444  18.921  0.00  0.00    +0.000 A 
ATOM      4  C   UNL     1       1.730   7.238  20.104  0.00  0.00    +0.000 A 
ATOM      5  C   UNL     1       1.842   6.005  20.754  0.00  0.00    +0.000 A 
ATOM      6  C   UNL     1       2.670   5.004  20.234  0.00  0.00    +0.000 A 
ENDROOT
BRANCH   4   7
ATOM      7  C   UNL     1       0.821   8.318  20.656  0.00  0.00    +0.000 C 
ATOM      8  C   UNL     1       0.834   9.594  19.778  0.00  0.00    +0.000 C 
ATOM      9  N   UNL     1      -0.033  10.662  20.330  0.00  0.00    +0.000 NA
ATOM     10  C   UNL     1       0.377  10.911  21.725  0.00  0.00    +0.000 C 
ATOM     11  C   UNL     1       0.385   9.629  22.572  0.00  0.00    +0.000 C 
ATOM     12  O   UNL     1       1.233   8.631  22.000  0.00  0.00    +0.000 OA
ATOM     13  H   UNL     1      -0.997  10.327  20.330  0.00  0.00    +0.000 HD
ENDBRANCH   4   7
BRANCH   1  14
ATOM     14  N   UNL     1       4.181   4.213  18.450  0.00  0.00    +0.000 N 
ATOM     15  H   UNL     1       4.115   3.289  18.887  0.00  0.00    +0.000 HD
BRANCH  14  19
ATOM     16 CL   UNL     1       6.594   4.217  13.987  0.00  0.00    +0.000 Cl
ATOM     17  C   UNL     1       6.516   4.348  15.696  0.00  0.00    +0.000 A 
ATOM     18  C   UNL     1       5.307   4.292  16.339  0.00  0.00    +0.000 A 
ATOM     19  C   UNL     1       5.358   4.366  17.721  0.00  0.00    +0.000 A 
ATOM     20  N   UNL     1       6.515   4.505  18.381  0.00  0.00    +0.000 NA
ATOM     21  C   UNL     1       7.630   4.592  17.635  0.00  0.00    +0.000 A 
ATOM     22  N   UNL     1       7.699   4.506  16.300  0.00  0.00    +0.000 NA
ENDBRANCH  14  19
ENDBRANCH   1  14
TORSDOF 3
ENDMDL
MODEL 6
REMARK VINA RESULT:      -7.7      3.155      3.520
REMARK  Name = 
REMARK  3 active torsions:
REMARK  status: ('A' for Active; 'I' for Inactive)
REMARK    1  A    between atoms: C_4  and  N_5
REMARK    2  A    between atoms: N_5  and  C_6
REMARK    3  A    between atoms: C_9  and  C_10
REMARK                            x       y       z     vdW  Elec       q    Type
REMARK                         _______ _______ _______ _____ _____    ______ ____
ROOT
ATOM      1  C   UNL     1       5.221   5.435  16.647  0.00  0.00    +0.000 A 
ATOM      2  C   UNL     1       4.203   4.713  17.281  0.00  0.00    +0.000 A 
ATOM      3  C   UNL     1       3.162   5.373  17.930  0.00  0.00    +0.000 A 
ATOM      4  C   UNL     1       3.103   6.773  17.949  0.00  0.00    +0.000 A 
ATOM      5  C   UNL     1       4.105   7.496  17.293  0.00  0.00    +0.000 A 
ATOM      6  C   UNL     1       5.138   6.828  16.626  0.00  0.00    +0.000 A 
ENDROOT
BRANCH   4   7
ATOM      7  C   UNL     1       1.993   7.494  18.686  0.00  0.00    +0.000 C 
ATOM      8  C   UNL     1       1.815   8.951  18.190  0.00  0.00    +0.000 C 
ATOM      9  N   UNL     1       0.748   9.668  18.929  0.00  0.00    +0.000 NA
ATOM     10  C   UNL     1       1.046   9.576  20.370  0.00  0.00    +0.000 C 
ATOM     11  C   UNL     1       1.248   8.126  20.837  0.00  0.00    +0.000 C 
ATOM     12  O   UNL     1       2.284   7.477  20.097  0.00  0.00    +0.000 OA
ATOM     13  H   UNL     1      -0.140   9.196  18.751  0.00  0.00    +0.000 HD
ENDBRANCH   4   7
BRANCH   1  14
ATOM     14  N   UNL     1       6.250   4.710  16.015  0.00  0.00    +0.000 N 
ATOM     15  H   UNL     1       7.064   4.527  16.609  0.00  0.00    +0.000 HD
BRANCH  14  19
ATOM     16 CL   UNL     1       5.518   2.427  11.545  0.00  0.00    +0.000 Cl
ATOM     17  C   UNL     1       6.272   3.558  12.591  0.00  0.00    +0.000 A 
ATOM     18  C   UNL     1       5.850   3.687  13.889  0.00  0.00    +0.000 A 
ATOM     19  C   UNL     1       6.552   4.598  14.661  0.00  0.00    +0.000 A 
ATOM     20  N   UNL     1       7.562   5.321  14.160  0.00  0.00    +0.000 NA
ATOM     21  C   UNL     1       7.853   5.136  12.861  0.00  0.00    +0.000 A 
ATOM     22  N   UNL     1       7.259   4.266  12.032  0.00  0.00    +0.000 NA
ENDBRANCH  14  19
ENDBRANCH   1  14
TORSDOF 3
ENDMDL
MODEL 7
REMARK VINA RESULT:      -7.7      4.328      5.285
REMARK  Name = 
REMARK  3 active torsions:
REMARK  status: ('A' for Active; 'I' for Inactive)
REMARK    1  A    between atoms: C_4  and  N_5
REMARK    2  A    between atoms: N_5  and  C_6
REMARK    3  A    between atoms: C_9  and  C_10
REMARK                            x       y       z     vdW  Elec       q    Type
REMARK                         _______ _______ _______ _____ _____    ______ ____
ROOT
ATOM      1  C   UNL     1       2.912   6.372  18.341  0.00  0.00    +0.000 A 
ATOM      2  C   UNL     1       2.530   6.094  19.658  0.00  0.00    +0.000 A 
ATOM      3  C   UNL     1       1.944   7.078  20.452  0.00  0.00    +0.000 A 
ATOM      4  C   UNL     1       1.712   8.363  19.942  0.00  0.00    +0.000 A 
ATOM      5  C   UNL     1       2.070   8.635  18.618  0.00  0.00    +0.000 A 
ATOM      6  C   UNL     1       2.639   7.637  17.820  0.00  0.00    +0.000 A 
ENDROOT
BRANCH   4   7
ATOM      7  C   UNL     1       1.111   9.447  20.814  0.00  0.00    +0.000 C 
ATOM      8  C   UNL     1       1.015   9.014  22.298  0.00  0.00    +0.000 C 
ATOM      9  N   UNL     1       0.402  10.062  23.149  0.00  0.00    +0.000 NA
ATOM     10  C   UNL     1      -0.902  10.424  22.562  0.00  0.00    +0.000 C 
ATOM     11  C   UNL     1      -0.791  10.823  21.083  0.00  0.00    +0.000 C 
ATOM     12  O   UNL     1      -0.195   9.783  20.304  0.00  0.00    +0.000 OA
ATOM     13  H   UNL     1       1.005  10.885  23.131  0.00  0.00    +0.000 HD
ENDBRANCH   4   7
BRANCH   1  14
ATOM     14  N   UNL     1       3.506   5.337  17.593  0.00  0.00    +0.000 N 
ATOM     15  H   UNL     1       2.988   4.453  17.608  0.00  0.00    +0.000 HD
BRANCH  14  19
ATOM     16 CL   UNL     1       7.024   4.838  13.973  0.00  0.00    +0.000 Cl
ATOM     17  C   UNL     1       6.487   4.893  15.601  0.00  0.00    +0.000 A 
ATOM     18  C   UNL     1       5.177   5.179  15.887  0.00  0.00    +0.000 A 
ATOM     19  C   UNL     1       4.838   5.158  17.230  0.00  0.00    +0.000 A 
ATOM     20  N   UNL     1       5.740   4.897  18.185  0.00  0.00    +0.000 NA
ATOM     21  C   UNL     1       7.003   4.674  17.780  0.00  0.00    +0.000 A 
ATOM     22  N   UNL     1       7.435   4.645  16.512  0.00  0.00    +0.000 NA
ENDBRANCH  14  19
ENDBRANCH   1  14
TORSDOF 3
ENDMDL
MODEL 8
REMARK VINA RESULT:      -7.6      4.737      5.676
REMARK  Name = 
REMARK  3 active torsions:
REMARK  status: ('A' for Active; 'I' for Inactive)
REMARK    1  A    between atoms: C_4  and  N_5
REMARK    2  A    between atoms: N_5  and  C_6
REMARK    3  A    between atoms: C_9  and  C_10
REMARK                            x       y       z     vdW  Elec       q    Type
REMARK                         _______ _______ _______ _____ _____    ______ ____
ROOT
ATOM      1  C   UNL     1       3.392   6.055  18.747  0.00  0.00    +0.000 A 
ATOM      2  C   UNL     1       3.402   7.061  17.775  0.00  0.00    +0.000 A 
ATOM      3  C   UNL     1       2.639   8.216  17.938  0.00  0.00    +0.000 A 
ATOM      4  C   UNL     1       1.857   8.400  19.086  0.00  0.00    +0.000 A 
ATOM      5  C   UNL     1       1.865   7.406  20.071  0.00  0.00    +0.000 A 
ATOM      6  C   UNL     1       2.649   6.258  19.911  0.00  0.00    +0.000 A 
ENDROOT
BRANCH   4   7
ATOM      7  C   UNL     1       0.996   9.636  19.249  0.00  0.00    +0.000 C 
ATOM      8  C   UNL     1       1.504  10.817  18.386  0.00  0.00    +0.000 C 
ATOM      9  N   UNL     1       0.680  12.037  18.564  0.00  0.00    +0.000 NA
ATOM     10  C   UNL     1       0.628  12.349  20.005  0.00  0.00    +0.000 C 
ATOM     11  C   UNL     1       0.149  11.156  20.847  0.00  0.00    +0.000 C 
ATOM     12  O   UNL     1       0.973  10.006  20.642  0.00  0.00    +0.000 OA
ATOM     13  H   UNL     1      -0.267  11.836  18.242  0.00  0.00    +0.000 HD
ENDBRANCH   4   7
BRANCH   1  14
ATOM     14  N   UNL     1       4.178   4.909  18.520  0.00  0.00    +0.000 N 
ATOM     15  H   UNL     1       4.068   4.173  19.225  0.00  0.00    +0.000 HD
BRANCH  14  19
ATOM     16 CL   UNL     1       6.573   3.980  14.145  0.00  0.00    +0.000 Cl
ATOM     17  C   UNL     1       6.512   4.325  15.825  0.00  0.00    +0.000 A 
ATOM     18  C   UNL     1       5.308   4.548  16.442  0.00  0.00    +0.000 A 
ATOM     19  C   UNL     1       5.366   4.776  17.806  0.00  0.00    +0.000 A 
ATOM     20  N   UNL     1       6.528   4.801  18.472  0.00  0.00    +0.000 NA
ATOM     21  C   UNL     1       7.645   4.611  17.748  0.00  0.00    +0.000 A 
ATOM     22  N   UNL     1       7.703   4.357  16.433  0.00  0.00    +0.000 NA
ENDBRANCH  14  19
ENDBRANCH   1  14
TORSDOF 3
ENDMDL
MODEL 9
REMARK VINA RESULT:      -7.6      4.697      5.626
REMARK  Name = 
REMARK  3 active torsions:
REMARK  status: ('A' for Active; 'I' for Inactive)
REMARK    1  A    between atoms: C_4  and  N_5
REMARK    2  A    between atoms: N_5  and  C_6
REMARK    3  A    between atoms: C_9  and  C_10
REMARK                            x       y       z     vdW  Elec       q    Type
REMARK                         _______ _______ _______ _____ _____    ______ ____
ROOT
ATOM      1  C   UNL     1       3.376   6.117  18.690  0.00  0.00    +0.000 A 
ATOM      2  C   UNL     1       2.667   6.208  19.893  0.00  0.00    +0.000 A 
ATOM      3  C   UNL     1       1.879   7.322  20.171  0.00  0.00    +0.000 A 
ATOM      4  C   UNL     1       1.766   8.369  19.245  0.00  0.00    +0.000 A 
ATOM      5  C   UNL     1       2.454   8.267  18.031  0.00  0.00    +0.000 A 
ATOM      6  C   UNL     1       3.229   7.136  17.749  0.00  0.00    +0.000 A 
ENDROOT
BRANCH   4   7
ATOM      7  C   UNL     1       0.941   9.599  19.560  0.00  0.00    +0.000 C 
ATOM      8  C   UNL     1       1.376  10.824  18.717  0.00  0.00    +0.000 C 
ATOM      9  N   UNL     1       0.588  12.037  19.043  0.00  0.00    +0.000 NA
ATOM     10  C   UNL     1       0.680  12.268  20.496  0.00  0.00    +0.000 C 
ATOM     11  C   UNL     1       0.272  11.033  21.314  0.00  0.00    +0.000 C 
ATOM     12  O   UNL     1       1.058   9.891  20.966  0.00  0.00    +0.000 OA
ATOM     13  H   UNL     1      -0.388  11.860  18.804  0.00  0.00    +0.000 HD
ENDBRANCH   4   7
BRANCH   1  14
ATOM     14  N   UNL     1       4.162   4.968  18.472  0.00  0.00    +0.000 N 
ATOM     15  H   UNL     1       4.037   4.231  19.171  0.00  0.00    +0.000 HD
BRANCH  14  19
ATOM     16 CL   UNL     1       6.626   4.135  14.116  0.00  0.00    +0.000 Cl
ATOM     17  C   UNL     1       6.538   4.425  15.805  0.00  0.00    +0.000 A 
ATOM     18  C   UNL     1       5.327   4.653  16.405  0.00  0.00    +0.000 A 
ATOM     19  C   UNL     1       5.362   4.834  17.778  0.00  0.00    +0.000 A 
ATOM     20  N   UNL     1       6.510   4.811  18.467  0.00  0.00    +0.000 NA
ATOM     21  C   UNL     1       7.637   4.622  17.758  0.00  0.00    +0.000 A 
ATOM     22  N   UNL     1       7.716   4.411  16.438  0.00  0.00    +0.000 NA
ENDBRANCH  14  19
ENDBRANCH   1  14
TORSDOF 3
ENDMDL
