MODEL 1
REMARK VINA RESULT:      -7.9      0.000      0.000
REMARK  Name = 
REMARK  3 active torsions:
REMARK  status: ('A' for Active; 'I' for Inactive)
REMARK    1  A    between atoms: C_2  and  C_3
REMARK    2  A    between atoms: C_3  and  N_4
REMARK    3  A    between atoms: N_15  and  C_16
REMARK                            x       y       z     vdW  Elec       q    Type
REMARK                         _______ _______ _______ _____ _____    ______ ____
ROOT
ATOM      1  C   UNL     1       4.913   5.651  18.460  0.00  0.00    +0.000 C 
ENDROOT
BRANCH   1   2
ATOM      2  N   UNL     1       3.473   5.639  18.703  0.00  0.00    +0.000 N 
ATOM      3  C   UNL     1       2.764   6.884  19.037  0.00  0.00    +0.000 C 
ATOM      4  C   UNL     1       1.899   6.745  20.295  0.00  0.00    +0.000 C 
ATOM      5  O   UNL     1       1.609   7.697  21.017  0.00  0.00    +0.000 OA
ATOM      6  N   UNL     1       1.359   5.501  20.518  0.00  0.00    +0.000 N 
ATOM      7  C   UNL     1       1.661   4.392  19.711  0.00  0.00    +0.000 A 
ATOM      8  C   UNL     1       0.916   3.222  19.852  0.00  0.00    +0.000 A 
ATOM      9  C   UNL     1       1.191   2.128  19.033  0.00  0.00    +0.000 A 
ATOM     10  C   UNL     1       2.223   2.199  18.098  0.00  0.00    +0.000 A 
ATOM     11  C   UNL     1       2.995   3.358  17.993  0.00  0.00    +0.000 A 
ATOM     12  C   UNL     1       2.730   4.474  18.792  0.00  0.00    +0.000 A 
ATOM     13  H   UNL     1       0.702   5.425  21.282  0.00  0.00    +0.000 HD
ENDBRANCH   1   2
BRANCH   1  15
ATOM     14  O   UNL     1       4.900   6.744  16.330  0.00  0.00    +0.000 OA
ATOM     15  C   UNL     1       5.237   5.740  16.961  0.00  0.00    +0.000 C 
ATOM     16  N   UNL     1       5.889   4.640  16.419  0.00  0.00    +0.000 N 
ATOM     17  H   UNL     1       5.951   3.813  16.995  0.00  0.00    +0.000 HD
BRANCH  16  18
ATOM     18  C   UNL     1       6.333   4.535  15.078  0.00  0.00    +0.000 A 
ATOM     19  C   UNL     1       7.456   5.224  14.593  0.00  0.00    +0.000 A 
ATOM     20  C   UNL     1       7.819   5.160  13.244  0.00  0.00    +0.000 A 
ATOM     21  C   UNL     1       7.081   4.371  12.378  0.00  0.00    +0.000 A 
ATOM     22  F   UNL     1       7.424   4.318  11.082  0.00  0.00    +0.000 F 
ATOM     23  C   UNL     1       6.001   3.641  12.851  0.00  0.00    +0.000 A 
ATOM     24  F   UNL     1       5.299   2.864  12.014  0.00  0.00    +0.000 F 
ATOM     25  C   UNL     1       5.624   3.709  14.195  0.00  0.00    +0.000 A 
ENDBRANCH  16  18
ENDBRANCH   1  15
TORSDOF 3
ENDMDL
MODEL 2
REMARK VINA RESULT:      -7.8      0.938      1.582
REMARK  Name = 
REMARK  3 active torsions:
REMARK  status: ('A' for Active; 'I' for Inactive)
REMARK    1  A    between atoms: C_2  and  C_3
REMARK    2  A    between atoms: C_3  and  N_4
REMARK    3  A    between atoms: N_15  and  C_16
REMARK                            x       y       z     vdW  Elec       q    Type
REMARK                         _______ _______ _______ _____ _____    ______ ____
ROOT
ATOM      1  C   UNL     1       5.284   5.663  18.607  0.00  0.00    +0.000 C 
ENDROOT
BRANCH   1   2
ATOM      2  N   UNL     1       3.845   5.656  18.858  0.00  0.00    +0.000 N 
ATOM      3  C   UNL     1       3.055   6.887  18.696  0.00  0.00    +0.000 C 
ATOM      4  C   UNL     1       2.188   7.192  19.923  0.00  0.00    +0.000 C 
ATOM      5  O   UNL     1       1.831   8.329  20.225  0.00  0.00    +0.000 OA
ATOM      6  N   UNL     1       1.725   6.100  20.617  0.00  0.00    +0.000 N 
ATOM      7  C   UNL     1       2.106   4.786  20.297  0.00  0.00    +0.000 A 
ATOM      8  C   UNL     1       1.435   3.718  20.891  0.00  0.00    +0.000 A 
ATOM      9  C   UNL     1       1.788   2.411  20.555  0.00  0.00    +0.000 A 
ATOM     10  C   UNL     1       2.822   2.179  19.649  0.00  0.00    +0.000 A 
ATOM     11  C   UNL     1       3.519   3.254  19.092  0.00  0.00    +0.000 A 
ATOM     12  C   UNL     1       3.176   4.573  19.402  0.00  0.00    +0.000 A 
ATOM     13  H   UNL     1       1.068   6.284  21.362  0.00  0.00    +0.000 HD
ENDBRANCH   1   2
BRANCH   1  15
ATOM     14  O   UNL     1       5.657   6.923  16.606  0.00  0.00    +0.000 OA
ATOM     15  C   UNL     1       5.600   5.800  17.110  0.00  0.00    +0.000 C 
ATOM     16  N   UNL     1       5.785   4.608  16.423  0.00  0.00    +0.000 N 
ATOM     17  H   UNL     1       5.539   3.755  16.906  0.00  0.00    +0.000 HD
BRANCH  16  18
ATOM     18  C   UNL     1       6.142   4.502  15.056  0.00  0.00    +0.000 A 
ATOM     19  C   UNL     1       5.417   3.723  14.140  0.00  0.00    +0.000 A 
ATOM     20  C   UNL     1       5.842   3.577  12.815  0.00  0.00    +0.000 A 
ATOM     21  C   UNL     1       6.978   4.244  12.390  0.00  0.00    +0.000 A 
ATOM     22  F   UNL     1       7.393   4.095  11.122  0.00  0.00    +0.000 F 
ATOM     23  C   UNL     1       7.677   5.060  13.267  0.00  0.00    +0.000 A 
ATOM     24  F   UNL     1       8.766   5.719  12.847  0.00  0.00    +0.000 F 
ATOM     25  C   UNL     1       7.264   5.202  14.595  0.00  0.00    +0.000 A 
ENDBRANCH  16  18
ENDBRANCH   1  15
TORSDOF 3
ENDMDL
MODEL 3
REMARK VINA RESULT:      -7.8      1.129      1.146
REMARK  Name = 
REMARK  3 active torsions:
REMARK  status: ('A' for Active; 'I' for Inactive)
REMARK    1  A    between atoms: C_2  and  C_3
REMARK    2  A    between atoms: C_3  and  N_4
REMARK    3  A    between atoms: N_15  and  C_16
REMARK                            x       y       z     vdW  Elec       q    Type
REMARK                         _______ _______ _______ _____ _____    ______ ____
ROOT
ATOM      1  C   UNL     1       5.791   4.942  18.933  0.00  0.00    +0.000 C 
ENDROOT
BRANCH   1   2
ATOM      2  N   UNL     1       4.353   5.074  18.716  0.00  0.00    +0.000 N 
ATOM      3  C   UNL     1       3.748   6.402  18.523  0.00  0.00    +0.000 C 
ATOM      4  C   UNL     1       2.550   6.639  19.450  0.00  0.00    +0.000 C 
ATOM      5  O   UNL     1       2.194   7.759  19.810  0.00  0.00    +0.000 OA
ATOM      6  N   UNL     1       1.810   5.526  19.771  0.00  0.00    +0.000 N 
ATOM      7  C   UNL     1       2.182   4.232  19.371  0.00  0.00    +0.000 A 
ATOM      8  C   UNL     1       1.280   3.181  19.538  0.00  0.00    +0.000 A 
ATOM      9  C   UNL     1       1.631   1.900  19.115  0.00  0.00    +0.000 A 
ATOM     10  C   UNL     1       2.886   1.670  18.553  0.00  0.00    +0.000 A 
ATOM     11  C   UNL     1       3.801   2.719  18.431  0.00  0.00    +0.000 A 
ATOM     12  C   UNL     1       3.469   4.015  18.834  0.00  0.00    +0.000 A 
ATOM     13  H   UNL     1       0.959   5.685  20.292  0.00  0.00    +0.000 HD
ENDBRANCH   1   2
BRANCH   1  15
ATOM     14  O   UNL     1       7.747   4.443  17.646  0.00  0.00    +0.000 OA
ATOM     15  C   UNL     1       6.549   4.731  17.614  0.00  0.00    +0.000 C 
ATOM     16  N   UNL     1       5.801   4.903  16.457  0.00  0.00    +0.000 N 
ATOM     17  H   UNL     1       4.882   5.309  16.559  0.00  0.00    +0.000 HD
BRANCH  16  18
ATOM     18  C   UNL     1       6.281   4.702  15.138  0.00  0.00    +0.000 A 
ATOM     19  C   UNL     1       7.395   5.384  14.623  0.00  0.00    +0.000 A 
ATOM     20  C   UNL     1       7.794   5.220  13.293  0.00  0.00    +0.000 A 
ATOM     21  C   UNL     1       7.100   4.340  12.479  0.00  0.00    +0.000 A 
ATOM     22  F   UNL     1       7.477   4.192  11.199  0.00  0.00    +0.000 F 
ATOM     23  C   UNL     1       6.031   3.618  12.987  0.00  0.00    +0.000 A 
ATOM     24  F   UNL     1       5.373   2.753  12.202  0.00  0.00    +0.000 F 
ATOM     25  C   UNL     1       5.619   3.785  14.312  0.00  0.00    +0.000 A 
ENDBRANCH  16  18
ENDBRANCH   1  15
TORSDOF 3
ENDMDL
MODEL 4
REMARK VINA RESULT:      -7.7      1.155      1.155
REMARK  Name = 
REMARK  3 active torsions:
REMARK  status: ('A' for Active; 'I' for Inactive)
REMARK    1  A    between atoms: C_2  and  C_3
REMARK    2  A    between atoms: C_3  and  N_4
REMARK    3  A    between atoms: N_15  and  C_16
REMARK                            x       y       z     vdW  Elec       q    Type
REMARK                         _______ _______ _______ _____ _____    ______ ____
ROOT
ATOM      1  C   UNL     1       5.441   6.187  18.171  0.00  0.00    +0.000 C 
ENDROOT
BRANCH   1   2
ATOM      2  N   UNL     1       4.057   5.962  18.577  0.00  0.00    +0.000 N 
ATOM      3  C   UNL     1       3.031   6.987  18.325  0.00  0.00    +0.000 C 
ATOM      4  C   UNL     1       2.222   7.327  19.582  0.00  0.00    +0.000 C 
ATOM      5  O   UNL     1       1.675   8.415  19.752  0.00  0.00    +0.000 OA
ATOM      6  N   UNL     1       2.040   6.298  20.475  0.00  0.00    +0.000 N 
ATOM      7  C   UNL     1       2.643   5.040  20.310  0.00  0.00    +0.000 A 
ATOM      8  C   UNL     1       2.243   3.981  21.124  0.00  0.00    +0.000 A 
ATOM      9  C   UNL     1       2.816   2.722  20.945  0.00  0.00    +0.000 A 
ATOM     10  C   UNL     1       3.800   2.535  19.975  0.00  0.00    +0.000 A 
ATOM     11  C   UNL     1       4.227   3.611  19.194  0.00  0.00    +0.000 A 
ATOM     12  C   UNL     1       3.659   4.880  19.344  0.00  0.00    +0.000 A 
ATOM     13  H   UNL     1       1.421   6.480  21.253  0.00  0.00    +0.000 HD
ENDBRANCH   1   2
BRANCH   1  15
ATOM     14  O   UNL     1       5.143   6.969  15.928  0.00  0.00    +0.000 OA
ATOM     15  C   UNL     1       5.612   6.085  16.648  0.00  0.00    +0.000 C 
ATOM     16  N   UNL     1       6.287   4.960  16.192  0.00  0.00    +0.000 N 
ATOM     17  H   UNL     1       6.465   4.227  16.863  0.00  0.00    +0.000 HD
BRANCH  16  18
ATOM     18  C   UNL     1       6.607   4.695  14.837  0.00  0.00    +0.000 A 
ATOM     19  C   UNL     1       7.660   5.334  14.166  0.00  0.00    +0.000 A 
ATOM     20  C   UNL     1       7.898   5.108  12.807  0.00  0.00    +0.000 A 
ATOM     21  C   UNL     1       7.103   4.206  12.119  0.00  0.00    +0.000 A 
ATOM     22  F   UNL     1       7.325   3.996  10.812  0.00  0.00    +0.000 F 
ATOM     23  C   UNL     1       6.092   3.525  12.780  0.00  0.00    +0.000 A 
ATOM     24  F   UNL     1       5.336   2.639  12.116  0.00  0.00    +0.000 F 
ATOM     25  C   UNL     1       5.841   3.755  14.135  0.00  0.00    +0.000 A 
ENDBRANCH  16  18
ENDBRANCH   1  15
TORSDOF 3
ENDMDL
MODEL 5
REMARK VINA RESULT:      -7.7      4.155      7.103
REMARK  Name = 
REMARK  3 active torsions:
REMARK  status: ('A' for Active; 'I' for Inactive)
REMARK    1  A    between atoms: C_2  and  C_3
REMARK    2  A    between atoms: C_3  and  N_4
REMARK    3  A    between atoms: N_15  and  C_16
REMARK                            x       y       z     vdW  Elec       q    Type
REMARK                         _______ _______ _______ _____ _____    ______ ____
ROOT
ATOM      1  C   UNL     1       4.742   4.107  18.580  0.00  0.00    +0.000 C 
ENDROOT
BRANCH   1   2
ATOM      2  N   UNL     1       5.982   4.485  17.907  0.00  0.00    +0.000 N 
ATOM      3  C   UNL     1       7.082   5.102  18.665  0.00  0.00    +0.000 C 
ATOM      4  C   UNL     1       7.588   6.395  18.013  0.00  0.00    +0.000 C 
ATOM      5  O   UNL     1       8.127   7.298  18.650  0.00  0.00    +0.000 OA
ATOM      6  N   UNL     1       7.511   6.447  16.642  0.00  0.00    +0.000 N 
ATOM      7  C   UNL     1       6.909   5.430  15.882  0.00  0.00    +0.000 A 
ATOM      8  C   UNL     1       7.060   5.435  14.496  0.00  0.00    +0.000 A 
ATOM      9  C   UNL     1       6.490   4.413  13.738  0.00  0.00    +0.000 A 
ATOM     10  C   UNL     1       5.754   3.408  14.364  0.00  0.00    +0.000 A 
ATOM     11  C   UNL     1       5.570   3.434  15.748  0.00  0.00    +0.000 A 
ATOM     12  C   UNL     1       6.142   4.440  16.532  0.00  0.00    +0.000 A 
ATOM     13  H   UNL     1       7.938   7.246  16.196  0.00  0.00    +0.000 HD
ENDBRANCH   1   2
BRANCH   1  15
ATOM     14  O   UNL     1       2.713   4.839  17.542  0.00  0.00    +0.000 OA
ATOM     15  C   UNL     1       3.622   5.126  18.323  0.00  0.00    +0.000 C 
ATOM     16  N   UNL     1       3.738   6.332  19.002  0.00  0.00    +0.000 N 
ATOM     17  H   UNL     1       4.614   6.513  19.471  0.00  0.00    +0.000 HD
BRANCH  16  18
ATOM     18  C   UNL     1       2.792   7.386  18.959  0.00  0.00    +0.000 A 
ATOM     19  C   UNL     1       2.625   8.211  17.836  0.00  0.00    +0.000 A 
ATOM     20  C   UNL     1       1.739   9.293  17.856  0.00  0.00    +0.000 A 
ATOM     21  C   UNL     1       0.983   9.530  18.991  0.00  0.00    +0.000 A 
ATOM     22  F   UNL     1       0.140  10.574  19.014  0.00  0.00    +0.000 F 
ATOM     23  C   UNL     1       1.095   8.693  20.091  0.00  0.00    +0.000 A 
ATOM     24  F   UNL     1       0.349   8.915  21.181  0.00  0.00    +0.000 F 
ATOM     25  C   UNL     1       1.988   7.617  20.083  0.00  0.00    +0.000 A 
ENDBRANCH  16  18
ENDBRANCH   1  15
TORSDOF 3
ENDMDL
MODEL 6
REMARK VINA RESULT:      -7.7      5.462      7.689
REMARK  Name = 
REMARK  3 active torsions:
REMARK  status: ('A' for Active; 'I' for Inactive)
REMARK    1  A    between atoms: C_2  and  C_3
REMARK    2  A    between atoms: C_3  and  N_4
REMARK    3  A    between atoms: N_15  and  C_16
REMARK                            x       y       z     vdW  Elec       q    Type
REMARK                         _______ _______ _______ _____ _____    ______ ____
ROOT
ATOM      1  C   UNL     1       3.113   6.715  17.501  0.00  0.00    +0.000 C 
ENDROOT
BRANCH   1   2
ATOM      2  N   UNL     1       3.584   5.730  18.471  0.00  0.00    +0.000 N 
ATOM      3  C   UNL     1       4.809   5.976  19.247  0.00  0.00    +0.000 C 
ATOM      4  C   UNL     1       5.791   4.800  19.178  0.00  0.00    +0.000 C 
ATOM      5  O   UNL     1       7.005   4.933  19.324  0.00  0.00    +0.000 OA
ATOM      6  N   UNL     1       5.228   3.553  19.057  0.00  0.00    +0.000 N 
ATOM      7  C   UNL     1       3.845   3.362  18.896  0.00  0.00    +0.000 A 
ATOM      8  C   UNL     1       3.317   2.076  19.002  0.00  0.00    +0.000 A 
ATOM      9  C   UNL     1       1.942   1.885  18.874  0.00  0.00    +0.000 A 
ATOM     10  C   UNL     1       1.107   2.971  18.616  0.00  0.00    +0.000 A 
ATOM     11  C   UNL     1       1.648   4.250  18.467  0.00  0.00    +0.000 A 
ATOM     12  C   UNL     1       3.022   4.471  18.605  0.00  0.00    +0.000 A 
ATOM     13  H   UNL     1       5.857   2.765  19.118  0.00  0.00    +0.000 HD
ENDBRANCH   1   2
BRANCH   1  15
ATOM     14  O   UNL     1       2.526   9.033  17.628  0.00  0.00    +0.000 OA
ATOM     15  C   UNL     1       2.486   7.937  18.190  0.00  0.00    +0.000 C 
ATOM     16  N   UNL     1       1.922   7.701  19.437  0.00  0.00    +0.000 N 
ATOM     17  H   UNL     1       2.108   6.805  19.864  0.00  0.00    +0.000 HD
BRANCH  16  18
ATOM     18  C   UNL     1       1.241   8.666  20.219  0.00  0.00    +0.000 A 
ATOM     19  C   UNL     1       0.586   9.774  19.658  0.00  0.00    +0.000 A 
ATOM     20  C   UNL     1      -0.008  10.751  20.464  0.00  0.00    +0.000 A 
ATOM     21  C   UNL     1       0.016  10.601  21.840  0.00  0.00    +0.000 A 
ATOM     22  F   UNL     1      -0.545  11.544  22.614  0.00  0.00    +0.000 F 
ATOM     23  C   UNL     1       0.612   9.486  22.410  0.00  0.00    +0.000 A 
ATOM     24  F   UNL     1       0.617   9.336  23.742  0.00  0.00    +0.000 F 
ATOM     25  C   UNL     1       1.218   8.512  21.611  0.00  0.00    +0.000 A 
ENDBRANCH  16  18
ENDBRANCH   1  15
TORSDOF 3
ENDMDL
MODEL 7
REMARK VINA RESULT:      -7.7      4.985      7.426
REMARK  Name = 
REMARK  3 active torsions:
REMARK  status: ('A' for Active; 'I' for Inactive)
REMARK    1  A    between atoms: C_2  and  C_3
REMARK    2  A    between atoms: C_3  and  N_4
REMARK    3  A    between atoms: N_15  and  C_16
REMARK                            x       y       z     vdW  Elec       q    Type
REMARK                         _______ _______ _______ _____ _____    ______ ____
ROOT
ATOM      1  C   UNL     1       3.523   7.067  17.623  0.00  0.00    +0.000 C 
ENDROOT
BRANCH   1   2
ATOM      2  N   UNL     1       3.961   5.899  18.383  0.00  0.00    +0.000 N 
ATOM      3  C   UNL     1       5.207   5.944  19.164  0.00  0.00    +0.000 C 
ATOM      4  C   UNL     1       6.132   4.760  18.857  0.00  0.00    +0.000 C 
ATOM      5  O   UNL     1       7.353   4.811  18.997  0.00  0.00    +0.000 OA
ATOM      6  N   UNL     1       5.509   3.583  18.521  0.00  0.00    +0.000 N 
ATOM      7  C   UNL     1       4.117   3.485  18.359  0.00  0.00    +0.000 A 
ATOM      8  C   UNL     1       3.531   2.226  18.237  0.00  0.00    +0.000 A 
ATOM      9  C   UNL     1       2.147   2.121  18.107  0.00  0.00    +0.000 A 
ATOM     10  C   UNL     1       1.360   3.271  18.073  0.00  0.00    +0.000 A 
ATOM     11  C   UNL     1       1.958   4.531  18.150  0.00  0.00    +0.000 A 
ATOM     12  C   UNL     1       3.343   4.663  18.295  0.00  0.00    +0.000 A 
ATOM     13  H   UNL     1       6.102   2.771  18.421  0.00  0.00    +0.000 HD
ENDBRANCH   1   2
BRANCH   1  15
ATOM     14  O   UNL     1       2.240   7.608  19.571  0.00  0.00    +0.000 OA
ATOM     15  C   UNL     1       2.487   7.895  18.398  0.00  0.00    +0.000 C 
ATOM     16  N   UNL     1       1.882   8.922  17.685  0.00  0.00    +0.000 N 
ATOM     17  H   UNL     1       2.038   8.943  16.687  0.00  0.00    +0.000 HD
BRANCH  16  18
ATOM     18  C   UNL     1       0.946   9.843  18.217  0.00  0.00    +0.000 A 
ATOM     19  C   UNL     1       1.324  10.937  19.011  0.00  0.00    +0.000 A 
ATOM     20  C   UNL     1       0.368  11.780  19.587  0.00  0.00    +0.000 A 
ATOM     21  C   UNL     1      -0.975  11.555  19.336  0.00  0.00    +0.000 A 
ATOM     22  F   UNL     1      -1.893  12.358  19.897  0.00  0.00    +0.000 F 
ATOM     23  C   UNL     1      -1.364  10.510  18.511  0.00  0.00    +0.000 A 
ATOM     24  F   UNL     1      -2.664  10.306  18.256  0.00  0.00    +0.000 F 
ATOM     25  C   UNL     1      -0.415   9.656  17.942  0.00  0.00    +0.000 A 
ENDBRANCH  16  18
ENDBRANCH   1  15
TORSDOF 3
ENDMDL
MODEL 8
REMARK VINA RESULT:      -7.6      4.999      7.360
REMARK  Name = 
REMARK  3 active torsions:
REMARK  status: ('A' for Active; 'I' for Inactive)
REMARK    1  A    between atoms: C_2  and  C_3
REMARK    2  A    between atoms: C_3  and  N_4
REMARK    3  A    between atoms: N_15  and  C_16
REMARK                            x       y       z     vdW  Elec       q    Type
REMARK                         _______ _______ _______ _____ _____    ______ ____
ROOT
ATOM      1  C   UNL     1       3.204   6.683  17.590  0.00  0.00    +0.000 C 
ENDROOT
BRANCH   1   2
ATOM      2  N   UNL     1       3.702   5.629  18.470  0.00  0.00    +0.000 N 
ATOM      3  C   UNL     1       5.000   5.777  19.148  0.00  0.00    +0.000 C 
ATOM      4  C   UNL     1       5.909   4.559  18.940  0.00  0.00    +0.000 C 
ATOM      5  O   UNL     1       7.137   4.625  18.986  0.00  0.00    +0.000 OA
ATOM      6  N   UNL     1       5.273   3.348  18.813  0.00  0.00    +0.000 N 
ATOM      7  C   UNL     1       3.873   3.234  18.764  0.00  0.00    +0.000 A 
ATOM      8  C   UNL     1       3.289   1.971  18.857  0.00  0.00    +0.000 A 
ATOM      9  C   UNL     1       1.900   1.853  18.840  0.00  0.00    +0.000 A 
ATOM     10  C   UNL     1       1.105   2.991  18.705  0.00  0.00    +0.000 A 
ATOM     11  C   UNL     1       1.698   4.248  18.567  0.00  0.00    +0.000 A 
ATOM     12  C   UNL     1       3.088   4.394  18.595  0.00  0.00    +0.000 A 
ATOM     13  H   UNL     1       5.863   2.529  18.784  0.00  0.00    +0.000 HD
ENDBRANCH   1   2
BRANCH   1  15
ATOM     14  O   UNL     1       2.257   7.618  19.581  0.00  0.00    +0.000 OA
ATOM     15  C   UNL     1       2.452   7.770  18.373  0.00  0.00    +0.000 C 
ATOM     16  N   UNL     1       2.027   8.862  17.628  0.00  0.00    +0.000 N 
ATOM     17  H   UNL     1       2.091   8.787  16.623  0.00  0.00    +0.000 HD
BRANCH  16  18
ATOM     18  C   UNL     1       1.370  10.002  18.155  0.00  0.00    +0.000 A 
ATOM     19  C   UNL     1       0.021   9.988  18.545  0.00  0.00    +0.000 A 
ATOM     20  C   UNL     1      -0.618  11.152  18.986  0.00  0.00    +0.000 A 
ATOM     21  C   UNL     1       0.104  12.330  19.077  0.00  0.00    +0.000 A 
ATOM     22  F   UNL     1      -0.513  13.449  19.490  0.00  0.00    +0.000 F 
ATOM     23  C   UNL     1       1.451  12.349  18.746  0.00  0.00    +0.000 A 
ATOM     24  F   UNL     1       2.150  13.488  18.853  0.00  0.00    +0.000 F 
ATOM     25  C   UNL     1       2.093  11.194  18.293  0.00  0.00    +0.000 A 
ENDBRANCH  16  18
ENDBRANCH   1  15
TORSDOF 3
ENDMDL
MODEL 9
REMARK VINA RESULT:      -7.6      4.993      8.230
REMARK  Name = 
REMARK  3 active torsions:
REMARK  status: ('A' for Active; 'I' for Inactive)
REMARK    1  A    between atoms: C_2  and  C_3
REMARK    2  A    between atoms: C_3  and  N_4
REMARK    3  A    between atoms: N_15  and  C_16
REMARK                            x       y       z     vdW  Elec       q    Type
REMARK                         _______ _______ _______ _____ _____    ______ ____
ROOT
ATOM      1  C   UNL     1       3.199   5.124  20.355  0.00  0.00    +0.000 C 
ENDROOT
BRANCH   1   2
ATOM      2  N   UNL     1       3.233   4.462  19.053  0.00  0.00    +0.000 N 
ATOM      3  C   UNL     1       2.667   3.114  18.888  0.00  0.00    +0.000 C 
ATOM      4  C   UNL     1       3.647   2.148  18.212  0.00  0.00    +0.000 C 
ATOM      5  O   UNL     1       3.611   0.930  18.382  0.00  0.00    +0.000 OA
ATOM      6  N   UNL     1       4.509   2.707  17.299  0.00  0.00    +0.000 N 
ATOM      7  C   UNL     1       4.572   4.092  17.073  0.00  0.00    +0.000 A 
ATOM      8  C   UNL     1       5.303   4.572  15.986  0.00  0.00    +0.000 A 
ATOM      9  C   UNL     1       5.344   5.943  15.738  0.00  0.00    +0.000 A 
ATOM     10  C   UNL     1       4.681   6.827  16.587  0.00  0.00    +0.000 A 
ATOM     11  C   UNL     1       3.989   6.342  17.700  0.00  0.00    +0.000 A 
ATOM     12  C   UNL     1       3.919   4.971  17.963  0.00  0.00    +0.000 A 
ATOM     13  H   UNL     1       5.084   2.067  16.771  0.00  0.00    +0.000 HD
ENDBRANCH   1   2
BRANCH   1  15
ATOM     14  O   UNL     1       0.850   5.563  20.515  0.00  0.00    +0.000 OA
ATOM     15  C   UNL     1       1.982   6.052  20.490  0.00  0.00    +0.000 C 
ATOM     16  N   UNL     1       2.265   7.410  20.557  0.00  0.00    +0.000 N 
ATOM     17  H   UNL     1       3.212   7.693  20.349  0.00  0.00    +0.000 HD
BRANCH  16  18
ATOM     18  C   UNL     1       1.304   8.435  20.742  0.00  0.00    +0.000 A 
ATOM     19  C   UNL     1       0.790   9.194  19.679  0.00  0.00    +0.000 A 
ATOM     20  C   UNL     1      -0.097  10.251  19.905  0.00  0.00    +0.000 A 
ATOM     21  C   UNL     1      -0.507  10.529  21.198  0.00  0.00    +0.000 A 
ATOM     22  F   UNL     1      -1.350  11.550  21.417  0.00  0.00    +0.000 F 
ATOM     23  C   UNL     1      -0.051   9.755  22.255  0.00  0.00    +0.000 A 
ATOM     24  F   UNL     1      -0.464  10.015  23.503  0.00  0.00    +0.000 F 
ATOM     25  C   UNL     1       0.845   8.704  22.038  0.00  0.00    +0.000 A 
ENDBRANCH  16  18
ENDBRANCH   1  15
TORSDOF 3
ENDMDL
