MODEL 1
REMARK VINA RESULT:      -9.1      0.000      0.000
REMARK  Name = 
REMARK  2 active torsions:
REMARK  status: ('A' for Active; 'I' for Inactive)
REMARK    1  A    between atoms: C_2  and  C_3
REMARK    2  A    between atoms: C_16  and  C_17
REMARK                            x       y       z     vdW  Elec       q    Type
REMARK                         _______ _______ _______ _____ _____    ______ ____
ROOT
ATOM      1  O   UNL     1       0.239  10.357  21.808  0.00  0.00    +0.000 OA
ATOM      2  C   UNL     1       0.595  10.137  20.642  0.00  0.00    +0.000 C 
ATOM      3  N   UNL     1       1.203   8.871  20.338  0.00  0.00    +0.000 N 
ATOM      4  C   UNL     1       1.016   8.000  21.542  0.00  0.00    +0.000 C 
ATOM      5  C   UNL     1       1.248   6.608  21.112  0.00  0.00    +0.000 C 
ATOM      6  O   UNL     1       2.096   5.525  20.955  0.00  0.00    +0.000 OA
ATOM      7  C   UNL     1       2.739   5.673  19.722  0.00  0.00    +0.000 A 
ATOM      8  C   UNL     1       3.461   4.504  19.461  0.00  0.00    +0.000 A 
ATOM      9  C   UNL     1       4.253   4.382  18.333  0.00  0.00    +0.000 A 
ATOM     10  C   UNL     1       4.365   5.416  17.394  0.00  0.00    +0.000 A 
ATOM     11  C   UNL     1       3.590   6.634  17.691  0.00  0.00    +0.000 A 
ATOM     12  C   UNL     1       2.759   6.830  18.864  0.00  0.00    +0.000 A 
ATOM     13  C   UNL     1       1.879   8.251  19.003  0.00  0.00    +0.000 C 
ENDROOT
BRANCH  10  14
ATOM     14  C   UNL     1       5.251   5.204  16.184  0.00  0.00    +0.000 A 
ATOM     15  C   UNL     1       6.579   5.585  16.163  0.00  0.00    +0.000 A 
ATOM     16  N   UNL     1       7.412   5.549  15.083  0.00  0.00    +0.000 NA
ATOM     17  C   UNL     1       6.997   4.912  13.979  0.00  0.00    +0.000 A 
ATOM     18  C   UNL     1       7.873   4.813  12.894  0.00  0.00    +0.000 A 
ATOM     19  C   UNL     1       7.597   3.982  11.803  0.00  0.00    +0.000 A 
ATOM     20  C   UNL     1       6.419   3.256  11.783  0.00  0.00    +0.000 A 
ATOM     21  C   UNL     1       5.481   3.456  12.815  0.00  0.00    +0.000 A 
ATOM     22  C   UNL     1       5.749   4.309  13.900  0.00  0.00    +0.000 A 
ATOM     23  C   UNL     1       4.849   4.555  14.977  0.00  0.00    +0.000 A 
ENDBRANCH  10  14
BRANCH   2  24
ATOM     24  C   UNL     1       0.249  11.239  19.705  0.00  0.00    +0.000 A 
ATOM     25  C   UNL     1       1.115  12.369  19.730  0.00  0.00    +0.000 A 
ATOM     26  C   UNL     1       0.847  13.527  19.000  0.00  0.00    +0.000 A 
ATOM     27  C   UNL     1      -0.305  13.594  18.240  0.00  0.00    +0.000 A 
ATOM     28  C   UNL     1      -1.180  12.500  18.216  0.00  0.00    +0.000 A 
ATOM     29  C   UNL     1      -0.914  11.332  18.948  0.00  0.00    +0.000 A 
ENDBRANCH   2  24
TORSDOF 2
ENDMDL
MODEL 2
REMARK VINA RESULT:      -8.4      3.910      6.281
REMARK  Name = 
REMARK  2 active torsions:
REMARK  status: ('A' for Active; 'I' for Inactive)
REMARK    1  A    between atoms: C_2  and  C_3
REMARK    2  A    between atoms: C_16  and  C_17
REMARK                            x       y       z     vdW  Elec       q    Type
REMARK                         _______ _______ _______ _____ _____    ______ ____
ROOT
ATOM      1  O   UNL     1       0.782  16.384  21.591  0.00  0.00    +0.000 OA
ATOM      2  C   UNL     1       0.992  15.465  20.787  0.00  0.00    +0.000 C 
ATOM      3  N   UNL     1       0.636  14.127  21.169  0.00  0.00    +0.000 N 
ATOM      4  C   UNL     1      -0.168  14.234  22.428  0.00  0.00    +0.000 C 
ATOM      5  C   UNL     1      -0.879  12.952  22.600  0.00  0.00    +0.000 C 
ATOM      6  O   UNL     1      -0.945  11.678  23.139  0.00  0.00    +0.000 OA
ATOM      7  C   UNL     1      -0.273  10.819  22.264  0.00  0.00    +0.000 A 
ATOM      8  C   UNL     1      -0.482   9.504  22.695  0.00  0.00    +0.000 A 
ATOM      9  C   UNL     1       0.116   8.433  22.056  0.00  0.00    +0.000 A 
ATOM     10  C   UNL     1       0.952   8.608  20.945  0.00  0.00    +0.000 A 
ATOM     11  C   UNL     1       1.151  10.002  20.510  0.00  0.00    +0.000 A 
ATOM     12  C   UNL     1       0.569  11.167  21.149  0.00  0.00    +0.000 A 
ATOM     13  C   UNL     1       0.835  12.678  20.471  0.00  0.00    +0.000 C 
ENDROOT
BRANCH  10  14
ATOM     14  C   UNL     1       1.566   7.383  20.300  0.00  0.00    +0.000 A 
ATOM     15  C   UNL     1       2.290   7.451  19.125  0.00  0.00    +0.000 A 
ATOM     16  N   UNL     1       2.769   6.391  18.410  0.00  0.00    +0.000 NA
ATOM     17  C   UNL     1       2.722   5.173  18.967  0.00  0.00    +0.000 A 
ATOM     18  C   UNL     1       3.273   4.096  18.267  0.00  0.00    +0.000 A 
ATOM     19  C   UNL     1       3.458   2.848  18.872  0.00  0.00    +0.000 A 
ATOM     20  C   UNL     1       3.066   2.665  20.187  0.00  0.00    +0.000 A 
ATOM     21  C   UNL     1       2.395   3.712  20.847  0.00  0.00    +0.000 A 
ATOM     22  C   UNL     1       2.189   4.960  20.231  0.00  0.00    +0.000 A 
ATOM     23  C   UNL     1       1.521   6.061  20.840  0.00  0.00    +0.000 A 
ENDBRANCH  10  14
BRANCH   2  24
ATOM     24  C   UNL     1       1.530  15.937  19.483  0.00  0.00    +0.000 A 
ATOM     25  C   UNL     1       2.725  15.304  19.040  0.00  0.00    +0.000 A 
ATOM     26  C   UNL     1       3.412  15.727  17.902  0.00  0.00    +0.000 A 
ATOM     27  C   UNL     1       2.931  16.806  17.186  0.00  0.00    +0.000 A 
ATOM     28  C   UNL     1       1.767  17.456  17.616  0.00  0.00    +0.000 A 
ATOM     29  C   UNL     1       1.071  17.034  18.760  0.00  0.00    +0.000 A 
ENDBRANCH   2  24
TORSDOF 2
ENDMDL
MODEL 3
REMARK VINA RESULT:      -8.4      1.927      9.333
REMARK  Name = 
REMARK  2 active torsions:
REMARK  status: ('A' for Active; 'I' for Inactive)
REMARK    1  A    between atoms: C_2  and  C_3
REMARK    2  A    between atoms: C_16  and  C_17
REMARK                            x       y       z     vdW  Elec       q    Type
REMARK                         _______ _______ _______ _____ _____    ______ ____
ROOT
ATOM      1  O   UNL     1       4.024   2.880  17.494  0.00  0.00    +0.000 OA
ATOM      2  C   UNL     1       4.177   4.106  17.402  0.00  0.00    +0.000 C 
ATOM      3  N   UNL     1       3.437   4.958  18.291  0.00  0.00    +0.000 N 
ATOM      4  C   UNL     1       2.814   4.070  19.324  0.00  0.00    +0.000 C 
ATOM      5  C   UNL     1       2.413   4.931  20.452  0.00  0.00    +0.000 C 
ATOM      6  O   UNL     1       1.455   5.690  21.103  0.00  0.00    +0.000 OA
ATOM      7  C   UNL     1       1.498   6.976  20.557  0.00  0.00    +0.000 A 
ATOM      8  C   UNL     1       0.669   7.805  21.319  0.00  0.00    +0.000 A 
ATOM      9  C   UNL     1       0.463   9.130  20.978  0.00  0.00    +0.000 A 
ATOM     10  C   UNL     1       1.077   9.709  19.860  0.00  0.00    +0.000 A 
ATOM     11  C   UNL     1       1.950   8.816  19.078  0.00  0.00    +0.000 A 
ATOM     12  C   UNL     1       2.191   7.415  19.372  0.00  0.00    +0.000 A 
ATOM     13  C   UNL     1       3.280   6.564  18.422  0.00  0.00    +0.000 C 
ENDROOT
BRANCH  10  14
ATOM     14  C   UNL     1       0.802  11.167  19.556  0.00  0.00    +0.000 A 
ATOM     15  C   UNL     1      -0.433  11.747  19.773  0.00  0.00    +0.000 A 
ATOM     16  N   UNL     1      -0.805  13.010  19.413  0.00  0.00    +0.000 NA
ATOM     17  C   UNL     1       0.142  13.857  18.985  0.00  0.00    +0.000 A 
ATOM     18  C   UNL     1      -0.223  15.171  18.680  0.00  0.00    +0.000 A 
ATOM     19  C   UNL     1       0.736  16.161  18.442  0.00  0.00    +0.000 A 
ATOM     20  C   UNL     1       2.079  15.831  18.485  0.00  0.00    +0.000 A 
ATOM     21  C   UNL     1       2.440  14.481  18.665  0.00  0.00    +0.000 A 
ATOM     22  C   UNL     1       1.475  13.482  18.882  0.00  0.00    +0.000 A 
ATOM     23  C   UNL     1       1.769  12.101  19.073  0.00  0.00    +0.000 A 
ENDBRANCH  10  14
BRANCH   2  24
ATOM     24  C   UNL     1       5.200   4.495  16.395  0.00  0.00    +0.000 A 
ATOM     25  C   UNL     1       4.977   4.023  15.071  0.00  0.00    +0.000 A 
ATOM     26  C   UNL     1       5.912   4.203  14.050  0.00  0.00    +0.000 A 
ATOM     27  C   UNL     1       7.103   4.843  14.332  0.00  0.00    +0.000 A 
ATOM     28  C   UNL     1       7.351   5.298  15.634  0.00  0.00    +0.000 A 
ATOM     29  C   UNL     1       6.413   5.122  16.664  0.00  0.00    +0.000 A 
ENDBRANCH   2  24
TORSDOF 2
ENDMDL
MODEL 4
REMARK VINA RESULT:      -8.4      3.623      6.223
REMARK  Name = 
REMARK  2 active torsions:
REMARK  status: ('A' for Active; 'I' for Inactive)
REMARK    1  A    between atoms: C_2  and  C_3
REMARK    2  A    between atoms: C_16  and  C_17
REMARK                            x       y       z     vdW  Elec       q    Type
REMARK                         _______ _______ _______ _____ _____    ______ ____
ROOT
ATOM      1  O   UNL     1      -0.277  16.625  21.999  0.00  0.00    +0.000 OA
ATOM      2  C   UNL     1      -0.044  15.784  21.119  0.00  0.00    +0.000 C 
ATOM      3  N   UNL     1      -0.159  14.392  21.453  0.00  0.00    +0.000 N 
ATOM      4  C   UNL     1      -0.805  14.322  22.803  0.00  0.00    +0.000 C 
ATOM      5  C   UNL     1      -1.303  12.944  22.976  0.00  0.00    +0.000 C 
ATOM      6  O   UNL     1      -1.123  11.650  23.436  0.00  0.00    +0.000 OA
ATOM      7  C   UNL     1      -0.454  10.940  22.435  0.00  0.00    +0.000 A 
ATOM      8  C   UNL     1      -0.421   9.590  22.802  0.00  0.00    +0.000 A 
ATOM      9  C   UNL     1       0.234   8.649  22.029  0.00  0.00    +0.000 A 
ATOM     10  C   UNL     1       0.890   8.995  20.841  0.00  0.00    +0.000 A 
ATOM     11  C   UNL     1       0.837  10.421  20.475  0.00  0.00    +0.000 A 
ATOM     12  C   UNL     1       0.183  11.459  21.252  0.00  0.00    +0.000 A 
ATOM     13  C   UNL     1       0.149  13.022  20.646  0.00  0.00    +0.000 C 
ENDROOT
BRANCH  10  14
ATOM     14  C   UNL     1       1.582   7.904  20.051  0.00  0.00    +0.000 A 
ATOM     15  C   UNL     1       2.159   8.138  18.817  0.00  0.00    +0.000 A 
ATOM     16  N   UNL     1       2.689   7.196  17.983  0.00  0.00    +0.000 NA
ATOM     17  C   UNL     1       2.859   5.952  18.451  0.00  0.00    +0.000 A 
ATOM     18  C   UNL     1       3.464   5.002  17.624  0.00  0.00    +0.000 A 
ATOM     19  C   UNL     1       3.871   3.757  18.114  0.00  0.00    +0.000 A 
ATOM     20  C   UNL     1       3.651   3.445  19.445  0.00  0.00    +0.000 A 
ATOM     21  C   UNL     1       2.927   4.352  20.243  0.00  0.00    +0.000 A 
ATOM     22  C   UNL     1       2.498   5.595  19.744  0.00  0.00    +0.000 A 
ATOM     23  C   UNL     1       1.765   6.559  20.494  0.00  0.00    +0.000 A 
ENDBRANCH  10  14
BRANCH   2  24
ATOM     24  C   UNL     1       0.253  16.389  19.793  0.00  0.00    +0.000 A 
ATOM     25  C   UNL     1       1.620  16.377  19.399  0.00  0.00    +0.000 A 
ATOM     26  C   UNL     1       2.066  17.018  18.243  0.00  0.00    +0.000 A 
ATOM     27  C   UNL     1       1.159  17.704  17.459  0.00  0.00    +0.000 A 
ATOM     28  C   UNL     1      -0.189  17.745  17.839  0.00  0.00    +0.000 A 
ATOM     29  C   UNL     1      -0.644  17.101  19.001  0.00  0.00    +0.000 A 
ENDBRANCH   2  24
TORSDOF 2
ENDMDL
MODEL 5
REMARK VINA RESULT:      -8.3      0.595      1.142
REMARK  Name = 
REMARK  2 active torsions:
REMARK  status: ('A' for Active; 'I' for Inactive)
REMARK    1  A    between atoms: C_2  and  C_3
REMARK    2  A    between atoms: C_16  and  C_17
REMARK                            x       y       z     vdW  Elec       q    Type
REMARK                         _______ _______ _______ _____ _____    ______ ____
ROOT
ATOM      1  O   UNL     1      -0.247  10.096  21.592  0.00  0.00    +0.000 OA
ATOM      2  C   UNL     1       0.095   9.816  20.435  0.00  0.00    +0.000 C 
ATOM      3  N   UNL     1       0.883   8.634  20.221  0.00  0.00    +0.000 N 
ATOM      4  C   UNL     1       0.881   7.872  21.510  0.00  0.00    +0.000 C 
ATOM      5  C   UNL     1       1.314   6.495  21.202  0.00  0.00    +0.000 C 
ATOM      6  O   UNL     1       2.316   5.544  21.103  0.00  0.00    +0.000 OA
ATOM      7  C   UNL     1       2.880   5.663  19.829  0.00  0.00    +0.000 A 
ATOM      8  C   UNL     1       3.768   4.599  19.642  0.00  0.00    +0.000 A 
ATOM      9  C   UNL     1       4.526   4.486  18.491  0.00  0.00    +0.000 A 
ATOM     10  C   UNL     1       4.438   5.424  17.453  0.00  0.00    +0.000 A 
ATOM     11  C   UNL     1       3.493   6.532  17.674  0.00  0.00    +0.000 A 
ATOM     12  C   UNL     1       2.685   6.716  18.866  0.00  0.00    +0.000 A 
ATOM     13  C   UNL     1       1.598   7.992  18.917  0.00  0.00    +0.000 C 
ENDROOT
BRANCH  10  14
ATOM     14  C   UNL     1       5.300   5.227  16.224  0.00  0.00    +0.000 A 
ATOM     15  C   UNL     1       6.611   5.660  16.163  0.00  0.00    +0.000 A 
ATOM     16  N   UNL     1       7.417   5.639  15.062  0.00  0.00    +0.000 NA
ATOM     17  C   UNL     1       7.000   4.970  13.978  0.00  0.00    +0.000 A 
ATOM     18  C   UNL     1       7.851   4.889  12.872  0.00  0.00    +0.000 A 
ATOM     19  C   UNL     1       7.579   4.032  11.801  0.00  0.00    +0.000 A 
ATOM     20  C   UNL     1       6.430   3.261  11.821  0.00  0.00    +0.000 A 
ATOM     21  C   UNL     1       5.512   3.440  12.874  0.00  0.00    +0.000 A 
ATOM     22  C   UNL     1       5.774   4.319  13.940  0.00  0.00    +0.000 A 
ATOM     23  C   UNL     1       4.893   4.546  15.036  0.00  0.00    +0.000 A 
ENDBRANCH  10  14
BRANCH   2  24
ATOM     24  C   UNL     1      -0.455  10.751  19.418  0.00  0.00    +0.000 A 
ATOM     25  C   UNL     1      -1.364  10.182  18.481  0.00  0.00    +0.000 A 
ATOM     26  C   UNL     1      -1.863  10.905  17.397  0.00  0.00    +0.000 A 
ATOM     27  C   UNL     1      -1.451  12.211  17.210  0.00  0.00    +0.000 A 
ATOM     28  C   UNL     1      -0.542  12.783  18.109  0.00  0.00    +0.000 A 
ATOM     29  C   UNL     1      -0.038  12.061  19.202  0.00  0.00    +0.000 A 
ENDBRANCH   2  24
TORSDOF 2
ENDMDL
MODEL 6
REMARK VINA RESULT:      -8.2      4.155     11.268
REMARK  Name = 
REMARK  2 active torsions:
REMARK  status: ('A' for Active; 'I' for Inactive)
REMARK    1  A    between atoms: C_2  and  C_3
REMARK    2  A    between atoms: C_16  and  C_17
REMARK                            x       y       z     vdW  Elec       q    Type
REMARK                         _______ _______ _______ _____ _____    ______ ____
ROOT
ATOM      1  O   UNL     1       3.750   5.544  18.348  0.00  0.00    +0.000 OA
ATOM      2  C   UNL     1       2.781   5.906  19.031  0.00  0.00    +0.000 C 
ATOM      3  N   UNL     1       2.373   7.282  18.965  0.00  0.00    +0.000 N 
ATOM      4  C   UNL     1       3.128   7.905  17.831  0.00  0.00    +0.000 C 
ATOM      5  C   UNL     1       2.437   9.162  17.486  0.00  0.00    +0.000 C 
ATOM      6  O   UNL     1       2.298  10.533  17.622  0.00  0.00    +0.000 OA
ATOM      7  C   UNL     1       1.478  10.763  18.731  0.00  0.00    +0.000 A 
ATOM      8  C   UNL     1       1.178  12.128  18.779  0.00  0.00    +0.000 A 
ATOM      9  C   UNL     1       0.429  12.665  19.810  0.00  0.00    +0.000 A 
ATOM     10  C   UNL     1      -0.071  11.873  20.851  0.00  0.00    +0.000 A 
ATOM     11  C   UNL     1       0.255  10.438  20.773  0.00  0.00    +0.000 A 
ATOM     12  C   UNL     1       1.051   9.818  19.730  0.00  0.00    +0.000 A 
ATOM     13  C   UNL     1       1.258   8.153  19.752  0.00  0.00    +0.000 C 
ENDROOT
BRANCH  10  14
ATOM     14  C   UNL     1      -0.885  12.537  21.941  0.00  0.00    +0.000 A 
ATOM     15  C   UNL     1      -1.981  11.927  22.523  0.00  0.00    +0.000 A 
ATOM     16  N   UNL     1      -2.842  12.496  23.416  0.00  0.00    +0.000 NA
ATOM     17  C   UNL     1      -2.517  13.684  23.947  0.00  0.00    +0.000 A 
ATOM     18  C   UNL     1      -3.362  14.238  24.912  0.00  0.00    +0.000 A 
ATOM     19  C   UNL     1      -2.981  15.355  25.664  0.00  0.00    +0.000 A 
ATOM     20  C   UNL     1      -1.748  15.941  25.434  0.00  0.00    +0.000 A 
ATOM     21  C   UNL     1      -0.955  15.459  24.375  0.00  0.00    +0.000 A 
ATOM     22  C   UNL     1      -1.349  14.350  23.604  0.00  0.00    +0.000 A 
ATOM     23  C   UNL     1      -0.596  13.810  22.521  0.00  0.00    +0.000 A 
ENDBRANCH  10  14
BRANCH   2  24
ATOM     24  C   UNL     1       2.135   4.791  19.773  0.00  0.00    +0.000 A 
ATOM     25  C   UNL     1       2.613   4.567  21.095  0.00  0.00    +0.000 A 
ATOM     26  C   UNL     1       2.192   3.482  21.864  0.00  0.00    +0.000 A 
ATOM     27  C   UNL     1       1.295   2.580  21.324  0.00  0.00    +0.000 A 
ATOM     28  C   UNL     1       0.827   2.771  20.017  0.00  0.00    +0.000 A 
ATOM     29  C   UNL     1       1.246   3.862  19.239  0.00  0.00    +0.000 A 
ENDBRANCH   2  24
TORSDOF 2
ENDMDL
MODEL 7
REMARK VINA RESULT:      -8.2      3.964      6.306
REMARK  Name = 
REMARK  2 active torsions:
REMARK  status: ('A' for Active; 'I' for Inactive)
REMARK    1  A    between atoms: C_2  and  C_3
REMARK    2  A    between atoms: C_16  and  C_17
REMARK                            x       y       z     vdW  Elec       q    Type
REMARK                         _______ _______ _______ _____ _____    ______ ____
ROOT
ATOM      1  O   UNL     1      -3.277  14.452  20.545  0.00  0.00    +0.000 OA
ATOM      2  C   UNL     1      -2.862  13.386  21.023  0.00  0.00    +0.000 C 
ATOM      3  N   UNL     1      -1.713  12.768  20.422  0.00  0.00    +0.000 N 
ATOM      4  C   UNL     1      -1.137  13.763  19.462  0.00  0.00    +0.000 C 
ATOM      5  C   UNL     1       0.239  13.327  19.157  0.00  0.00    +0.000 C 
ATOM      6  O   UNL     1       1.130  12.634  18.354  0.00  0.00    +0.000 OA
ATOM      7  C   UNL     1       1.153  11.310  18.801  0.00  0.00    +0.000 A 
ATOM      8  C   UNL     1       2.176  10.636  18.125  0.00  0.00    +0.000 A 
ATOM      9  C   UNL     1       2.399   9.285  18.316  0.00  0.00    +0.000 A 
ATOM     10  C   UNL     1       1.620   8.525  19.199  0.00  0.00    +0.000 A 
ATOM     11  C   UNL     1       0.553   9.260  19.902  0.00  0.00    +0.000 A 
ATOM     12  C   UNL     1       0.257  10.670  19.730  0.00  0.00    +0.000 A 
ATOM     13  C   UNL     1      -0.943  11.365  20.673  0.00  0.00    +0.000 C 
ENDROOT
BRANCH  10  14
ATOM     14  C   UNL     1       1.930   7.051  19.354  0.00  0.00    +0.000 A 
ATOM     15  C   UNL     1       1.777   6.386  20.556  0.00  0.00    +0.000 A 
ATOM     16  N   UNL     1       2.148   5.099  20.819  0.00  0.00    +0.000 NA
ATOM     17  C   UNL     1       2.518   4.319  19.793  0.00  0.00    +0.000 A 
ATOM     18  C   UNL     1       2.833   2.982  20.048  0.00  0.00    +0.000 A 
ATOM     19  C   UNL     1       3.011   2.061  19.011  0.00  0.00    +0.000 A 
ATOM     20  C   UNL     1       2.895   2.484  17.698  0.00  0.00    +0.000 A 
ATOM     21  C   UNL     1       2.705   3.856  17.442  0.00  0.00    +0.000 A 
ATOM     22  C   UNL     1       2.548   4.787  18.486  0.00  0.00    +0.000 A 
ATOM     23  C   UNL     1       2.351   6.185  18.299  0.00  0.00    +0.000 A 
ENDBRANCH  10  14
BRANCH   2  24
ATOM     24  C   UNL     1      -3.611  12.954  22.232  0.00  0.00    +0.000 A 
ATOM     25  C   UNL     1      -5.022  13.137  22.186  0.00  0.00    +0.000 A 
ATOM     26  C   UNL     1      -5.840  12.895  23.289  0.00  0.00    +0.000 A 
ATOM     27  C   UNL     1      -5.267  12.481  24.476  0.00  0.00    +0.000 A 
ATOM     28  C   UNL     1      -3.878  12.314  24.550  0.00  0.00    +0.000 A 
ATOM     29  C   UNL     1      -3.050  12.554  23.441  0.00  0.00    +0.000 A 
ENDBRANCH   2  24
TORSDOF 2
ENDMDL
MODEL 8
REMARK VINA RESULT:      -8.2      3.315      5.878
REMARK  Name = 
REMARK  2 active torsions:
REMARK  status: ('A' for Active; 'I' for Inactive)
REMARK    1  A    between atoms: C_2  and  C_3
REMARK    2  A    between atoms: C_16  and  C_17
REMARK                            x       y       z     vdW  Elec       q    Type
REMARK                         _______ _______ _______ _____ _____    ______ ____
ROOT
ATOM      1  O   UNL     1       0.616  16.220  21.489  0.00  0.00    +0.000 OA
ATOM      2  C   UNL     1       0.913  15.302  20.712  0.00  0.00    +0.000 C 
ATOM      3  N   UNL     1       0.572  13.956  21.080  0.00  0.00    +0.000 N 
ATOM      4  C   UNL     1      -0.325  14.048  22.276  0.00  0.00    +0.000 C 
ATOM      5  C   UNL     1      -1.006  12.746  22.410  0.00  0.00    +0.000 C 
ATOM      6  O   UNL     1      -1.071  11.474  22.956  0.00  0.00    +0.000 OA
ATOM      7  C   UNL     1      -0.311  10.630  22.141  0.00  0.00    +0.000 A 
ATOM      8  C   UNL     1      -0.510   9.313  22.568  0.00  0.00    +0.000 A 
ATOM      9  C   UNL     1       0.166   8.256  21.985  0.00  0.00    +0.000 A 
ATOM     10  C   UNL     1       1.074   8.449  20.936  0.00  0.00    +0.000 A 
ATOM     11  C   UNL     1       1.261   9.844  20.502  0.00  0.00    +0.000 A 
ATOM     12  C   UNL     1       0.598  10.996  21.085  0.00  0.00    +0.000 A 
ATOM     13  C   UNL     1       0.865  12.510  20.413  0.00  0.00    +0.000 C 
ENDROOT
BRANCH  10  14
ATOM     14  C   UNL     1       1.772   7.239  20.349  0.00  0.00    +0.000 A 
ATOM     15  C   UNL     1       1.569   5.961  20.835  0.00  0.00    +0.000 A 
ATOM     16  N   UNL     1       2.245   4.837  20.455  0.00  0.00    +0.000 NA
ATOM     17  C   UNL     1       3.045   4.906  19.382  0.00  0.00    +0.000 A 
ATOM     18  C   UNL     1       3.685   3.742  18.948  0.00  0.00    +0.000 A 
ATOM     19  C   UNL     1       4.352   3.687  17.720  0.00  0.00    +0.000 A 
ATOM     20  C   UNL     1       4.402   4.817  16.922  0.00  0.00    +0.000 A 
ATOM     21  C   UNL     1       3.868   6.022  17.419  0.00  0.00    +0.000 A 
ATOM     22  C   UNL     1       3.216   6.083  18.664  0.00  0.00    +0.000 A 
ATOM     23  C   UNL     1       2.652   7.264  19.225  0.00  0.00    +0.000 A 
ENDBRANCH  10  14
BRANCH   2  24
ATOM     24  C   UNL     1       1.528  15.780  19.445  0.00  0.00    +0.000 A 
ATOM     25  C   UNL     1       2.715  15.107  19.040  0.00  0.00    +0.000 A 
ATOM     26  C   UNL     1       3.470  15.525  17.944  0.00  0.00    +0.000 A 
ATOM     27  C   UNL     1       3.068  16.642  17.235  0.00  0.00    +0.000 A 
ATOM     28  C   UNL     1       1.914  17.331  17.629  0.00  0.00    +0.000 A 
ATOM     29  C   UNL     1       1.150  16.913  18.730  0.00  0.00    +0.000 A 
ENDBRANCH   2  24
TORSDOF 2
ENDMDL
MODEL 9
REMARK VINA RESULT:      -8.1      1.994      9.546
REMARK  Name = 
REMARK  2 active torsions:
REMARK  status: ('A' for Active; 'I' for Inactive)
REMARK    1  A    between atoms: C_2  and  C_3
REMARK    2  A    between atoms: C_16  and  C_17
REMARK                            x       y       z     vdW  Elec       q    Type
REMARK                         _______ _______ _______ _____ _____    ______ ____
ROOT
ATOM      1  O   UNL     1       4.025   2.752  17.483  0.00  0.00    +0.000 OA
ATOM      2  C   UNL     1       4.194   3.977  17.414  0.00  0.00    +0.000 C 
ATOM      3  N   UNL     1       3.459   4.821  18.315  0.00  0.00    +0.000 N 
ATOM      4  C   UNL     1       2.819   3.921  19.328  0.00  0.00    +0.000 C 
ATOM      5  C   UNL     1       2.422   4.765  20.471  0.00  0.00    +0.000 C 
ATOM      6  O   UNL     1       1.470   5.523  21.131  0.00  0.00    +0.000 OA
ATOM      7  C   UNL     1       1.532   6.819  20.609  0.00  0.00    +0.000 A 
ATOM      8  C   UNL     1       0.708   7.643  21.383  0.00  0.00    +0.000 A 
ATOM      9  C   UNL     1       0.520   8.976  21.066  0.00  0.00    +0.000 A 
ATOM     10  C   UNL     1       1.148   9.569  19.963  0.00  0.00    +0.000 A 
ATOM     11  C   UNL     1       2.014   8.681  19.168  0.00  0.00    +0.000 A 
ATOM     12  C   UNL     1       2.236   7.272  19.437  0.00  0.00    +0.000 A 
ATOM     13  C   UNL     1       3.320   6.426  18.476  0.00  0.00    +0.000 C 
ENDROOT
BRANCH  10  14
ATOM     14  C   UNL     1       0.892  11.036  19.685  0.00  0.00    +0.000 A 
ATOM     15  C   UNL     1       1.446  11.690  18.601  0.00  0.00    +0.000 A 
ATOM     16  N   UNL     1       1.374  13.029  18.344  0.00  0.00    +0.000 NA
ATOM     17  C   UNL     1       0.538  13.776  19.079  0.00  0.00    +0.000 A 
ATOM     18  C   UNL     1       0.410  15.134  18.774  0.00  0.00    +0.000 A 
ATOM     19  C   UNL     1      -0.596  15.920  19.346  0.00  0.00    +0.000 A 
ATOM     20  C   UNL     1      -1.473  15.350  20.253  0.00  0.00    +0.000 A 
ATOM     21  C   UNL     1      -1.261  14.017  20.654  0.00  0.00    +0.000 A 
ATOM     22  C   UNL     1      -0.236  13.232  20.096  0.00  0.00    +0.000 A 
ATOM     23  C   UNL     1       0.032  11.879  20.453  0.00  0.00    +0.000 A 
ENDBRANCH  10  14
BRANCH   2  24
ATOM     24  C   UNL     1       5.227   4.373  16.421  0.00  0.00    +0.000 A 
ATOM     25  C   UNL     1       4.963   4.005  15.071  0.00  0.00    +0.000 A 
ATOM     26  C   UNL     1       5.895   4.198  14.052  0.00  0.00    +0.000 A 
ATOM     27  C   UNL     1       7.125   4.748  14.358  0.00  0.00    +0.000 A 
ATOM     28  C   UNL     1       7.413   5.100  15.683  0.00  0.00    +0.000 A 
ATOM     29  C   UNL     1       6.478   4.909  16.713  0.00  0.00    +0.000 A 
ENDBRANCH   2  24
TORSDOF 2
ENDMDL
