MODEL 1
REMARK VINA RESULT:      -8.5      0.000      0.000
REMARK  Name = 
REMARK  4 active torsions:
REMARK  status: ('A' for Active; 'I' for Inactive)
REMARK    1  A    between atoms: C_2  and  C_23
REMARK    2  A    between atoms: N_3  and  C_4
REMARK    3  A    between atoms: C_4  and  C_5
REMARK    4  A    between atoms: C_15  and  C_17
REMARK                            x       y       z     vdW  Elec       q    Type
REMARK                         _______ _______ _______ _____ _____    ______ ____
ROOT
ATOM      1  C   UNL     1       4.646   5.188  17.563  0.00  0.00    +0.000 C 
ATOM      2  C   UNL     1       5.952   5.276  17.199  0.00  0.00    +0.000 C 
ATOM      3 CL   UNL     1       6.835   4.098  16.275  0.00  0.00    +0.000 Cl
ENDROOT
BRANCH   1   4
ATOM      4  C   UNL     1       3.893   3.858  17.446  0.00  0.00    +0.000 C 
ATOM      5  O   UNL     1       3.449   3.551  16.333  0.00  0.00    +0.000 OA
ATOM      6  N   UNL     1       3.743   2.943  18.507  0.00  0.00    +0.000 N 
ATOM      7  C   UNL     1       3.024   1.701  18.187  0.00  0.00    +0.000 C 
ATOM      8  C   UNL     1       1.661   1.514  18.866  0.00  0.00    +0.000 C 
ATOM      9  C   UNL     1       0.798   2.772  18.987  0.00  0.00    +0.000 C 
ATOM     10  C   UNL     1       0.827   3.426  20.371  0.00  0.00    +0.000 C 
ATOM     11  C   UNL     1       2.143   4.093  20.771  0.00  0.00    +0.000 C 
ATOM     12  C   UNL     1       3.285   3.108  21.010  0.00  0.00    +0.000 C 
ATOM     13  C   UNL     1       4.288   3.003  19.864  0.00  0.00    +0.000 C 
ENDBRANCH   1   4
BRANCH   2  14
ATOM     14  C   UNL     1       6.837   6.353  17.712  0.00  0.00    +0.000 A 
ATOM     15  C   UNL     1       6.822   7.609  17.077  0.00  0.00    +0.000 A 
ATOM     16  C   UNL     1       7.656   8.641  17.514  0.00  0.00    +0.000 A 
ATOM     17  C   UNL     1       8.516   8.426  18.589  0.00  0.00    +0.000 A 
ATOM     18  C   UNL     1       8.534   7.187  19.229  0.00  0.00    +0.000 A 
ATOM     19  C   UNL     1       7.693   6.156  18.797  0.00  0.00    +0.000 A 
ENDBRANCH   2  14
BRANCH   1  22
ATOM     20  O   UNL     1       1.907   5.724  17.553  0.00  0.00    +0.000 OA
ATOM     21  C   UNL     1       2.686   6.450  18.160  0.00  0.00    +0.000 C 
ATOM     22  N   UNL     1       4.067   6.257  18.233  0.00  0.00    +0.000 N 
ATOM     23  H   UNL     1       4.505   6.539  19.101  0.00  0.00    +0.000 HD
BRANCH  21  24
ATOM     24  C   UNL     1       2.156   7.566  18.977  0.00  0.00    +0.000 A 
ATOM     25  C   UNL     1       1.915   7.370  20.344  0.00  0.00    +0.000 A 
ATOM     26  C   UNL     1       1.341   8.394  21.099  0.00  0.00    +0.000 A 
ATOM     27  C   UNL     1       1.003   9.602  20.488  0.00  0.00    +0.000 A 
ATOM     28  C   UNL     1       1.257   9.801  19.131  0.00  0.00    +0.000 A 
ATOM     29  C   UNL     1       1.839   8.786  18.372  0.00  0.00    +0.000 A 
ENDBRANCH  21  24
ENDBRANCH   1  22
TORSDOF 4
ENDMDL
MODEL 2
REMARK VINA RESULT:      -8.1      0.138      1.300
REMARK  Name = 
REMARK  4 active torsions:
REMARK  status: ('A' for Active; 'I' for Inactive)
REMARK    1  A    between atoms: C_2  and  C_23
REMARK    2  A    between atoms: N_3  and  C_4
REMARK    3  A    between atoms: C_4  and  C_5
REMARK    4  A    between atoms: C_15  and  C_17
REMARK                            x       y       z     vdW  Elec       q    Type
REMARK                         _______ _______ _______ _____ _____    ______ ____
ROOT
ATOM      1  C   UNL     1       4.664   5.170  17.504  0.00  0.00    +0.000 C 
ATOM      2  C   UNL     1       5.972   5.263  17.151  0.00  0.00    +0.000 C 
ATOM      3 CL   UNL     1       6.886   4.060  16.290  0.00  0.00    +0.000 Cl
ENDROOT
BRANCH   1   4
ATOM      4  C   UNL     1       3.933   3.823  17.436  0.00  0.00    +0.000 C 
ATOM      5  O   UNL     1       3.501   3.464  16.335  0.00  0.00    +0.000 OA
ATOM      6  N   UNL     1       3.793   2.950  18.533  0.00  0.00    +0.000 N 
ATOM      7  C   UNL     1       3.096   1.684  18.260  0.00  0.00    +0.000 C 
ATOM      8  C   UNL     1       1.733   1.502  18.940  0.00  0.00    +0.000 C 
ATOM      9  C   UNL     1       0.848   2.749  19.005  0.00  0.00    +0.000 C 
ATOM     10  C   UNL     1       0.859   3.459  20.361  0.00  0.00    +0.000 C 
ATOM     11  C   UNL     1       2.161   4.164  20.741  0.00  0.00    +0.000 C 
ATOM     12  C   UNL     1       3.318   3.208  21.025  0.00  0.00    +0.000 C 
ATOM     13  C   UNL     1       4.329   3.074  19.889  0.00  0.00    +0.000 C 
ENDBRANCH   1   4
BRANCH   2  14
ATOM     14  C   UNL     1       6.834   6.375  17.626  0.00  0.00    +0.000 A 
ATOM     15  C   UNL     1       7.677   6.160  18.733  0.00  0.00    +0.000 A 
ATOM     16  C   UNL     1       8.486   7.188  19.226  0.00  0.00    +0.000 A 
ATOM     17  C   UNL     1       8.457   8.441  18.618  0.00  0.00    +0.000 A 
ATOM     18  C   UNL     1       7.630   8.662  17.517  0.00  0.00    +0.000 A 
ATOM     19  C   UNL     1       6.827   7.632  17.018  0.00  0.00    +0.000 A 
ENDBRANCH   2  14
BRANCH   1  22
ATOM     20  O   UNL     1       1.908   5.611  17.516  0.00  0.00    +0.000 OA
ATOM     21  C   UNL     1       2.672   6.398  18.062  0.00  0.00    +0.000 C 
ATOM     22  N   UNL     1       4.060   6.257  18.119  0.00  0.00    +0.000 N 
ATOM     23  H   UNL     1       4.503   6.607  18.960  0.00  0.00    +0.000 HD
BRANCH  21  24
ATOM     24  C   UNL     1       2.118   7.544  18.821  0.00  0.00    +0.000 A 
ATOM     25  C   UNL     1       1.850   8.749  18.157  0.00  0.00    +0.000 A 
ATOM     26  C   UNL     1       1.405   9.854  18.885  0.00  0.00    +0.000 A 
ATOM     27  C   UNL     1       1.239   9.756  20.266  0.00  0.00    +0.000 A 
ATOM     28  C   UNL     1       1.493   8.552  20.923  0.00  0.00    +0.000 A 
ATOM     29  C   UNL     1       1.929   7.440  20.202  0.00  0.00    +0.000 A 
ENDBRANCH  21  24
ENDBRANCH   1  22
TORSDOF 4
ENDMDL
MODEL 3
REMARK VINA RESULT:      -7.4      2.649      5.043
REMARK  Name = 
REMARK  4 active torsions:
REMARK  status: ('A' for Active; 'I' for Inactive)
REMARK    1  A    between atoms: C_2  and  C_23
REMARK    2  A    between atoms: N_3  and  C_4
REMARK    3  A    between atoms: C_4  and  C_5
REMARK    4  A    between atoms: C_15  and  C_17
REMARK                            x       y       z     vdW  Elec       q    Type
REMARK                         _______ _______ _______ _____ _____    ______ ____
ROOT
ATOM      1  C   UNL     1       4.183   4.883  17.363  0.00  0.00    +0.000 C 
ATOM      2  C   UNL     1       4.858   5.458  18.392  0.00  0.00    +0.000 C 
ATOM      3 CL   UNL     1       4.417   5.381  20.072  0.00  0.00    +0.000 Cl
ENDROOT
BRANCH   1   4
ATOM      4  C   UNL     1       2.760   4.350  17.566  0.00  0.00    +0.000 C 
ATOM      5  O   UNL     1       1.823   5.117  17.316  0.00  0.00    +0.000 OA
ATOM      6  N   UNL     1       2.465   3.026  17.949  0.00  0.00    +0.000 N 
ATOM      7  C   UNL     1       1.036   2.692  18.052  0.00  0.00    +0.000 C 
ATOM      8  C   UNL     1       0.511   2.390  19.461  0.00  0.00    +0.000 C 
ATOM      9  C   UNL     1       1.072   3.264  20.584  0.00  0.00    +0.000 C 
ATOM     10  C   UNL     1       2.180   2.600  21.406  0.00  0.00    +0.000 C 
ATOM     11  C   UNL     1       3.512   2.383  20.688  0.00  0.00    +0.000 C 
ATOM     12  C   UNL     1       3.451   1.334  19.581  0.00  0.00    +0.000 C 
ATOM     13  C   UNL     1       3.374   1.901  18.165  0.00  0.00    +0.000 C 
ENDBRANCH   1   4
BRANCH   2  14
ATOM     14  C   UNL     1       5.995   6.386  18.161  0.00  0.00    +0.000 A 
ATOM     15  C   UNL     1       7.228   6.123  18.788  0.00  0.00    +0.000 A 
ATOM     16  C   UNL     1       8.315   6.983  18.615  0.00  0.00    +0.000 A 
ATOM     17  C   UNL     1       8.179   8.117  17.817  0.00  0.00    +0.000 A 
ATOM     18  C   UNL     1       6.963   8.383  17.187  0.00  0.00    +0.000 A 
ATOM     19  C   UNL     1       5.877   7.518  17.353  0.00  0.00    +0.000 A 
ENDBRANCH   2  14
BRANCH   1  22
ATOM     20  O   UNL     1       6.202   3.212  16.403  0.00  0.00    +0.000 OA
ATOM     21  C   UNL     1       5.733   4.096  15.698  0.00  0.00    +0.000 C 
ATOM     22  N   UNL     1       4.715   4.972  16.084  0.00  0.00    +0.000 N 
ATOM     23  H   UNL     1       4.082   5.262  15.348  0.00  0.00    +0.000 HD
BRANCH  21  24
ATOM     24  C   UNL     1       6.173   4.216  14.288  0.00  0.00    +0.000 A 
ATOM     25  C   UNL     1       5.536   3.456  13.298  0.00  0.00    +0.000 A 
ATOM     26  C   UNL     1       6.001   3.506  11.982  0.00  0.00    +0.000 A 
ATOM     27  C   UNL     1       7.101   4.304  11.664  0.00  0.00    +0.000 A 
ATOM     28  C   UNL     1       7.724   5.070  12.648  0.00  0.00    +0.000 A 
ATOM     29  C   UNL     1       7.260   5.033  13.963  0.00  0.00    +0.000 A 
ENDBRANCH  21  24
ENDBRANCH   1  22
TORSDOF 4
ENDMDL
MODEL 4
REMARK VINA RESULT:      -7.2      7.925     11.474
REMARK  Name = 
REMARK  4 active torsions:
REMARK  status: ('A' for Active; 'I' for Inactive)
REMARK    1  A    between atoms: C_2  and  C_23
REMARK    2  A    between atoms: N_3  and  C_4
REMARK    3  A    between atoms: C_4  and  C_5
REMARK    4  A    between atoms: C_15  and  C_17
REMARK                            x       y       z     vdW  Elec       q    Type
REMARK                         _______ _______ _______ _____ _____    ______ ____
ROOT
ATOM      1  C   UNL     1      -2.043  13.761  21.020  0.00  0.00    +0.000 C 
ATOM      2  C   UNL     1      -1.545  13.223  22.163  0.00  0.00    +0.000 C 
ATOM      3 CL   UNL     1      -1.481  14.003  23.715  0.00  0.00    +0.000 Cl
ENDROOT
BRANCH   1   4
ATOM      4  C   UNL     1      -2.327  15.265  20.927  0.00  0.00    +0.000 C 
ATOM      5  O   UNL     1      -3.509  15.617  20.832  0.00  0.00    +0.000 OA
ATOM      6  N   UNL     1      -1.333  16.259  21.015  0.00  0.00    +0.000 N 
ATOM      7  C   UNL     1      -1.807  17.650  20.946  0.00  0.00    +0.000 C 
ATOM      8  C   UNL     1      -1.392  18.446  19.703  0.00  0.00    +0.000 C 
ATOM      9  C   UNL     1      -1.400  17.673  18.382  0.00  0.00    +0.000 C 
ATOM     10  C   UNL     1      -0.018  17.204  17.918  0.00  0.00    +0.000 C 
ATOM     11  C   UNL     1       0.630  16.097  18.750  0.00  0.00    +0.000 C 
ATOM     12  C   UNL     1       1.048  16.543  20.149  0.00  0.00    +0.000 C 
ATOM     13  C   UNL     1       0.101  16.113  21.267  0.00  0.00    +0.000 C 
ENDBRANCH   1   4
BRANCH   2  14
ATOM     14  C   UNL     1      -0.827  11.923  22.168  0.00  0.00    +0.000 A 
ATOM     15  C   UNL     1      -1.210  10.935  23.095  0.00  0.00    +0.000 A 
ATOM     16  C   UNL     1      -0.544   9.708  23.147  0.00  0.00    +0.000 A 
ATOM     17  C   UNL     1       0.514   9.457  22.275  0.00  0.00    +0.000 A 
ATOM     18  C   UNL     1       0.897  10.427  21.349  0.00  0.00    +0.000 A 
ATOM     19  C   UNL     1       0.226  11.653  21.290  0.00  0.00    +0.000 A 
ENDBRANCH   2  14
BRANCH   1  22
ATOM     20  O   UNL     1      -4.299  12.320  20.231  0.00  0.00    +0.000 OA
ATOM     21  C   UNL     1      -3.268  12.280  19.572  0.00  0.00    +0.000 C 
ATOM     22  N   UNL     1      -2.095  12.973  19.878  0.00  0.00    +0.000 N 
ATOM     23  H   UNL     1      -1.549  13.287  19.085  0.00  0.00    +0.000 HD
BRANCH  21  24
ATOM     24  C   UNL     1      -3.249  11.536  18.290  0.00  0.00    +0.000 A 
ATOM     25  C   UNL     1      -2.162  10.705  17.988  0.00  0.00    +0.000 A 
ATOM     26  C   UNL     1      -2.104  10.067  16.748  0.00  0.00    +0.000 A 
ATOM     27  C   UNL     1      -3.121  10.268  15.814  0.00  0.00    +0.000 A 
ATOM     28  C   UNL     1      -4.209  11.084  16.122  0.00  0.00    +0.000 A 
ATOM     29  C   UNL     1      -4.279  11.718  17.363  0.00  0.00    +0.000 A 
ENDBRANCH  21  24
ENDBRANCH   1  22
TORSDOF 4
ENDMDL
MODEL 5
REMARK VINA RESULT:      -7.2      7.917     11.474
REMARK  Name = 
REMARK  4 active torsions:
REMARK  status: ('A' for Active; 'I' for Inactive)
REMARK    1  A    between atoms: C_2  and  C_23
REMARK    2  A    between atoms: N_3  and  C_4
REMARK    3  A    between atoms: C_4  and  C_5
REMARK    4  A    between atoms: C_15  and  C_17
REMARK                            x       y       z     vdW  Elec       q    Type
REMARK                         _______ _______ _______ _____ _____    ______ ____
ROOT
ATOM      1  C   UNL     1      -2.076  13.740  21.045  0.00  0.00    +0.000 C 
ATOM      2  C   UNL     1      -1.612  13.195  22.199  0.00  0.00    +0.000 C 
ATOM      3 CL   UNL     1      -1.614  13.956  23.761  0.00  0.00    +0.000 Cl
ENDROOT
BRANCH   1   4
ATOM      4  C   UNL     1      -2.378  15.241  20.959  0.00  0.00    +0.000 C 
ATOM      5  O   UNL     1      -3.563  15.579  20.861  0.00  0.00    +0.000 OA
ATOM      6  N   UNL     1      -1.396  16.246  21.058  0.00  0.00    +0.000 N 
ATOM      7  C   UNL     1      -1.887  17.632  20.995  0.00  0.00    +0.000 C 
ATOM      8  C   UNL     1      -1.475  18.440  19.759  0.00  0.00    +0.000 C 
ATOM      9  C   UNL     1      -1.469  17.675  18.433  0.00  0.00    +0.000 C 
ATOM     10  C   UNL     1      -0.080  17.225  17.972  0.00  0.00    +0.000 C 
ATOM     11  C   UNL     1       0.578  16.121  18.800  0.00  0.00    +0.000 C 
ATOM     12  C   UNL     1       0.985  16.564  20.203  0.00  0.00    +0.000 C 
ATOM     13  C   UNL     1       0.039  16.116  21.314  0.00  0.00    +0.000 C 
ENDBRANCH   1   4
BRANCH   2  14
ATOM     14  C   UNL     1      -0.876  11.905  22.214  0.00  0.00    +0.000 A 
ATOM     15  C   UNL     1       0.190  11.716  21.313  0.00  0.00    +0.000 A 
ATOM     16  C   UNL     1       0.892  10.509  21.279  0.00  0.00    +0.000 A 
ATOM     17  C   UNL     1       0.535   9.477  22.144  0.00  0.00    +0.000 A 
ATOM     18  C   UNL     1      -0.515   9.656  23.045  0.00  0.00    +0.000 A 
ATOM     19  C   UNL     1      -1.214  10.867  23.085  0.00  0.00    +0.000 A 
ENDBRANCH   2  14
BRANCH   1  22
ATOM     20  O   UNL     1      -4.300  12.326  20.127  0.00  0.00    +0.000 OA
ATOM     21  C   UNL     1      -3.237  12.285  19.520  0.00  0.00    +0.000 C 
ATOM     22  N   UNL     1      -2.076  12.965  19.893  0.00  0.00    +0.000 N 
ATOM     23  H   UNL     1      -1.489  13.285  19.132  0.00  0.00    +0.000 HD
BRANCH  21  24
ATOM     24  C   UNL     1      -3.159  11.556  18.233  0.00  0.00    +0.000 A 
ATOM     25  C   UNL     1      -4.204  11.674  17.306  0.00  0.00    +0.000 A 
ATOM     26  C   UNL     1      -4.171  10.926  16.128  0.00  0.00    +0.000 A 
ATOM     27  C   UNL     1      -3.106  10.059  15.885  0.00  0.00    +0.000 A 
ATOM     28  C   UNL     1      -2.060   9.954  16.801  0.00  0.00    +0.000 A 
ATOM     29  C   UNL     1      -2.080  10.705  17.976  0.00  0.00    +0.000 A 
ENDBRANCH  21  24
ENDBRANCH   1  22
TORSDOF 4
ENDMDL
MODEL 6
REMARK VINA RESULT:      -7.0      7.880     11.730
REMARK  Name = 
REMARK  4 active torsions:
REMARK  status: ('A' for Active; 'I' for Inactive)
REMARK    1  A    between atoms: C_2  and  C_23
REMARK    2  A    between atoms: N_3  and  C_4
REMARK    3  A    between atoms: C_4  and  C_5
REMARK    4  A    between atoms: C_15  and  C_17
REMARK                            x       y       z     vdW  Elec       q    Type
REMARK                         _______ _______ _______ _____ _____    ______ ____
ROOT
ATOM      1  C   UNL     1      -2.108  13.647  20.953  0.00  0.00    +0.000 C 
ATOM      2  C   UNL     1      -1.599  13.134  22.103  0.00  0.00    +0.000 C 
ATOM      3 CL   UNL     1      -1.567  13.928  23.649  0.00  0.00    +0.000 Cl
ENDROOT
BRANCH   1   4
ATOM      4  C   UNL     1      -2.439  15.141  20.847  0.00  0.00    +0.000 C 
ATOM      5  O   UNL     1      -1.537  15.899  20.473  0.00  0.00    +0.000 OA
ATOM      6  N   UNL     1      -3.720  15.680  21.078  0.00  0.00    +0.000 N 
ATOM      7  C   UNL     1      -3.850  17.132  20.885  0.00  0.00    +0.000 C 
ATOM      8  C   UNL     1      -4.128  17.961  22.145  0.00  0.00    +0.000 C 
ATOM      9  C   UNL     1      -3.387  17.521  23.410  0.00  0.00    +0.000 C 
ATOM     10  C   UNL     1      -4.234  16.696  24.382  0.00  0.00    +0.000 C 
ATOM     11  C   UNL     1      -4.612  15.289  23.918  0.00  0.00    +0.000 C 
ATOM     12  C   UNL     1      -5.599  15.270  22.753  0.00  0.00    +0.000 C 
ATOM     13  C   UNL     1      -4.972  14.989  21.389  0.00  0.00    +0.000 C 
ENDBRANCH   1   4
BRANCH   2  14
ATOM     14  C   UNL     1      -0.839  11.858  22.122  0.00  0.00    +0.000 A 
ATOM     15  C   UNL     1      -1.173  10.880  23.078  0.00  0.00    +0.000 A 
ATOM     16  C   UNL     1      -0.467   9.675  23.144  0.00  0.00    +0.000 A 
ATOM     17  C   UNL     1       0.580   9.439  22.256  0.00  0.00    +0.000 A 
ATOM     18  C   UNL     1       0.914  10.399  21.301  0.00  0.00    +0.000 A 
ATOM     19  C   UNL     1       0.204  11.601  21.229  0.00  0.00    +0.000 A 
ENDBRANCH   2  14
BRANCH   1  22
ATOM     20  O   UNL     1      -4.362  12.252  20.080  0.00  0.00    +0.000 OA
ATOM     21  C   UNL     1      -3.304  12.181  19.467  0.00  0.00    +0.000 C 
ATOM     22  N   UNL     1      -2.129  12.849  19.818  0.00  0.00    +0.000 N 
ATOM     23  H   UNL     1      -1.542  13.142  19.046  0.00  0.00    +0.000 HD
BRANCH  21  24
ATOM     24  C   UNL     1      -3.248  11.424  18.195  0.00  0.00    +0.000 A 
ATOM     25  C   UNL     1      -2.171  10.561  17.949  0.00  0.00    +0.000 A 
ATOM     26  C   UNL     1      -2.074   9.909  16.719  0.00  0.00    +0.000 A 
ATOM     27  C   UNL     1      -3.042  10.127  15.739  0.00  0.00    +0.000 A 
ATOM     28  C   UNL     1      -4.121  10.974  15.990  0.00  0.00    +0.000 A 
ATOM     29  C   UNL     1      -4.231  11.622  17.220  0.00  0.00    +0.000 A 
ENDBRANCH  21  24
ENDBRANCH   1  22
TORSDOF 4
ENDMDL
MODEL 7
REMARK VINA RESULT:      -6.8      7.738     11.603
REMARK  Name = 
REMARK  4 active torsions:
REMARK  status: ('A' for Active; 'I' for Inactive)
REMARK    1  A    between atoms: C_2  and  C_23
REMARK    2  A    between atoms: N_3  and  C_4
REMARK    3  A    between atoms: C_4  and  C_5
REMARK    4  A    between atoms: C_15  and  C_17
REMARK                            x       y       z     vdW  Elec       q    Type
REMARK                         _______ _______ _______ _____ _____    ______ ____
ROOT
ATOM      1  C   UNL     1      -1.826  13.603  20.958  0.00  0.00    +0.000 C 
ATOM      2  C   UNL     1      -1.411  13.057  22.130  0.00  0.00    +0.000 C 
ATOM      3 CL   UNL     1      -1.408  13.846  23.679  0.00  0.00    +0.000 Cl
ENDROOT
BRANCH   1   4
ATOM      4  C   UNL     1      -2.054  15.115  20.841  0.00  0.00    +0.000 C 
ATOM      5  O   UNL     1      -1.082  15.817  20.541  0.00  0.00    +0.000 OA
ATOM      6  N   UNL     1      -3.313  15.732  20.984  0.00  0.00    +0.000 N 
ATOM      7  C   UNL     1      -3.337  17.191  20.795  0.00  0.00    +0.000 C 
ATOM      8  C   UNL     1      -3.654  18.030  22.040  0.00  0.00    +0.000 C 
ATOM      9  C   UNL     1      -3.035  17.539  23.350  0.00  0.00    +0.000 C 
ATOM     10  C   UNL     1      -4.001  16.764  24.251  0.00  0.00    +0.000 C 
ATOM     11  C   UNL     1      -4.431  15.386  23.748  0.00  0.00    +0.000 C 
ATOM     12  C   UNL     1      -5.330  15.434  22.515  0.00  0.00    +0.000 C 
ATOM     13  C   UNL     1      -4.624  15.121  21.198  0.00  0.00    +0.000 C 
ENDBRANCH   1   4
BRANCH   2  14
ATOM     14  C   UNL     1      -0.736  11.735  22.182  0.00  0.00    +0.000 A 
ATOM     15  C   UNL     1       0.295  11.458  21.264  0.00  0.00    +0.000 A 
ATOM     16  C   UNL     1       0.938  10.218  21.265  0.00  0.00    +0.000 A 
ATOM     17  C   UNL     1       0.555   9.241  22.181  0.00  0.00    +0.000 A 
ATOM     18  C   UNL     1      -0.462   9.507  23.098  0.00  0.00    +0.000 A 
ATOM     19  C   UNL     1      -1.101  10.751  23.104  0.00  0.00    +0.000 A 
ENDBRANCH   2  14
BRANCH   1  22
ATOM     20  O   UNL     1      -4.100  12.295  20.007  0.00  0.00    +0.000 OA
ATOM     21  C   UNL     1      -3.026  12.185  19.428  0.00  0.00    +0.000 C 
ATOM     22  N   UNL     1      -1.839  12.809  19.819  0.00  0.00    +0.000 N 
ATOM     23  H   UNL     1      -1.218  13.082  19.068  0.00  0.00    +0.000 HD
BRANCH  21  24
ATOM     24  C   UNL     1      -2.957  11.430  18.155  0.00  0.00    +0.000 A 
ATOM     25  C   UNL     1      -3.985  11.566  17.213  0.00  0.00    +0.000 A 
ATOM     26  C   UNL     1      -3.962  10.795  16.049  0.00  0.00    +0.000 A 
ATOM     27  C   UNL     1      -2.924   9.889  15.836  0.00  0.00    +0.000 A 
ATOM     28  C   UNL     1      -1.894   9.765  16.768  0.00  0.00    +0.000 A 
ATOM     29  C   UNL     1      -1.904  10.539  17.929  0.00  0.00    +0.000 A 
ENDBRANCH  21  24
ENDBRANCH   1  22
TORSDOF 4
ENDMDL
MODEL 8
REMARK VINA RESULT:      -6.8      8.063     11.639
REMARK  Name = 
REMARK  4 active torsions:
REMARK  status: ('A' for Active; 'I' for Inactive)
REMARK    1  A    between atoms: C_2  and  C_23
REMARK    2  A    between atoms: N_3  and  C_4
REMARK    3  A    between atoms: C_4  and  C_5
REMARK    4  A    between atoms: C_15  and  C_17
REMARK                            x       y       z     vdW  Elec       q    Type
REMARK                         _______ _______ _______ _____ _____    ______ ____
ROOT
ATOM      1  C   UNL     1      -3.493  12.776  19.930  0.00  0.00    +0.000 C 
ATOM      2  C   UNL     1      -4.255  11.958  19.158  0.00  0.00    +0.000 C 
ATOM      3 CL   UNL     1      -5.869  11.424  19.520  0.00  0.00    +0.000 Cl
ENDROOT
BRANCH   1   4
ATOM      4  C   UNL     1      -3.890  13.067  21.382  0.00  0.00    +0.000 C 
ATOM      5  O   UNL     1      -3.666  12.187  22.221  0.00  0.00    +0.000 OA
ATOM      6  N   UNL     1      -4.423  14.296  21.820  0.00  0.00    +0.000 N 
ATOM      7  C   UNL     1      -4.702  14.398  23.260  0.00  0.00    +0.000 C 
ATOM      8  C   UNL     1      -6.179  14.507  23.658  0.00  0.00    +0.000 C 
ATOM      9  C   UNL     1      -7.152  13.645  22.850  0.00  0.00    +0.000 C 
ATOM     10  C   UNL     1      -7.915  14.406  21.763  0.00  0.00    +0.000 C 
ATOM     11  C   UNL     1      -7.088  14.880  20.567  0.00  0.00    +0.000 C 
ATOM     12  C   UNL     1      -6.096  15.989  20.907  0.00  0.00    +0.000 C 
ATOM     13  C   UNL     1      -4.649  15.528  21.063  0.00  0.00    +0.000 C 
ENDBRANCH   1   4
BRANCH   2  14
ATOM     14  C   UNL     1      -3.704  11.279  17.957  0.00  0.00    +0.000 A 
ATOM     15  C   UNL     1      -4.233  11.594  16.691  0.00  0.00    +0.000 A 
ATOM     16  C   UNL     1      -3.759  10.960  15.541  0.00  0.00    +0.000 A 
ATOM     17  C   UNL     1      -2.752  10.002  15.644  0.00  0.00    +0.000 A 
ATOM     18  C   UNL     1      -2.216   9.688  16.893  0.00  0.00    +0.000 A 
ATOM     19  C   UNL     1      -2.685  10.327  18.045  0.00  0.00    +0.000 A 
ENDBRANCH   2  14
BRANCH   1  22
ATOM     20  O   UNL     1      -1.081  11.647  20.765  0.00  0.00    +0.000 OA
ATOM     21  C   UNL     1      -1.097  12.556  19.943  0.00  0.00    +0.000 C 
ATOM     22  N   UNL     1      -2.250  13.174  19.457  0.00  0.00    +0.000 N 
ATOM     23  H   UNL     1      -2.210  13.485  18.493  0.00  0.00    +0.000 HD
BRANCH  21  24
ATOM     24  C   UNL     1       0.171  12.992  19.313  0.00  0.00    +0.000 A 
ATOM     25  C   UNL     1       1.086  12.032  18.860  0.00  0.00    +0.000 A 
ATOM     26  C   UNL     1       2.315  12.439  18.340  0.00  0.00    +0.000 A 
ATOM     27  C   UNL     1       2.631  13.797  18.284  0.00  0.00    +0.000 A 
ATOM     28  C   UNL     1       1.714  14.752  18.722  0.00  0.00    +0.000 A 
ATOM     29  C   UNL     1       0.479  14.354  19.234  0.00  0.00    +0.000 A 
ENDBRANCH  21  24
ENDBRANCH   1  22
TORSDOF 4
ENDMDL
MODEL 9
REMARK VINA RESULT:      -6.8      9.476     12.619
REMARK  Name = 
REMARK  4 active torsions:
REMARK  status: ('A' for Active; 'I' for Inactive)
REMARK    1  A    between atoms: C_2  and  C_23
REMARK    2  A    between atoms: N_3  and  C_4
REMARK    3  A    between atoms: C_4  and  C_5
REMARK    4  A    between atoms: C_15  and  C_17
REMARK                            x       y       z     vdW  Elec       q    Type
REMARK                         _______ _______ _______ _____ _____    ______ ____
ROOT
ATOM      1  C   UNL     1      -3.411  14.724  21.565  0.00  0.00    +0.000 C 
ATOM      2  C   UNL     1      -2.540  15.766  21.599  0.00  0.00    +0.000 C 
ATOM      3 CL   UNL     1      -2.225  16.789  22.969  0.00  0.00    +0.000 Cl
ENDROOT
BRANCH   1   4
ATOM      4  C   UNL     1      -4.448  14.539  22.680  0.00  0.00    +0.000 C 
ATOM      5  O   UNL     1      -4.049  14.087  23.760  0.00  0.00    +0.000 OA
ATOM      6  N   UNL     1      -5.800  14.919  22.565  0.00  0.00    +0.000 N 
ATOM      7  C   UNL     1      -6.631  14.700  23.759  0.00  0.00    +0.000 C 
ATOM      8  C   UNL     1      -7.729  13.637  23.633  0.00  0.00    +0.000 C 
ATOM      9  C   UNL     1      -7.355  12.381  22.843  0.00  0.00    +0.000 C 
ATOM     10  C   UNL     1      -7.879  12.361  21.405  0.00  0.00    +0.000 C 
ATOM     11  C   UNL     1      -7.235  13.358  20.441  0.00  0.00    +0.000 C 
ATOM     12  C   UNL     1      -7.578  14.814  20.741  0.00  0.00    +0.000 C 
ATOM     13  C   UNL     1      -6.480  15.595  21.460  0.00  0.00    +0.000 C 
ENDBRANCH   1   4
BRANCH   2  14
ATOM     14  C   UNL     1      -1.863  16.261  20.373  0.00  0.00    +0.000 A 
ATOM     15  C   UNL     1      -2.379  17.396  19.720  0.00  0.00    +0.000 A 
ATOM     16  C   UNL     1      -1.786  17.879  18.551  0.00  0.00    +0.000 A 
ATOM     17  C   UNL     1      -0.672  17.230  18.022  0.00  0.00    +0.000 A 
ATOM     18  C   UNL     1      -0.150  16.108  18.665  0.00  0.00    +0.000 A 
ATOM     19  C   UNL     1      -0.738  15.628  19.840  0.00  0.00    +0.000 A 
ENDBRANCH   2  14
BRANCH   1  22
ATOM     20  O   UNL     1      -2.220  12.214  21.296  0.00  0.00    +0.000 OA
ATOM     21  C   UNL     1      -2.847  12.713  20.370  0.00  0.00    +0.000 C 
ATOM     22  N   UNL     1      -3.486  13.954  20.413  0.00  0.00    +0.000 N 
ATOM     23  H   UNL     1      -4.339  14.029  19.872  0.00  0.00    +0.000 HD
BRANCH  21  24
ATOM     24  C   UNL     1      -3.057  11.934  19.128  0.00  0.00    +0.000 A 
ATOM     25  C   UNL     1      -1.964  11.321  18.501  0.00  0.00    +0.000 A 
ATOM     26  C   UNL     1      -2.147  10.654  17.288  0.00  0.00    +0.000 A 
ATOM     27  C   UNL     1      -3.412  10.609  16.704  0.00  0.00    +0.000 A 
ATOM     28  C   UNL     1      -4.502  11.207  17.336  0.00  0.00    +0.000 A 
ATOM     29  C   UNL     1      -4.330  11.867  18.552  0.00  0.00    +0.000 A 
ENDBRANCH  21  24
ENDBRANCH   1  22
TORSDOF 4
ENDMDL
