MODEL 1
REMARK VINA RESULT:      -8.5      0.000      0.000
REMARK  Name = 
REMARK  4 active torsions:
REMARK  status: ('A' for Active; 'I' for Inactive)
REMARK    1  A    between atoms: C_1  and  C_2
REMARK    2  A    between atoms: C_7  and  C_8
REMARK    3  A    between atoms: C_14  and  C_15
REMARK    4  A    between atoms: C_17  and  C_18
REMARK                            x       y       z     vdW  Elec       q    Type
REMARK                         _______ _______ _______ _____ _____    ______ ____
ROOT
ATOM      1  C   UNL     1       0.903  11.595  20.652  0.00  0.00    +0.000 C 
ATOM      2  C   UNL     1       1.375  10.417  19.804  0.00  0.00    +0.000 C 
ATOM      3  C   UNL     1       1.282   9.130  20.220  0.00  0.00    +0.000 C 
ATOM      4  O   UNL     1       0.636   8.764  21.415  0.00  0.00    +0.000 OA
ATOM      5  C   UNL     1       0.023   9.758  22.057  0.00  0.00    +0.000 A 
ATOM      6  N   UNL     1      -0.823   9.601  23.105  0.00  0.00    +0.000 N 
ATOM      7  N   UNL     1      -1.416  10.755  23.474  0.00  0.00    +0.000 NA
ATOM      8  C   UNL     1      -0.892  11.667  22.653  0.00  0.00    +0.000 A 
ATOM      9  N   UNL     1      -1.308  12.940  22.632  0.00  0.00    +0.000 N 
ATOM     10  C   UNL     1       0.044  11.103  21.765  0.00  0.00    +0.000 A 
ATOM     11  H   UNL     1      -1.080   8.745  23.582  0.00  0.00    +0.000 HD
ATOM     12  H   UNL     1      -2.184  13.113  23.114  0.00  0.00    +0.000 HD
ATOM     13  H   UNL     1      -1.242  13.465  21.764  0.00  0.00    +0.000 HD
ENDROOT
BRANCH   1  21
ATOM     14  C   UNL     1       3.529  16.611  21.089  0.00  0.00    +0.000 C 
ATOM     15  C   UNL     1       2.389  16.001  20.326  0.00  0.00    +0.000 A 
ATOM     16  C   UNL     1       1.687  16.741  19.377  0.00  0.00    +0.000 A 
ATOM     17  C   UNL     1       0.616  16.184  18.668  0.00  0.00    +0.000 A 
ATOM     18  C   UNL     1       0.273  14.852  18.933  0.00  0.00    +0.000 A 
ATOM     19  N   UNL     1      -0.720  14.070  18.400  0.00  0.00    +0.000 N 
ATOM     20  C   UNL     1      -0.696  12.785  18.909  0.00  0.00    +0.000 A 
ATOM     21  C   UNL     1       0.362  12.748  19.830  0.00  0.00    +0.000 A 
ATOM     22  C   UNL     1       0.957  14.067  19.854  0.00  0.00    +0.000 A 
ATOM     23  C   UNL     1       2.030  14.660  20.561  0.00  0.00    +0.000 A 
ATOM     24  H   UNL     1      -1.383  14.399  17.717  0.00  0.00    +0.000 HD
BRANCH  20  25
ATOM     25  C   UNL     1      -1.649  11.766  18.436  0.00  0.00    +0.000 A 
ATOM     26  C   UNL     1      -3.020  11.865  18.710  0.00  0.00    +0.000 A 
ATOM     27  C   UNL     1      -3.925  10.919  18.207  0.00  0.00    +0.000 A 
ATOM     28  C   UNL     1      -3.477   9.873  17.406  0.00  0.00    +0.000 A 
ATOM     29  C   UNL     1      -2.120   9.742  17.150  0.00  0.00    +0.000 A 
ATOM     30  C   UNL     1      -1.223  10.663  17.692  0.00  0.00    +0.000 A 
ENDBRANCH  20  25
ENDBRANCH   1  21
BRANCH   3  31
ATOM     31  C   UNL     1       1.906   8.008  19.482  0.00  0.00    +0.000 A 
ATOM     32  C   UNL     1       2.469   8.216  18.210  0.00  0.00    +0.000 A 
ATOM     33  C   UNL     1       3.110   7.182  17.523  0.00  0.00    +0.000 A 
ATOM     34  C   UNL     1       3.208   5.921  18.100  0.00  0.00    +0.000 A 
ATOM     35  C   UNL     1       2.666   5.696  19.364  0.00  0.00    +0.000 A 
ATOM     36  C   UNL     1       2.021   6.731  20.051  0.00  0.00    +0.000 A 
ENDBRANCH   3  31
TORSDOF 3
ENDMDL
MODEL 2
REMARK VINA RESULT:      -8.4      0.296      1.235
REMARK  Name = 
REMARK  4 active torsions:
REMARK  status: ('A' for Active; 'I' for Inactive)
REMARK    1  A    between atoms: C_1  and  C_2
REMARK    2  A    between atoms: C_7  and  C_8
REMARK    3  A    between atoms: C_14  and  C_15
REMARK    4  A    between atoms: C_17  and  C_18
REMARK                            x       y       z     vdW  Elec       q    Type
REMARK                         _______ _______ _______ _____ _____    ______ ____
ROOT
ATOM      1  C   UNL     1       0.720  11.774  20.707  0.00  0.00    +0.000 C 
ATOM      2  C   UNL     1       1.224  10.565  19.925  0.00  0.00    +0.000 C 
ATOM      3  C   UNL     1       1.118   9.294  20.389  0.00  0.00    +0.000 C 
ATOM      4  O   UNL     1       0.428   8.976  21.574  0.00  0.00    +0.000 OA
ATOM      5  C   UNL     1      -0.209   9.993  22.152  0.00  0.00    +0.000 A 
ATOM      6  N   UNL     1      -1.093   9.876  23.173  0.00  0.00    +0.000 N 
ATOM      7  N   UNL     1      -1.701  11.042  23.473  0.00  0.00    +0.000 NA
ATOM      8  C   UNL     1      -1.149  11.921  22.636  0.00  0.00    +0.000 A 
ATOM      9  N   UNL     1      -1.565  13.192  22.548  0.00  0.00    +0.000 N 
ATOM     10  C   UNL     1      -0.179  11.325  21.807  0.00  0.00    +0.000 A 
ATOM     11  H   UNL     1      -1.367   9.039  23.674  0.00  0.00    +0.000 HD
ATOM     12  H   UNL     1      -2.459  13.381  22.989  0.00  0.00    +0.000 HD
ATOM     13  H   UNL     1      -1.468  13.681  21.662  0.00  0.00    +0.000 HD
ENDROOT
BRANCH   1  21
ATOM     14  C   UNL     1       3.202  16.861  21.168  0.00  0.00    +0.000 C 
ATOM     15  C   UNL     1       2.127  16.203  20.351  0.00  0.00    +0.000 A 
ATOM     16  C   UNL     1       1.471  16.901  19.337  0.00  0.00    +0.000 A 
ATOM     17  C   UNL     1       0.461  16.299  18.578  0.00  0.00    +0.000 A 
ATOM     18  C   UNL     1       0.131  14.967  18.859  0.00  0.00    +0.000 A 
ATOM     19  N   UNL     1      -0.808  14.148  18.286  0.00  0.00    +0.000 N 
ATOM     20  C   UNL     1      -0.789  12.878  18.832  0.00  0.00    +0.000 A 
ATOM     21  C   UNL     1       0.208  12.891  19.820  0.00  0.00    +0.000 A 
ATOM     22  C   UNL     1       0.771  14.225  19.843  0.00  0.00    +0.000 A 
ATOM     23  C   UNL     1       1.783  14.861  20.601  0.00  0.00    +0.000 A 
ATOM     24  H   UNL     1      -1.433  14.443  17.552  0.00  0.00    +0.000 HD
BRANCH  20  25
ATOM     25  C   UNL     1      -1.687  11.825  18.328  0.00  0.00    +0.000 A 
ATOM     26  C   UNL     1      -1.198  10.746  17.578  0.00  0.00    +0.000 A 
ATOM     27  C   UNL     1      -2.053   9.719  17.152  0.00  0.00    +0.000 A 
ATOM     28  C   UNL     1      -3.405   9.745  17.485  0.00  0.00    +0.000 A 
ATOM     29  C   UNL     1      -3.911  10.820  18.200  0.00  0.00    +0.000 A 
ATOM     30  C   UNL     1      -3.060  11.858  18.581  0.00  0.00    +0.000 A 
ENDBRANCH  20  25
ENDBRANCH   1  21
BRANCH   3  31
ATOM     31  C   UNL     1       1.771   8.146  19.721  0.00  0.00    +0.000 A 
ATOM     32  C   UNL     1       1.864   6.901  20.368  0.00  0.00    +0.000 A 
ATOM     33  C   UNL     1       2.428   5.793  19.730  0.00  0.00    +0.000 A 
ATOM     34  C   UNL     1       2.903   5.908  18.429  0.00  0.00    +0.000 A 
ATOM     35  C   UNL     1       2.813   7.130  17.766  0.00  0.00    +0.000 A 
ATOM     36  C   UNL     1       2.250   8.241  18.405  0.00  0.00    +0.000 A 
ENDBRANCH   3  31
TORSDOF 3
ENDMDL
MODEL 3
REMARK VINA RESULT:      -8.3      5.556     10.553
REMARK  Name = 
REMARK  4 active torsions:
REMARK  status: ('A' for Active; 'I' for Inactive)
REMARK    1  A    between atoms: C_1  and  C_2
REMARK    2  A    between atoms: C_7  and  C_8
REMARK    3  A    between atoms: C_14  and  C_15
REMARK    4  A    between atoms: C_17  and  C_18
REMARK                            x       y       z     vdW  Elec       q    Type
REMARK                         _______ _______ _______ _____ _____    ______ ____
ROOT
ATOM      1  C   UNL     1       4.016   4.713  16.374  0.00  0.00    +0.000 C 
ATOM      2  C   UNL     1       3.654   6.075  16.958  0.00  0.00    +0.000 C 
ATOM      3  C   UNL     1       2.970   6.217  18.121  0.00  0.00    +0.000 C 
ATOM      4  O   UNL     1       2.641   5.125  18.944  0.00  0.00    +0.000 OA
ATOM      5  C   UNL     1       3.145   3.952  18.561  0.00  0.00    +0.000 A 
ATOM      6  N   UNL     1       3.128   2.819  19.306  0.00  0.00    +0.000 N 
ATOM      7  N   UNL     1       3.830   1.814  18.744  0.00  0.00    +0.000 NA
ATOM      8  C   UNL     1       4.267   2.328  17.592  0.00  0.00    +0.000 A 
ATOM      9  N   UNL     1       5.102   1.667  16.780  0.00  0.00    +0.000 N 
ATOM     10  C   UNL     1       3.837   3.656  17.409  0.00  0.00    +0.000 A 
ATOM     11  H   UNL     1       2.706   2.671  20.216  0.00  0.00    +0.000 HD
ATOM     12  H   UNL     1       5.551   0.856  17.194  0.00  0.00    +0.000 HD
ATOM     13  H   UNL     1       5.742   2.197  16.194  0.00  0.00    +0.000 HD
ENDROOT
BRANCH   1  21
ATOM     14  C   UNL     1       3.990   2.828  11.017  0.00  0.00    +0.000 C 
ATOM     15  C   UNL     1       4.964   3.409  12.001  0.00  0.00    +0.000 A 
ATOM     16  C   UNL     1       6.287   3.658  11.635  0.00  0.00    +0.000 A 
ATOM     17  C   UNL     1       7.205   4.189  12.548  0.00  0.00    +0.000 A 
ATOM     18  C   UNL     1       6.755   4.475  13.844  0.00  0.00    +0.000 A 
ATOM     19  N   UNL     1       7.430   4.985  14.923  0.00  0.00    +0.000 N 
ATOM     20  C   UNL     1       6.603   5.154  16.018  0.00  0.00    +0.000 A 
ATOM     21  C   UNL     1       5.331   4.713  15.620  0.00  0.00    +0.000 A 
ATOM     22  C   UNL     1       5.442   4.266  14.248  0.00  0.00    +0.000 A 
ATOM     23  C   UNL     1       4.538   3.720  13.306  0.00  0.00    +0.000 A 
ATOM     24  H   UNL     1       8.412   5.211  14.912  0.00  0.00    +0.000 HD
BRANCH  20  25
ATOM     25  C   UNL     1       7.115   5.735  17.271  0.00  0.00    +0.000 A 
ATOM     26  C   UNL     1       7.175   4.984  18.453  0.00  0.00    +0.000 A 
ATOM     27  C   UNL     1       7.717   5.529  19.625  0.00  0.00    +0.000 A 
ATOM     28  C   UNL     1       8.226   6.825  19.630  0.00  0.00    +0.000 A 
ATOM     29  C   UNL     1       8.146   7.592  18.478  0.00  0.00    +0.000 A 
ATOM     30  C   UNL     1       7.565   7.056  17.329  0.00  0.00    +0.000 A 
ENDBRANCH  20  25
ENDBRANCH   1  21
BRANCH   3  31
ATOM     31  C   UNL     1       2.459   7.525  18.588  0.00  0.00    +0.000 A 
ATOM     32  C   UNL     1       2.374   8.616  17.704  0.00  0.00    +0.000 A 
ATOM     33  C   UNL     1       1.842   9.842  18.114  0.00  0.00    +0.000 A 
ATOM     34  C   UNL     1       1.379   9.997  19.415  0.00  0.00    +0.000 A 
ATOM     35  C   UNL     1       1.445   8.927  20.305  0.00  0.00    +0.000 A 
ATOM     36  C   UNL     1       1.979   7.699  19.895  0.00  0.00    +0.000 A 
ENDBRANCH   3  31
TORSDOF 3
ENDMDL
MODEL 4
REMARK VINA RESULT:      -8.1      4.727      7.952
REMARK  Name = 
REMARK  4 active torsions:
REMARK  status: ('A' for Active; 'I' for Inactive)
REMARK    1  A    between atoms: C_1  and  C_2
REMARK    2  A    between atoms: C_7  and  C_8
REMARK    3  A    between atoms: C_14  and  C_15
REMARK    4  A    between atoms: C_17  and  C_18
REMARK                            x       y       z     vdW  Elec       q    Type
REMARK                         _______ _______ _______ _____ _____    ______ ____
ROOT
ATOM      1  C   UNL     1      -4.516  12.981  21.913  0.00  0.00    +0.000 C 
ATOM      2  C   UNL     1      -4.845  13.813  20.677  0.00  0.00    +0.000 C 
ATOM      3  C   UNL     1      -6.114  14.003  20.237  0.00  0.00    +0.000 C 
ATOM      4  O   UNL     1      -7.240  13.549  20.949  0.00  0.00    +0.000 OA
ATOM      5  C   UNL     1      -6.980  13.016  22.143  0.00  0.00    +0.000 A 
ATOM      6  N   UNL     1      -7.915  12.705  23.075  0.00  0.00    +0.000 N 
ATOM      7  N   UNL     1      -7.373  12.315  24.247  0.00  0.00    +0.000 NA
ATOM      8  C   UNL     1      -6.058  12.348  24.024  0.00  0.00    +0.000 A 
ATOM      9  N   UNL     1      -5.158  12.124  24.991  0.00  0.00    +0.000 N 
ATOM     10  C   UNL     1      -5.754  12.747  22.709  0.00  0.00    +0.000 A 
ATOM     11  H   UNL     1      -8.922  12.779  23.002  0.00  0.00    +0.000 HD
ATOM     12  H   UNL     1      -5.529  12.148  25.935  0.00  0.00    +0.000 HD
ATOM     13  H   UNL     1      -4.248  12.571  24.929  0.00  0.00    +0.000 HD
ENDROOT
BRANCH   1  21
ATOM     14  C   UNL     1      -5.069  17.791  24.880  0.00  0.00    +0.000 C 
ATOM     15  C   UNL     1      -4.022  16.750  24.610  0.00  0.00    +0.000 A 
ATOM     16  C   UNL     1      -2.771  16.819  25.222  0.00  0.00    +0.000 A 
ATOM     17  C   UNL     1      -1.785  15.858  24.968  0.00  0.00    +0.000 A 
ATOM     18  C   UNL     1      -2.092  14.816  24.085  0.00  0.00    +0.000 A 
ATOM     19  N   UNL     1      -1.326  13.763  23.657  0.00  0.00    +0.000 N 
ATOM     20  C   UNL     1      -2.024  12.926  22.806  0.00  0.00    +0.000 A 
ATOM     21  C   UNL     1      -3.304  13.485  22.670  0.00  0.00    +0.000 A 
ATOM     22  C   UNL     1      -3.332  14.693  23.468  0.00  0.00    +0.000 A 
ATOM     23  C   UNL     1      -4.306  15.683  23.737  0.00  0.00    +0.000 A 
ATOM     24  H   UNL     1      -0.368  13.619  23.936  0.00  0.00    +0.000 HD
BRANCH  20  25
ATOM     25  C   UNL     1      -1.402  11.705  22.266  0.00  0.00    +0.000 A 
ATOM     26  C   UNL     1      -1.116  11.573  20.900  0.00  0.00    +0.000 A 
ATOM     27  C   UNL     1      -0.472  10.430  20.406  0.00  0.00    +0.000 A 
ATOM     28  C   UNL     1      -0.086   9.410  21.271  0.00  0.00    +0.000 A 
ATOM     29  C   UNL     1      -0.388   9.510  22.621  0.00  0.00    +0.000 A 
ATOM     30  C   UNL     1      -1.068  10.632  23.095  0.00  0.00    +0.000 A 
ENDBRANCH  20  25
ENDBRANCH   1  21
BRANCH   3  31
ATOM     31  C   UNL     1      -6.418  14.650  18.940  0.00  0.00    +0.000 A 
ATOM     32  C   UNL     1      -6.809  13.879  17.832  0.00  0.00    +0.000 A 
ATOM     33  C   UNL     1      -7.152  14.477  16.616  0.00  0.00    +0.000 A 
ATOM     34  C   UNL     1      -7.116  15.861  16.490  0.00  0.00    +0.000 A 
ATOM     35  C   UNL     1      -6.741  16.645  17.579  0.00  0.00    +0.000 A 
ATOM     36  C   UNL     1      -6.395  16.045  18.796  0.00  0.00    +0.000 A 
ENDBRANCH   3  31
TORSDOF 3
ENDMDL
MODEL 5
REMARK VINA RESULT:      -7.7      1.261      4.743
REMARK  Name = 
REMARK  4 active torsions:
REMARK  status: ('A' for Active; 'I' for Inactive)
REMARK    1  A    between atoms: C_1  and  C_2
REMARK    2  A    between atoms: C_7  and  C_8
REMARK    3  A    between atoms: C_14  and  C_15
REMARK    4  A    between atoms: C_17  and  C_18
REMARK                            x       y       z     vdW  Elec       q    Type
REMARK                         _______ _______ _______ _____ _____    ______ ____
ROOT
ATOM      1  C   UNL     1       0.780  10.653  20.035  0.00  0.00    +0.000 C 
ATOM      2  C   UNL     1       1.268   9.304  19.515  0.00  0.00    +0.000 C 
ATOM      3  C   UNL     1       1.420   8.220  20.316  0.00  0.00    +0.000 C 
ATOM      4  O   UNL     1       1.028   8.215  21.667  0.00  0.00    +0.000 OA
ATOM      5  C   UNL     1       0.394   9.313  22.079  0.00  0.00    +0.000 A 
ATOM      6  N   UNL     1      -0.245   9.441  23.268  0.00  0.00    +0.000 N 
ATOM      7  N   UNL     1      -0.924  10.601  23.373  0.00  0.00    +0.000 NA
ATOM      8  C   UNL     1      -0.668  11.233  22.225  0.00  0.00    +0.000 A 
ATOM      9  N   UNL     1      -1.253  12.392  21.895  0.00  0.00    +0.000 N 
ATOM     10  C   UNL     1       0.184  10.486  21.390  0.00  0.00    +0.000 A 
ATOM     11  H   UNL     1      -0.303   8.770  24.025  0.00  0.00    +0.000 HD
ATOM     12  H   UNL     1      -2.057  12.643  22.461  0.00  0.00    +0.000 HD
ATOM     13  H   UNL     1      -1.398  12.608  20.913  0.00  0.00    +0.000 HD
ENDROOT
BRANCH   1  21
ATOM     14  C   UNL     1      -4.181   8.427  18.396  0.00  0.00    +0.000 C 
ATOM     15  C   UNL     1      -3.366   9.663  18.147  0.00  0.00    +0.000 A 
ATOM     16  C   UNL     1      -3.843  10.682  17.323  0.00  0.00    +0.000 A 
ATOM     17  C   UNL     1      -3.085  11.832  17.077  0.00  0.00    +0.000 A 
ATOM     18  C   UNL     1      -1.831  11.939  17.691  0.00  0.00    +0.000 A 
ATOM     19  N   UNL     1      -0.892  12.936  17.621  0.00  0.00    +0.000 N 
ATOM     20  C   UNL     1       0.206  12.670  18.418  0.00  0.00    +0.000 A 
ATOM     21  C   UNL     1      -0.039  11.426  19.020  0.00  0.00    +0.000 A 
ATOM     22  C   UNL     1      -1.323  10.961  18.538  0.00  0.00    +0.000 A 
ATOM     23  C   UNL     1      -2.107   9.805  18.762  0.00  0.00    +0.000 A 
ATOM     24  H   UNL     1      -0.997  13.763  17.055  0.00  0.00    +0.000 HD
BRANCH  20  25
ATOM     25  C   UNL     1       1.314  13.635  18.526  0.00  0.00    +0.000 A 
ATOM     26  C   UNL     1       2.629  13.277  18.196  0.00  0.00    +0.000 A 
ATOM     27  C   UNL     1       3.665  14.219  18.248  0.00  0.00    +0.000 A 
ATOM     28  C   UNL     1       3.402  15.537  18.612  0.00  0.00    +0.000 A 
ATOM     29  C   UNL     1       2.113  15.900  18.971  0.00  0.00    +0.000 A 
ATOM     30  C   UNL     1       1.097  14.945  18.958  0.00  0.00    +0.000 A 
ENDBRANCH  20  25
ENDBRANCH   1  21
BRANCH   3  31
ATOM     31  C   UNL     1       2.067   6.972  19.851  0.00  0.00    +0.000 A 
ATOM     32  C   UNL     1       1.918   5.777  20.577  0.00  0.00    +0.000 A 
ATOM     33  C   UNL     1       2.476   4.578  20.123  0.00  0.00    +0.000 A 
ATOM     34  C   UNL     1       3.189   4.553  18.930  0.00  0.00    +0.000 A 
ATOM     35  C   UNL     1       3.342   5.724  18.191  0.00  0.00    +0.000 A 
ATOM     36  C   UNL     1       2.784   6.925  18.646  0.00  0.00    +0.000 A 
ENDBRANCH   3  31
TORSDOF 3
ENDMDL
MODEL 6
REMARK VINA RESULT:      -7.7      1.255      4.598
REMARK  Name = 
REMARK  4 active torsions:
REMARK  status: ('A' for Active; 'I' for Inactive)
REMARK    1  A    between atoms: C_1  and  C_2
REMARK    2  A    between atoms: C_7  and  C_8
REMARK    3  A    between atoms: C_14  and  C_15
REMARK    4  A    between atoms: C_17  and  C_18
REMARK                            x       y       z     vdW  Elec       q    Type
REMARK                         _______ _______ _______ _____ _____    ______ ____
ROOT
ATOM      1  C   UNL     1       0.765  10.647  20.024  0.00  0.00    +0.000 C 
ATOM      2  C   UNL     1       1.249   9.294  19.509  0.00  0.00    +0.000 C 
ATOM      3  C   UNL     1       1.402   8.214  20.315  0.00  0.00    +0.000 C 
ATOM      4  O   UNL     1       1.015   8.217  21.668  0.00  0.00    +0.000 OA
ATOM      5  C   UNL     1       0.385   9.318  22.076  0.00  0.00    +0.000 A 
ATOM      6  N   UNL     1      -0.250   9.453  23.267  0.00  0.00    +0.000 N 
ATOM      7  N   UNL     1      -0.927  10.615  23.369  0.00  0.00    +0.000 NA
ATOM      8  C   UNL     1      -0.673  11.240  22.217  0.00  0.00    +0.000 A 
ATOM      9  N   UNL     1      -1.257  12.399  21.884  0.00  0.00    +0.000 N 
ATOM     10  C   UNL     1       0.174  10.488  21.382  0.00  0.00    +0.000 A 
ATOM     11  H   UNL     1      -0.306   8.786  24.028  0.00  0.00    +0.000 HD
ATOM     12  H   UNL     1      -2.059  12.654  22.452  0.00  0.00    +0.000 HD
ATOM     13  H   UNL     1      -1.406  12.610  20.901  0.00  0.00    +0.000 HD
ENDROOT
BRANCH   1  21
ATOM     14  C   UNL     1      -4.196   8.412  18.399  0.00  0.00    +0.000 C 
ATOM     15  C   UNL     1      -3.382   9.648  18.146  0.00  0.00    +0.000 A 
ATOM     16  C   UNL     1      -3.862  10.663  17.320  0.00  0.00    +0.000 A 
ATOM     17  C   UNL     1      -3.106  11.814  17.070  0.00  0.00    +0.000 A 
ATOM     18  C   UNL     1      -1.851  11.924  17.682  0.00  0.00    +0.000 A 
ATOM     19  N   UNL     1      -0.913  12.921  17.607  0.00  0.00    +0.000 N 
ATOM     20  C   UNL     1       0.186  12.659  18.403  0.00  0.00    +0.000 A 
ATOM     21  C   UNL     1      -0.056  11.417  19.009  0.00  0.00    +0.000 A 
ATOM     22  C   UNL     1      -1.340  10.949  18.530  0.00  0.00    +0.000 A 
ATOM     23  C   UNL     1      -2.122   9.792  18.758  0.00  0.00    +0.000 A 
ATOM     24  H   UNL     1      -1.020  13.747  17.039  0.00  0.00    +0.000 HD
BRANCH  20  25
ATOM     25  C   UNL     1       1.293  13.625  18.506  0.00  0.00    +0.000 A 
ATOM     26  C   UNL     1       1.078  14.939  18.946  0.00  0.00    +0.000 A 
ATOM     27  C   UNL     1       2.147  15.833  19.095  0.00  0.00    +0.000 A 
ATOM     28  C   UNL     1       3.450  15.424  18.825  0.00  0.00    +0.000 A 
ATOM     29  C   UNL     1       3.678  14.137  18.360  0.00  0.00    +0.000 A 
ATOM     30  C   UNL     1       2.602  13.269  18.174  0.00  0.00    +0.000 A 
ENDBRANCH  20  25
ENDBRANCH   1  21
BRANCH   3  31
ATOM     31  C   UNL     1       2.046   6.963  19.854  0.00  0.00    +0.000 A 
ATOM     32  C   UNL     1       2.840   6.954  18.694  0.00  0.00    +0.000 A 
ATOM     33  C   UNL     1       3.500   5.795  18.275  0.00  0.00    +0.000 A 
ATOM     34  C   UNL     1       3.381   4.624  19.015  0.00  0.00    +0.000 A 
ATOM     35  C   UNL     1       2.606   4.613  20.173  0.00  0.00    +0.000 A 
ATOM     36  C   UNL     1       1.944   5.773  20.591  0.00  0.00    +0.000 A 
ENDBRANCH   3  31
TORSDOF 3
ENDMDL
MODEL 7
REMARK VINA RESULT:      -7.5      2.226      4.907
REMARK  Name = 
REMARK  4 active torsions:
REMARK  status: ('A' for Active; 'I' for Inactive)
REMARK    1  A    between atoms: C_1  and  C_2
REMARK    2  A    between atoms: C_7  and  C_8
REMARK    3  A    between atoms: C_14  and  C_15
REMARK    4  A    between atoms: C_17  and  C_18
REMARK                            x       y       z     vdW  Elec       q    Type
REMARK                         _______ _______ _______ _____ _____    ______ ____
ROOT
ATOM      1  C   UNL     1      -1.125  11.136  20.522  0.00  0.00    +0.000 C 
ATOM      2  C   UNL     1       0.152  10.358  20.221  0.00  0.00    +0.000 C 
ATOM      3  C   UNL     1       0.315   9.624  19.091  0.00  0.00    +0.000 C 
ATOM      4  O   UNL     1      -0.632   9.615  18.051  0.00  0.00    +0.000 OA
ATOM      5  C   UNL     1      -1.648  10.464  18.199  0.00  0.00    +0.000 A 
ATOM      6  N   UNL     1      -2.555  10.767  17.237  0.00  0.00    +0.000 N 
ATOM      7  N   UNL     1      -3.391  11.760  17.602  0.00  0.00    +0.000 NA
ATOM      8  C   UNL     1      -3.016  12.059  18.848  0.00  0.00    +0.000 A 
ATOM      9  N   UNL     1      -3.544  13.082  19.532  0.00  0.00    +0.000 N 
ATOM     10  C   UNL     1      -1.950  11.251  19.287  0.00  0.00    +0.000 A 
ATOM     11  H   UNL     1      -2.633  10.379  16.304  0.00  0.00    +0.000 HD
ATOM     12  H   UNL     1      -4.077  13.742  18.974  0.00  0.00    +0.000 HD
ATOM     13  H   UNL     1      -2.977  13.550  20.234  0.00  0.00    +0.000 HD
ENDROOT
BRANCH   1  21
ATOM     14  C   UNL     1      -4.630  12.319  24.831  0.00  0.00    +0.000 C 
ATOM     15  C   UNL     1      -3.410  12.903  24.181  0.00  0.00    +0.000 A 
ATOM     16  C   UNL     1      -2.813  14.057  24.687  0.00  0.00    +0.000 A 
ATOM     17  C   UNL     1      -1.681  14.615  24.081  0.00  0.00    +0.000 A 
ATOM     18  C   UNL     1      -1.155  13.975  22.952  0.00  0.00    +0.000 A 
ATOM     19  N   UNL     1      -0.078  14.302  22.169  0.00  0.00    +0.000 N 
ATOM     20  C   UNL     1       0.131  13.378  21.163  0.00  0.00    +0.000 A 
ATOM     21  C   UNL     1      -0.879  12.414  21.300  0.00  0.00    +0.000 A 
ATOM     22  C   UNL     1      -1.702  12.811  22.424  0.00  0.00    +0.000 A 
ATOM     23  C   UNL     1      -2.850  12.274  23.052  0.00  0.00    +0.000 A 
ATOM     24  H   UNL     1       0.492  15.120  22.318  0.00  0.00    +0.000 HD
BRANCH  20  25
ATOM     25  C   UNL     1       1.267  13.513  20.235  0.00  0.00    +0.000 A 
ATOM     26  C   UNL     1       1.118  13.283  18.860  0.00  0.00    +0.000 A 
ATOM     27  C   UNL     1       2.192  13.470  17.978  0.00  0.00    +0.000 A 
ATOM     28  C   UNL     1       3.425  13.909  18.453  0.00  0.00    +0.000 A 
ATOM     29  C   UNL     1       3.598  14.111  19.814  0.00  0.00    +0.000 A 
ATOM     30  C   UNL     1       2.536  13.880  20.688  0.00  0.00    +0.000 A 
ENDBRANCH  20  25
ENDBRANCH   1  21
BRANCH   3  31
ATOM     31  C   UNL     1       1.473   8.724  18.888  0.00  0.00    +0.000 A 
ATOM     32  C   UNL     1       1.781   7.731  19.836  0.00  0.00    +0.000 A 
ATOM     33  C   UNL     1       2.836   6.838  19.633  0.00  0.00    +0.000 A 
ATOM     34  C   UNL     1       3.599   6.916  18.473  0.00  0.00    +0.000 A 
ATOM     35  C   UNL     1       3.305   7.886  17.517  0.00  0.00    +0.000 A 
ATOM     36  C   UNL     1       2.249   8.783  17.721  0.00  0.00    +0.000 A 
ENDBRANCH   3  31
TORSDOF 3
ENDMDL
MODEL 8
REMARK VINA RESULT:      -7.2      2.096      3.946
REMARK  Name = 
REMARK  4 active torsions:
REMARK  status: ('A' for Active; 'I' for Inactive)
REMARK    1  A    between atoms: C_1  and  C_2
REMARK    2  A    between atoms: C_7  and  C_8
REMARK    3  A    between atoms: C_14  and  C_15
REMARK    4  A    between atoms: C_17  and  C_18
REMARK                            x       y       z     vdW  Elec       q    Type
REMARK                         _______ _______ _______ _____ _____    ______ ____
ROOT
ATOM      1  C   UNL     1      -0.403  11.445  20.653  0.00  0.00    +0.000 C 
ATOM      2  C   UNL     1       0.742  10.512  20.271  0.00  0.00    +0.000 C 
ATOM      3  C   UNL     1       0.660   9.631  19.243  0.00  0.00    +0.000 C 
ATOM      4  O   UNL     1      -0.443   9.586  18.370  0.00  0.00    +0.000 OA
ATOM      5  C   UNL     1      -1.352  10.543  18.553  0.00  0.00    +0.000 A 
ATOM      6  N   UNL     1      -2.377  10.812  17.708  0.00  0.00    +0.000 N 
ATOM      7  N   UNL     1      -3.063  11.921  18.055  0.00  0.00    +0.000 NA
ATOM      8  C   UNL     1      -2.467  12.334  19.175  0.00  0.00    +0.000 A 
ATOM      9  N   UNL     1      -2.794  13.482  19.783  0.00  0.00    +0.000 N 
ATOM     10  C   UNL     1      -1.408  11.486  19.554  0.00  0.00    +0.000 A 
ATOM     11  H   UNL     1      -2.638  10.321  16.860  0.00  0.00    +0.000 HD
ATOM     12  H   UNL     1      -3.358  14.116  19.227  0.00  0.00    +0.000 HD
ATOM     13  H   UNL     1      -2.084  13.975  20.318  0.00  0.00    +0.000 HD
ENDROOT
BRANCH   1  21
ATOM     14  C   UNL     1       4.095  13.876  18.183  0.00  0.00    +0.000 C 
ATOM     15  C   UNL     1       3.115  14.176  19.280  0.00  0.00    +0.000 A 
ATOM     16  C   UNL     1       3.165  15.385  19.972  0.00  0.00    +0.000 A 
ATOM     17  C   UNL     1       2.262  15.669  21.004  0.00  0.00    +0.000 A 
ATOM     18  C   UNL     1       1.296  14.705  21.319  0.00  0.00    +0.000 A 
ATOM     19  N   UNL     1       0.311  14.717  22.271  0.00  0.00    +0.000 N 
ATOM     20  C   UNL     1      -0.464  13.573  22.228  0.00  0.00    +0.000 A 
ATOM     21  C   UNL     1       0.065  12.779  21.200  0.00  0.00    +0.000 A 
ATOM     22  C   UNL     1       1.194  13.495  20.642  0.00  0.00    +0.000 A 
ATOM     23  C   UNL     1       2.124  13.231  19.610  0.00  0.00    +0.000 A 
ATOM     24  H   UNL     1       0.172  15.474  22.922  0.00  0.00    +0.000 HD
BRANCH  20  25
ATOM     25  C   UNL     1      -1.611  13.401  23.136  0.00  0.00    +0.000 A 
ATOM     26  C   UNL     1      -1.988  14.409  24.036  0.00  0.00    +0.000 A 
ATOM     27  C   UNL     1      -3.115  14.257  24.856  0.00  0.00    +0.000 A 
ATOM     28  C   UNL     1      -3.894  13.107  24.776  0.00  0.00    +0.000 A 
ATOM     29  C   UNL     1      -3.519  12.087  23.915  0.00  0.00    +0.000 A 
ATOM     30  C   UNL     1      -2.371  12.229  23.135  0.00  0.00    +0.000 A 
ENDBRANCH  20  25
ENDBRANCH   1  21
BRANCH   3  31
ATOM     31  C   UNL     1       1.695   8.603  18.992  0.00  0.00    +0.000 A 
ATOM     32  C   UNL     1       1.900   7.557  19.910  0.00  0.00    +0.000 A 
ATOM     33  C   UNL     1       2.834   6.548  19.663  0.00  0.00    +0.000 A 
ATOM     34  C   UNL     1       3.576   6.562  18.488  0.00  0.00    +0.000 A 
ATOM     35  C   UNL     1       3.383   7.584  17.560  0.00  0.00    +0.000 A 
ATOM     36  C   UNL     1       2.448   8.596  17.809  0.00  0.00    +0.000 A 
ENDBRANCH   3  31
TORSDOF 3
ENDMDL
MODEL 9
REMARK VINA RESULT:      -7.1      3.131      6.549
REMARK  Name = 
REMARK  4 active torsions:
REMARK  status: ('A' for Active; 'I' for Inactive)
REMARK    1  A    between atoms: C_1  and  C_2
REMARK    2  A    between atoms: C_7  and  C_8
REMARK    3  A    between atoms: C_14  and  C_15
REMARK    4  A    between atoms: C_17  and  C_18
REMARK                            x       y       z     vdW  Elec       q    Type
REMARK                         _______ _______ _______ _____ _____    ______ ____
ROOT
ATOM      1  C   UNL     1      -2.408  13.382  19.551  0.00  0.00    +0.000 C 
ATOM      2  C   UNL     1      -3.297  13.420  20.791  0.00  0.00    +0.000 C 
ATOM      3  C   UNL     1      -4.450  12.711  20.889  0.00  0.00    +0.000 C 
ATOM      4  O   UNL     1      -4.861  11.793  19.906  0.00  0.00    +0.000 OA
ATOM      5  C   UNL     1      -3.986  11.582  18.923  0.00  0.00    +0.000 A 
ATOM      6  N   UNL     1      -4.085  10.600  17.993  0.00  0.00    +0.000 N 
ATOM      7  N   UNL     1      -2.995  10.519  17.203  0.00  0.00    +0.000 NA
ATOM      8  C   UNL     1      -2.209  11.509  17.631  0.00  0.00    +0.000 A 
ATOM      9  N   UNL     1      -0.969  11.698  17.161  0.00  0.00    +0.000 N 
ATOM     10  C   UNL     1      -2.796  12.232  18.686  0.00  0.00    +0.000 A 
ATOM     11  H   UNL     1      -4.830   9.925  17.869  0.00  0.00    +0.000 HD
ATOM     12  H   UNL     1      -0.588  10.921  16.630  0.00  0.00    +0.000 HD
ATOM     13  H   UNL     1      -0.271  12.120  17.768  0.00  0.00    +0.000 HD
ENDROOT
BRANCH   1  21
ATOM     14  C   UNL     1       0.209  18.088  17.748  0.00  0.00    +0.000 C 
ATOM     15  C   UNL     1       0.534  16.851  18.535  0.00  0.00    +0.000 A 
ATOM     16  C   UNL     1       1.800  16.668  19.089  0.00  0.00    +0.000 A 
ATOM     17  C   UNL     1       2.115  15.514  19.815  0.00  0.00    +0.000 A 
ATOM     18  C   UNL     1       1.116  14.545  19.980  0.00  0.00    +0.000 A 
ATOM     19  N   UNL     1       1.152  13.337  20.626  0.00  0.00    +0.000 N 
ATOM     20  C   UNL     1      -0.072  12.694  20.589  0.00  0.00    +0.000 A 
ATOM     21  C   UNL     1      -0.933  13.532  19.865  0.00  0.00    +0.000 A 
ATOM     22  C   UNL     1      -0.166  14.693  19.465  0.00  0.00    +0.000 A 
ATOM     23  C   UNL     1      -0.454  15.866  18.728  0.00  0.00    +0.000 A 
ATOM     24  H   UNL     1       1.975  12.969  21.076  0.00  0.00    +0.000 HD
BRANCH  20  25
ATOM     25  C   UNL     1      -0.267  11.400  21.266  0.00  0.00    +0.000 A 
ATOM     26  C   UNL     1       0.026  10.189  20.624  0.00  0.00    +0.000 A 
ATOM     27  C   UNL     1      -0.110   8.966  21.297  0.00  0.00    +0.000 A 
ATOM     28  C   UNL     1      -0.522   8.936  22.626  0.00  0.00    +0.000 A 
ATOM     29  C   UNL     1      -0.846  10.123  23.267  0.00  0.00    +0.000 A 
ATOM     30  C   UNL     1      -0.749  11.330  22.575  0.00  0.00    +0.000 A 
ENDBRANCH  20  25
ENDBRANCH   1  21
BRANCH   3  31
ATOM     31  C   UNL     1      -5.400  12.892  22.010  0.00  0.00    +0.000 A 
ATOM     32  C   UNL     1      -6.786  12.927  21.772  0.00  0.00    +0.000 A 
ATOM     33  C   UNL     1      -7.700  13.042  22.823  0.00  0.00    +0.000 A 
ATOM     34  C   UNL     1      -7.243  13.117  24.134  0.00  0.00    +0.000 A 
ATOM     35  C   UNL     1      -5.875  13.076  24.393  0.00  0.00    +0.000 A 
ATOM     36  C   UNL     1      -4.959  12.963  23.340  0.00  0.00    +0.000 A 
ENDBRANCH   3  31
TORSDOF 3
ENDMDL
