MODEL 1
REMARK VINA RESULT:      -6.8      0.000      0.000
REMARK  Name = 
REMARK  13 active torsions:
REMARK  status: ('A' for Active; 'I' for Inactive)
REMARK    1  A    between atoms: C_1  and  C_2
REMARK    2  A    between atoms: C_2  and  O_3
REMARK    3  A    between atoms: O_3  and  C_4
REMARK    4  A    between atoms: C_4  and  C_6
REMARK    5  A    between atoms: C_6  and  C_7
REMARK    6  A    between atoms: C_6  and  N_15
REMARK    7  A    between atoms: N_15  and  C_16
REMARK    8  A    between atoms: N_15  and  C_18
REMARK    9  A    between atoms: C_16  and  C_17
REMARK   10  A    between atoms: C_18  and  C_19
REMARK   11  A    between atoms: C_22  and  C_23
REMARK   12  A    between atoms: C_23  and  C_24
REMARK   13  A    between atoms: N_26  and  C_27
REMARK                            x       y       z     vdW  Elec       q    Type
REMARK                         _______ _______ _______ _____ _____    ______ ____
ROOT
ATOM      1  N   UNL     1       2.200   5.294  19.955  0.00  0.00    +0.000 NA
ENDROOT
BRANCH   1   2
ATOM      2  C   UNL     1       2.130   4.637  21.277  0.00  0.00    +0.000 C 
ATOM      3  C   UNL     1       1.390   3.296  21.302  0.00  0.00    +0.000 C 
ENDBRANCH   1   2
BRANCH   1   4
ATOM      4  C   UNL     1       2.880   4.448  18.919  0.00  0.00    +0.000 C 
BRANCH   4   5
ATOM      5  C   UNL     1       4.162   5.051  18.350  0.00  0.00    +0.000 A 
ATOM      6  C   UNL     1       5.362   5.058  19.079  0.00  0.00    +0.000 A 
ATOM      7  C   UNL     1       6.530   5.577  18.514  0.00  0.00    +0.000 A 
ATOM      8 CL   UNL     1       7.984   5.599  19.435  0.00  0.00    +0.000 Cl
ATOM      9  C   UNL     1       6.535   6.077  17.214  0.00  0.00    +0.000 A 
ATOM     10  C   UNL     1       5.353   6.073  16.484  0.00  0.00    +0.000 A 
ATOM     11 CL   UNL     1       5.341   6.670  14.870  0.00  0.00    +0.000 Cl
ATOM     12  C   UNL     1       4.173   5.579  17.045  0.00  0.00    +0.000 A 
ENDBRANCH   4   5
BRANCH   4  13
ATOM     13  C   UNL     1       1.916   4.039  17.773  0.00  0.00    +0.000 C 
ATOM     14  O   UNL     1       0.964   4.684  17.357  0.00  0.00    +0.000 OA
BRANCH  13  15
ATOM     15  O   UNL     1       2.266   2.785  17.336  0.00  0.00    +0.000 OA
BRANCH  15  17
ATOM     16  C   UNL     1       3.877   1.260  18.327  0.00  0.00    +0.000 C 
ATOM     17  C   UNL     1       2.455   1.780  18.341  0.00  0.00    +0.000 C 
ENDBRANCH  15  17
ENDBRANCH  13  15
ENDBRANCH   4  13
ENDBRANCH   1   4
BRANCH   1  18
ATOM     18  C   UNL     1       2.699   6.687  20.031  0.00  0.00    +0.000 C 
BRANCH  18  19
ATOM     19  C   UNL     1       1.682   7.793  20.256  0.00  0.00    +0.000 A 
ATOM     20  C   UNL     1       0.879   8.062  21.350  0.00  0.00    +0.000 A 
ATOM     21  S   UNL     1      -0.007   9.507  21.143  0.00  0.00    +0.000 S 
ATOM     22  C   UNL     1       0.714   9.703  19.605  0.00  0.00    +0.000 A 
ATOM     23  N   UNL     1       1.548   8.745  19.242  0.00  0.00    +0.000 NA
BRANCH  22  24
ATOM     24  C   UNL     1       0.393  10.904  18.782  0.00  0.00    +0.000 C 
BRANCH  24  25
ATOM     25  C   UNL     1      -1.044  10.835  18.324  0.00  0.00    +0.000 C 
ATOM     26  O   UNL     1      -1.928  11.491  18.872  0.00  0.00    +0.000 OA
ATOM     27  N   UNL     1      -1.262  10.037  17.223  0.00  0.00    +0.000 N 
ATOM     28  C   UNL     1      -2.572   9.853  16.645  0.00  0.00    +0.000 C 
ATOM     29  H   UNL     1      -0.512   9.421  16.920  0.00  0.00    +0.000 HD
ENDBRANCH  24  25
ENDBRANCH  22  24
ENDBRANCH  18  19
ENDBRANCH   1  18
TORSDOF 10
ENDMDL
MODEL 2
REMARK VINA RESULT:      -6.8      1.817      2.133
REMARK  Name = 
REMARK  13 active torsions:
REMARK  status: ('A' for Active; 'I' for Inactive)
REMARK    1  A    between atoms: C_1  and  C_2
REMARK    2  A    between atoms: C_2  and  O_3
REMARK    3  A    between atoms: O_3  and  C_4
REMARK    4  A    between atoms: C_4  and  C_6
REMARK    5  A    between atoms: C_6  and  C_7
REMARK    6  A    between atoms: C_6  and  N_15
REMARK    7  A    between atoms: N_15  and  C_16
REMARK    8  A    between atoms: N_15  and  C_18
REMARK    9  A    between atoms: C_16  and  C_17
REMARK   10  A    between atoms: C_18  and  C_19
REMARK   11  A    between atoms: C_22  and  C_23
REMARK   12  A    between atoms: C_23  and  C_24
REMARK   13  A    between atoms: N_26  and  C_27
REMARK                            x       y       z     vdW  Elec       q    Type
REMARK                         _______ _______ _______ _____ _____    ______ ____
ROOT
ATOM      1  N   UNL     1       2.274   5.607  19.461  0.00  0.00    +0.000 NA
ENDROOT
BRANCH   1   2
ATOM      2  C   UNL     1       2.126   5.355  20.910  0.00  0.00    +0.000 C 
ATOM      3  C   UNL     1       2.070   3.879  21.313  0.00  0.00    +0.000 C 
ENDBRANCH   1   2
BRANCH   1   4
ATOM      4  C   UNL     1       2.888   4.452  18.727  0.00  0.00    +0.000 C 
BRANCH   4   5
ATOM      5  C   UNL     1       4.268   4.737  18.138  0.00  0.00    +0.000 A 
ATOM      6  C   UNL     1       5.370   5.041  18.953  0.00  0.00    +0.000 A 
ATOM      7  C   UNL     1       6.630   5.254  18.387  0.00  0.00    +0.000 A 
ATOM      8 CL   UNL     1       7.963   5.651  19.401  0.00  0.00    +0.000 Cl
ATOM      9  C   UNL     1       6.824   5.147  17.012  0.00  0.00    +0.000 A 
ATOM     10  C   UNL     1       5.740   4.844  16.198  0.00  0.00    +0.000 A 
ATOM     11 CL   UNL     1       5.962   4.691  14.498  0.00  0.00    +0.000 Cl
ATOM     12  C   UNL     1       4.470   4.654  16.747  0.00  0.00    +0.000 A 
ENDBRANCH   4   5
BRANCH   4  13
ATOM     13  C   UNL     1       1.941   3.877  17.640  0.00  0.00    +0.000 C 
ATOM     14  O   UNL     1       1.000   4.456  17.115  0.00  0.00    +0.000 OA
BRANCH  13  15
ATOM     15  O   UNL     1       2.289   2.570  17.404  0.00  0.00    +0.000 OA
BRANCH  15  17
ATOM     16  C   UNL     1       3.803   1.097  18.605  0.00  0.00    +0.000 C 
ATOM     17  C   UNL     1       2.424   1.721  18.552  0.00  0.00    +0.000 C 
ENDBRANCH  15  17
ENDBRANCH  13  15
ENDBRANCH   4  13
ENDBRANCH   1   4
BRANCH   1  18
ATOM     18  C   UNL     1       2.895   6.919  19.166  0.00  0.00    +0.000 C 
BRANCH  18  19
ATOM     19  C   UNL     1       1.986   8.135  19.096  0.00  0.00    +0.000 A 
ATOM     20  C   UNL     1       1.579   8.888  18.009  0.00  0.00    +0.000 A 
ATOM     21  S   UNL     1       0.450  10.087  18.459  0.00  0.00    +0.000 S 
ATOM     22  C   UNL     1       0.562   9.553  20.080  0.00  0.00    +0.000 A 
ATOM     23  N   UNL     1       1.405   8.559  20.294  0.00  0.00    +0.000 NA
BRANCH  22  24
ATOM     24  C   UNL     1      -0.273  10.198  21.134  0.00  0.00    +0.000 C 
BRANCH  24  25
ATOM     25  C   UNL     1       0.063  11.668  21.216  0.00  0.00    +0.000 C 
ATOM     26  O   UNL     1       1.211  12.057  21.418  0.00  0.00    +0.000 OA
ATOM     27  N   UNL     1      -0.998  12.516  20.990  0.00  0.00    +0.000 N 
ATOM     28  C   UNL     1      -0.864  13.953  21.026  0.00  0.00    +0.000 C 
ATOM     29  H   UNL     1      -1.934  12.120  20.973  0.00  0.00    +0.000 HD
ENDBRANCH  24  25
ENDBRANCH  22  24
ENDBRANCH  18  19
ENDBRANCH   1  18
TORSDOF 10
ENDMDL
MODEL 3
REMARK VINA RESULT:      -6.6      1.658      2.645
REMARK  Name = 
REMARK  13 active torsions:
REMARK  status: ('A' for Active; 'I' for Inactive)
REMARK    1  A    between atoms: C_1  and  C_2
REMARK    2  A    between atoms: C_2  and  O_3
REMARK    3  A    between atoms: O_3  and  C_4
REMARK    4  A    between atoms: C_4  and  C_6
REMARK    5  A    between atoms: C_6  and  C_7
REMARK    6  A    between atoms: C_6  and  N_15
REMARK    7  A    between atoms: N_15  and  C_16
REMARK    8  A    between atoms: N_15  and  C_18
REMARK    9  A    between atoms: C_16  and  C_17
REMARK   10  A    between atoms: C_18  and  C_19
REMARK   11  A    between atoms: C_22  and  C_23
REMARK   12  A    between atoms: C_23  and  C_24
REMARK   13  A    between atoms: N_26  and  C_27
REMARK                            x       y       z     vdW  Elec       q    Type
REMARK                         _______ _______ _______ _____ _____    ______ ____
ROOT
ATOM      1  N   UNL     1       2.345   5.436  19.548  0.00  0.00    +0.000 NA
ENDROOT
BRANCH   1   2
ATOM      2  C   UNL     1       2.180   5.086  20.974  0.00  0.00    +0.000 C 
ATOM      3  C   UNL     1       1.564   3.711  21.243  0.00  0.00    +0.000 C 
ENDBRANCH   1   2
BRANCH   1   4
ATOM      4  C   UNL     1       2.934   4.319  18.738  0.00  0.00    +0.000 C 
BRANCH   4   5
ATOM      5  C   UNL     1       4.303   4.626  18.134  0.00  0.00    +0.000 A 
ATOM      6  C   UNL     1       4.504   4.669  16.746  0.00  0.00    +0.000 A 
ATOM      7  C   UNL     1       5.758   4.997  16.224  0.00  0.00    +0.000 A 
ATOM      8 CL   UNL     1       5.991   5.019  14.518  0.00  0.00    +0.000 Cl
ATOM      9  C   UNL     1       6.825   5.308  17.064  0.00  0.00    +0.000 A 
ATOM     10  C   UNL     1       6.635   5.269  18.440  0.00  0.00    +0.000 A 
ATOM     11 CL   UNL     1       7.933   5.666  19.496  0.00  0.00    +0.000 Cl
ATOM     12  C   UNL     1       5.393   4.919  18.975  0.00  0.00    +0.000 A 
ENDBRANCH   4   5
BRANCH   4  13
ATOM     13  C   UNL     1       1.958   3.813  17.642  0.00  0.00    +0.000 C 
ATOM     14  O   UNL     1       1.061   4.455  17.112  0.00  0.00    +0.000 OA
BRANCH  13  15
ATOM     15  O   UNL     1       2.219   2.486  17.403  0.00  0.00    +0.000 OA
BRANCH  15  17
ATOM     16  C   UNL     1       3.923   1.092  18.430  0.00  0.00    +0.000 C 
ATOM     17  C   UNL     1       2.530   1.674  18.544  0.00  0.00    +0.000 C 
ENDBRANCH  15  17
ENDBRANCH  13  15
ENDBRANCH   4  13
ENDBRANCH   1   4
BRANCH   1  18
ATOM     18  C   UNL     1       3.004   6.748  19.349  0.00  0.00    +0.000 C 
BRANCH  18  19
ATOM     19  C   UNL     1       2.118   7.954  19.085  0.00  0.00    +0.000 A 
ATOM     20  C   UNL     1       1.806   8.593  17.898  0.00  0.00    +0.000 A 
ATOM     21  S   UNL     1       0.660   9.837  18.134  0.00  0.00    +0.000 S 
ATOM     22  C   UNL     1       0.639   9.471  19.805  0.00  0.00    +0.000 A 
ATOM     23  N   UNL     1       1.450   8.501  20.184  0.00  0.00    +0.000 NA
BRANCH  22  24
ATOM     24  C   UNL     1      -0.267  10.224  20.718  0.00  0.00    +0.000 C 
BRANCH  24  25
ATOM     25  C   UNL     1      -0.075  11.708  20.513  0.00  0.00    +0.000 C 
ATOM     26  O   UNL     1      -0.980  12.423  20.089  0.00  0.00    +0.000 OA
ATOM     27  N   UNL     1       1.159  12.188  20.893  0.00  0.00    +0.000 N 
ATOM     28  C   UNL     1       1.520  13.580  20.770  0.00  0.00    +0.000 C 
ATOM     29  H   UNL     1       1.894  11.516  21.096  0.00  0.00    +0.000 HD
ENDBRANCH  24  25
ENDBRANCH  22  24
ENDBRANCH  18  19
ENDBRANCH   1  18
TORSDOF 10
ENDMDL
MODEL 4
REMARK VINA RESULT:      -6.6      2.084      2.878
REMARK  Name = 
REMARK  13 active torsions:
REMARK  status: ('A' for Active; 'I' for Inactive)
REMARK    1  A    between atoms: C_1  and  C_2
REMARK    2  A    between atoms: C_2  and  O_3
REMARK    3  A    between atoms: O_3  and  C_4
REMARK    4  A    between atoms: C_4  and  C_6
REMARK    5  A    between atoms: C_6  and  C_7
REMARK    6  A    between atoms: C_6  and  N_15
REMARK    7  A    between atoms: N_15  and  C_16
REMARK    8  A    between atoms: N_15  and  C_18
REMARK    9  A    between atoms: C_16  and  C_17
REMARK   10  A    between atoms: C_18  and  C_19
REMARK   11  A    between atoms: C_22  and  C_23
REMARK   12  A    between atoms: C_23  and  C_24
REMARK   13  A    between atoms: N_26  and  C_27
REMARK                            x       y       z     vdW  Elec       q    Type
REMARK                         _______ _______ _______ _____ _____    ______ ____
ROOT
ATOM      1  N   UNL     1       2.802   4.195  19.393  0.00  0.00    +0.000 NA
ENDROOT
BRANCH   1   2
ATOM      2  C   UNL     1       1.821   3.109  19.594  0.00  0.00    +0.000 C 
ATOM      3  C   UNL     1       1.148   3.083  20.969  0.00  0.00    +0.000 C 
ENDBRANCH   1   2
BRANCH   1   4
ATOM      4  C   UNL     1       4.223   3.732  19.531  0.00  0.00    +0.000 C 
BRANCH   4   5
ATOM      5  C   UNL     1       5.187   4.332  18.509  0.00  0.00    +0.000 A 
ATOM      6  C   UNL     1       5.123   3.996  17.148  0.00  0.00    +0.000 A 
ATOM      7  C   UNL     1       5.990   4.596  16.230  0.00  0.00    +0.000 A 
ATOM      8 CL   UNL     1       5.912   4.151  14.569  0.00  0.00    +0.000 Cl
ATOM      9  C   UNL     1       6.917   5.551  16.641  0.00  0.00    +0.000 A 
ATOM     10  C   UNL     1       6.987   5.891  17.986  0.00  0.00    +0.000 A 
ATOM     11 CL   UNL     1       8.113   7.080  18.511  0.00  0.00    +0.000 Cl
ATOM     12  C   UNL     1       6.143   5.281  18.917  0.00  0.00    +0.000 A 
ENDBRANCH   4   5
BRANCH   4  13
ATOM     13  C   UNL     1       4.336   2.184  19.541  0.00  0.00    +0.000 C 
ATOM     14  O   UNL     1       3.873   1.414  18.710  0.00  0.00    +0.000 OA
BRANCH  13  15
ATOM     15  O   UNL     1       4.990   1.801  20.686  0.00  0.00    +0.000 OA
BRANCH  15  17
ATOM     16  C   UNL     1       6.075   0.141  22.090  0.00  0.00    +0.000 C 
ATOM     17  C   UNL     1       5.441   0.441  20.747  0.00  0.00    +0.000 C 
ENDBRANCH  15  17
ENDBRANCH  13  15
ENDBRANCH   4  13
ENDBRANCH   1   4
BRANCH   1  18
ATOM     18  C   UNL     1       2.479   5.415  20.170  0.00  0.00    +0.000 C 
BRANCH  18  19
ATOM     19  C   UNL     1       2.383   6.731  19.417  0.00  0.00    +0.000 A 
ATOM     20  C   UNL     1       2.681   7.033  18.100  0.00  0.00    +0.000 A 
ATOM     21  S   UNL     1       2.280   8.649  17.717  0.00  0.00    +0.000 S 
ATOM     22  C   UNL     1       1.736   8.871  19.324  0.00  0.00    +0.000 A 
ATOM     23  N   UNL     1       1.862   7.823  20.117  0.00  0.00    +0.000 NA
BRANCH  22  24
ATOM     24  C   UNL     1       1.154  10.181  19.736  0.00  0.00    +0.000 C 
BRANCH  24  25
ATOM     25  C   UNL     1      -0.284  10.261  19.283  0.00  0.00    +0.000 C 
ATOM     26  O   UNL     1      -1.186   9.693  19.897  0.00  0.00    +0.000 OA
ATOM     27  N   UNL     1      -0.500  11.059  18.182  0.00  0.00    +0.000 N 
ATOM     28  C   UNL     1      -1.810  11.255  17.611  0.00  0.00    +0.000 C 
ATOM     29  H   UNL     1       0.308  11.373  17.651  0.00  0.00    +0.000 HD
ENDBRANCH  24  25
ENDBRANCH  22  24
ENDBRANCH  18  19
ENDBRANCH   1  18
TORSDOF 10
ENDMDL
MODEL 5
REMARK VINA RESULT:      -6.6      1.654      2.212
REMARK  Name = 
REMARK  13 active torsions:
REMARK  status: ('A' for Active; 'I' for Inactive)
REMARK    1  A    between atoms: C_1  and  C_2
REMARK    2  A    between atoms: C_2  and  O_3
REMARK    3  A    between atoms: O_3  and  C_4
REMARK    4  A    between atoms: C_4  and  C_6
REMARK    5  A    between atoms: C_6  and  C_7
REMARK    6  A    between atoms: C_6  and  N_15
REMARK    7  A    between atoms: N_15  and  C_16
REMARK    8  A    between atoms: N_15  and  C_18
REMARK    9  A    between atoms: C_16  and  C_17
REMARK   10  A    between atoms: C_18  and  C_19
REMARK   11  A    between atoms: C_22  and  C_23
REMARK   12  A    between atoms: C_23  and  C_24
REMARK   13  A    between atoms: N_26  and  C_27
REMARK                            x       y       z     vdW  Elec       q    Type
REMARK                         _______ _______ _______ _____ _____    ______ ____
ROOT
ATOM      1  N   UNL     1       2.187   6.638  18.777  0.00  0.00    +0.000 NA
ENDROOT
BRANCH   1   2
ATOM      2  C   UNL     1       2.364   7.165  20.147  0.00  0.00    +0.000 C 
ATOM      3  C   UNL     1       1.156   6.996  21.073  0.00  0.00    +0.000 C 
ENDBRANCH   1   2
BRANCH   1   4
ATOM      4  C   UNL     1       2.985   5.393  18.524  0.00  0.00    +0.000 C 
BRANCH   4   5
ATOM      5  C   UNL     1       4.210   5.596  17.634  0.00  0.00    +0.000 A 
ATOM      6  C   UNL     1       5.273   6.427  18.020  0.00  0.00    +0.000 A 
ATOM      7  C   UNL     1       6.400   6.558  17.203  0.00  0.00    +0.000 A 
ATOM      8 CL   UNL     1       7.682   7.602  17.683  0.00  0.00    +0.000 Cl
ATOM      9  C   UNL     1       6.503   5.853  16.006  0.00  0.00    +0.000 A 
ATOM     10  C   UNL     1       5.456   5.027  15.617  0.00  0.00    +0.000 A 
ATOM     11 CL   UNL     1       5.569   4.134  14.151  0.00  0.00    +0.000 Cl
ATOM     12  C   UNL     1       4.313   4.906  16.411  0.00  0.00    +0.000 A 
ENDBRANCH   4   5
BRANCH   4  13
ATOM     13  C   UNL     1       2.107   4.233  17.984  0.00  0.00    +0.000 C 
ATOM     14  O   UNL     1       1.158   4.334  17.218  0.00  0.00    +0.000 OA
BRANCH  13  15
ATOM     15  O   UNL     1       2.525   3.061  18.564  0.00  0.00    +0.000 OA
BRANCH  15  17
ATOM     16  C   UNL     1       1.115   3.069  20.543  0.00  0.00    +0.000 C 
ATOM     17  C   UNL     1       1.544   2.318  19.299  0.00  0.00    +0.000 C 
ENDBRANCH  15  17
ENDBRANCH  13  15
ENDBRANCH   4  13
ENDBRANCH   1   4
BRANCH   1  18
ATOM     18  C   UNL     1       2.332   7.681  17.735  0.00  0.00    +0.000 C 
BRANCH  18  19
ATOM     19  C   UNL     1       1.781   9.065  18.034  0.00  0.00    +0.000 A 
ATOM     20  C   UNL     1       2.419  10.292  18.077  0.00  0.00    +0.000 A 
ATOM     21  S   UNL     1       1.315  11.568  18.343  0.00  0.00    +0.000 S 
ATOM     22  C   UNL     1       0.042  10.426  18.397  0.00  0.00    +0.000 A 
ATOM     23  N   UNL     1       0.405   9.164  18.252  0.00  0.00    +0.000 NA
BRANCH  22  24
ATOM     24  C   UNL     1      -1.363  10.888  18.583  0.00  0.00    +0.000 C 
BRANCH  24  25
ATOM     25  C   UNL     1      -2.247  10.252  17.536  0.00  0.00    +0.000 C 
ATOM     26  O   UNL     1      -3.105   9.423  17.834  0.00  0.00    +0.000 OA
ATOM     27  N   UNL     1      -2.054  10.720  16.255  0.00  0.00    +0.000 N 
ATOM     28  C   UNL     1      -2.810  10.229  15.129  0.00  0.00    +0.000 C 
ATOM     29  H   UNL     1      -1.235  11.294  16.072  0.00  0.00    +0.000 HD
ENDBRANCH  24  25
ENDBRANCH  22  24
ENDBRANCH  18  19
ENDBRANCH   1  18
TORSDOF 10
ENDMDL
MODEL 6
REMARK VINA RESULT:      -6.6      2.192      2.799
REMARK  Name = 
REMARK  13 active torsions:
REMARK  status: ('A' for Active; 'I' for Inactive)
REMARK    1  A    between atoms: C_1  and  C_2
REMARK    2  A    between atoms: C_2  and  O_3
REMARK    3  A    between atoms: O_3  and  C_4
REMARK    4  A    between atoms: C_4  and  C_6
REMARK    5  A    between atoms: C_6  and  C_7
REMARK    6  A    between atoms: C_6  and  N_15
REMARK    7  A    between atoms: N_15  and  C_16
REMARK    8  A    between atoms: N_15  and  C_18
REMARK    9  A    between atoms: C_16  and  C_17
REMARK   10  A    between atoms: C_18  and  C_19
REMARK   11  A    between atoms: C_22  and  C_23
REMARK   12  A    between atoms: C_23  and  C_24
REMARK   13  A    between atoms: N_26  and  C_27
REMARK                            x       y       z     vdW  Elec       q    Type
REMARK                         _______ _______ _______ _____ _____    ______ ____
ROOT
ATOM      1  N   UNL     1       2.511   4.836  18.732  0.00  0.00    +0.000 NA
ENDROOT
BRANCH   1   2
ATOM      2  C   UNL     1       1.306   3.997  18.898  0.00  0.00    +0.000 C 
ATOM      3  C   UNL     1       0.690   4.008  20.299  0.00  0.00    +0.000 C 
ENDBRANCH   1   2
BRANCH   1   4
ATOM      4  C   UNL     1       3.777   4.034  18.674  0.00  0.00    +0.000 C 
BRANCH   4   5
ATOM      5  C   UNL     1       4.830   4.580  17.711  0.00  0.00    +0.000 A 
ATOM      6  C   UNL     1       5.741   5.574  18.100  0.00  0.00    +0.000 A 
ATOM      7  C   UNL     1       6.722   6.021  17.210  0.00  0.00    +0.000 A 
ATOM      8 CL   UNL     1       7.813   7.259  17.697  0.00  0.00    +0.000 Cl
ATOM      9  C   UNL     1       6.829   5.478  15.931  0.00  0.00    +0.000 A 
ATOM     10  C   UNL     1       5.933   4.492  15.538  0.00  0.00    +0.000 A 
ATOM     11 CL   UNL     1       6.059   3.795  13.971  0.00  0.00    +0.000 Cl
ATOM     12  C   UNL     1       4.933   4.053  16.410  0.00  0.00    +0.000 A 
ENDBRANCH   4   5
BRANCH   4  13
ATOM     13  C   UNL     1       3.508   2.532  18.391  0.00  0.00    +0.000 C 
ATOM     14  O   UNL     1       2.758   2.075  17.538  0.00  0.00    +0.000 OA
BRANCH  13  15
ATOM     15  O   UNL     1       4.202   1.783  19.308  0.00  0.00    +0.000 OA
BRANCH  15  17
ATOM     16  C   UNL     1       3.166   2.048  21.490  0.00  0.00    +0.000 C 
ATOM     17  C   UNL     1       4.364   2.351  20.615  0.00  0.00    +0.000 C 
ENDBRANCH  15  17
ENDBRANCH  13  15
ENDBRANCH   4  13
ENDBRANCH   1   4
BRANCH   1  18
ATOM     18  C   UNL     1       2.552   5.978  19.676  0.00  0.00    +0.000 C 
BRANCH  18  19
ATOM     19  C   UNL     1       2.311   7.370  19.117  0.00  0.00    +0.000 A 
ATOM     20  C   UNL     1       2.754   7.952  17.943  0.00  0.00    +0.000 A 
ATOM     21  S   UNL     1       2.096   9.513  17.726  0.00  0.00    +0.000 S 
ATOM     22  C   UNL     1       1.258   9.343  19.208  0.00  0.00    +0.000 A 
ATOM     23  N   UNL     1       1.466   8.208  19.850  0.00  0.00    +0.000 NA
BRANCH  22  24
ATOM     24  C   UNL     1       0.358  10.432  19.681  0.00  0.00    +0.000 C 
BRANCH  24  25
ATOM     25  C   UNL     1       0.405  10.508  21.189  0.00  0.00    +0.000 C 
ATOM     26  O   UNL     1       1.448  10.756  21.790  0.00  0.00    +0.000 OA
ATOM     27  N   UNL     1      -0.811  10.340  21.814  0.00  0.00    +0.000 N 
ATOM     28  C   UNL     1      -0.958  10.384  23.249  0.00  0.00    +0.000 C 
ATOM     29  H   UNL     1      -1.592  10.000  21.260  0.00  0.00    +0.000 HD
ENDBRANCH  24  25
ENDBRANCH  22  24
ENDBRANCH  18  19
ENDBRANCH   1  18
TORSDOF 10
ENDMDL
MODEL 7
REMARK VINA RESULT:      -6.5      3.020      4.539
REMARK  Name = 
REMARK  13 active torsions:
REMARK  status: ('A' for Active; 'I' for Inactive)
REMARK    1  A    between atoms: C_1  and  C_2
REMARK    2  A    between atoms: C_2  and  O_3
REMARK    3  A    between atoms: O_3  and  C_4
REMARK    4  A    between atoms: C_4  and  C_6
REMARK    5  A    between atoms: C_6  and  C_7
REMARK    6  A    between atoms: C_6  and  N_15
REMARK    7  A    between atoms: N_15  and  C_16
REMARK    8  A    between atoms: N_15  and  C_18
REMARK    9  A    between atoms: C_16  and  C_17
REMARK   10  A    between atoms: C_18  and  C_19
REMARK   11  A    between atoms: C_22  and  C_23
REMARK   12  A    between atoms: C_23  and  C_24
REMARK   13  A    between atoms: N_26  and  C_27
REMARK                            x       y       z     vdW  Elec       q    Type
REMARK                         _______ _______ _______ _____ _____    ______ ____
ROOT
ATOM      1  N   UNL     1       5.109   6.144  17.387  0.00  0.00    +0.000 NA
ENDROOT
BRANCH   1   2
ATOM      2  C   UNL     1       6.563   6.312  17.180  0.00  0.00    +0.000 C 
ATOM      3  C   UNL     1       7.101   7.721  17.442  0.00  0.00    +0.000 C 
ENDBRANCH   1   2
BRANCH   1   4
ATOM      4  C   UNL     1       4.575   4.884  16.773  0.00  0.00    +0.000 C 
BRANCH   4   5
ATOM      5  C   UNL     1       3.971   3.898  17.771  0.00  0.00    +0.000 A 
ATOM      6  C   UNL     1       4.750   3.282  18.763  0.00  0.00    +0.000 A 
ATOM      7  C   UNL     1       4.160   2.419  19.691  0.00  0.00    +0.000 A 
ATOM      8 CL   UNL     1       5.138   1.654  20.883  0.00  0.00    +0.000 Cl
ATOM      9  C   UNL     1       2.790   2.169  19.665  0.00  0.00    +0.000 A 
ATOM     10  C   UNL     1       2.011   2.775  18.688  0.00  0.00    +0.000 A 
ATOM     11 CL   UNL     1       0.314   2.494  18.649  0.00  0.00    +0.000 Cl
ATOM     12  C   UNL     1       2.591   3.621  17.740  0.00  0.00    +0.000 A 
ENDBRANCH   4   5
BRANCH   4  13
ATOM     13  C   UNL     1       5.628   4.175  15.879  0.00  0.00    +0.000 C 
ATOM     14  O   UNL     1       6.641   3.606  16.259  0.00  0.00    +0.000 OA
BRANCH  13  15
ATOM     15  O   UNL     1       5.273   4.350  14.564  0.00  0.00    +0.000 OA
BRANCH  15  17
ATOM     16  C   UNL     1       5.632   3.293  12.405  0.00  0.00    +0.000 C 
ATOM     17  C   UNL     1       6.260   4.016  13.579  0.00  0.00    +0.000 C 
ENDBRANCH  15  17
ENDBRANCH  13  15
ENDBRANCH   4  13
ENDBRANCH   1   4
BRANCH   1  18
ATOM     18  C   UNL     1       4.335   7.362  17.055  0.00  0.00    +0.000 C 
BRANCH  18  19
ATOM     19  C   UNL     1       3.174   7.735  17.962  0.00  0.00    +0.000 A 
ATOM     20  C   UNL     1       2.770   7.191  19.168  0.00  0.00    +0.000 A 
ATOM     21  S   UNL     1       1.466   8.059  19.847  0.00  0.00    +0.000 S 
ATOM     22  C   UNL     1       1.495   9.113  18.500  0.00  0.00    +0.000 A 
ATOM     23  N   UNL     1       2.400   8.834  17.579  0.00  0.00    +0.000 NA
BRANCH  22  24
ATOM     24  C   UNL     1       0.547  10.262  18.435  0.00  0.00    +0.000 C 
BRANCH  24  25
ATOM     25  C   UNL     1       1.241  11.518  18.905  0.00  0.00    +0.000 C 
ATOM     26  O   UNL     1       1.063  11.969  20.035  0.00  0.00    +0.000 OA
ATOM     27  N   UNL     1       2.118  12.068  17.997  0.00  0.00    +0.000 N 
ATOM     28  C   UNL     1       2.871  13.268  18.275  0.00  0.00    +0.000 C 
ATOM     29  H   UNL     1       2.101  11.722  17.042  0.00  0.00    +0.000 HD
ENDBRANCH  24  25
ENDBRANCH  22  24
ENDBRANCH  18  19
ENDBRANCH   1  18
TORSDOF 10
ENDMDL
MODEL 8
REMARK VINA RESULT:      -6.5      1.222      1.740
REMARK  Name = 
REMARK  13 active torsions:
REMARK  status: ('A' for Active; 'I' for Inactive)
REMARK    1  A    between atoms: C_1  and  C_2
REMARK    2  A    between atoms: C_2  and  O_3
REMARK    3  A    between atoms: O_3  and  C_4
REMARK    4  A    between atoms: C_4  and  C_6
REMARK    5  A    between atoms: C_6  and  C_7
REMARK    6  A    between atoms: C_6  and  N_15
REMARK    7  A    between atoms: N_15  and  C_16
REMARK    8  A    between atoms: N_15  and  C_18
REMARK    9  A    between atoms: C_16  and  C_17
REMARK   10  A    between atoms: C_18  and  C_19
REMARK   11  A    between atoms: C_22  and  C_23
REMARK   12  A    between atoms: C_23  and  C_24
REMARK   13  A    between atoms: N_26  and  C_27
REMARK                            x       y       z     vdW  Elec       q    Type
REMARK                         _______ _______ _______ _____ _____    ______ ____
ROOT
ATOM      1  N   UNL     1       2.218   5.329  19.713  0.00  0.00    +0.000 NA
ENDROOT
BRANCH   1   2
ATOM      2  C   UNL     1       2.189   4.951  21.142  0.00  0.00    +0.000 C 
ATOM      3  C   UNL     1       1.795   3.500  21.425  0.00  0.00    +0.000 C 
ENDBRANCH   1   2
BRANCH   1   4
ATOM      4  C   UNL     1       2.856   4.284  18.846  0.00  0.00    +0.000 C 
BRANCH   4   5
ATOM      5  C   UNL     1       4.207   4.687  18.258  0.00  0.00    +0.000 A 
ATOM      6  C   UNL     1       5.308   4.985  19.076  0.00  0.00    +0.000 A 
ATOM      7  C   UNL     1       6.544   5.307  18.508  0.00  0.00    +0.000 A 
ATOM      8 CL   UNL     1       7.875   5.694  19.528  0.00  0.00    +0.000 Cl
ATOM      9  C   UNL     1       6.715   5.318  17.125  0.00  0.00    +0.000 A 
ATOM     10  C   UNL     1       5.631   5.023  16.308  0.00  0.00    +0.000 A 
ATOM     11 CL   UNL     1       5.825   5.014  14.599  0.00  0.00    +0.000 Cl
ATOM     12  C   UNL     1       4.384   4.723  16.862  0.00  0.00    +0.000 A 
ENDBRANCH   4   5
BRANCH   4  13
ATOM     13  C   UNL     1       1.901   3.790  17.726  0.00  0.00    +0.000 C 
ATOM     14  O   UNL     1       1.074   4.461  17.125  0.00  0.00    +0.000 OA
BRANCH  13  15
ATOM     15  O   UNL     1       2.087   2.440  17.559  0.00  0.00    +0.000 OA
BRANCH  15  17
ATOM     16  C   UNL     1       3.993   1.103  18.255  0.00  0.00    +0.000 C 
ATOM     17  C   UNL     1       2.674   1.728  18.657  0.00  0.00    +0.000 C 
ENDBRANCH  15  17
ENDBRANCH  13  15
ENDBRANCH   4  13
ENDBRANCH   1   4
BRANCH   1  18
ATOM     18  C   UNL     1       2.726   6.703  19.491  0.00  0.00    +0.000 C 
BRANCH  18  19
ATOM     19  C   UNL     1       1.833   7.865  19.891  0.00  0.00    +0.000 A 
ATOM     20  C   UNL     1       1.441   8.302  21.144  0.00  0.00    +0.000 A 
ATOM     21  S   UNL     1       0.520   9.738  21.051  0.00  0.00    +0.000 S 
ATOM     22  C   UNL     1       0.681   9.705  19.349  0.00  0.00    +0.000 A 
ATOM     23  N   UNL     1       1.355   8.679  18.861  0.00  0.00    +0.000 NA
BRANCH  22  24
ATOM     24  C   UNL     1       0.090  10.799  18.526  0.00  0.00    +0.000 C 
BRANCH  24  25
ATOM     25  C   UNL     1       0.680  12.124  18.946  0.00  0.00    +0.000 C 
ATOM     26  O   UNL     1       0.014  12.965  19.546  0.00  0.00    +0.000 OA
ATOM     27  N   UNL     1       2.017  12.278  18.658  0.00  0.00    +0.000 N 
ATOM     28  C   UNL     1       2.748  13.478  18.988  0.00  0.00    +0.000 C 
ATOM     29  H   UNL     1       2.456  11.603  18.038  0.00  0.00    +0.000 HD
ENDBRANCH  24  25
ENDBRANCH  22  24
ENDBRANCH  18  19
ENDBRANCH   1  18
TORSDOF 10
ENDMDL
MODEL 9
REMARK VINA RESULT:      -6.5      2.947      4.717
REMARK  Name = 
REMARK  13 active torsions:
REMARK  status: ('A' for Active; 'I' for Inactive)
REMARK    1  A    between atoms: C_1  and  C_2
REMARK    2  A    between atoms: C_2  and  O_3
REMARK    3  A    between atoms: O_3  and  C_4
REMARK    4  A    between atoms: C_4  and  C_6
REMARK    5  A    between atoms: C_6  and  C_7
REMARK    6  A    between atoms: C_6  and  N_15
REMARK    7  A    between atoms: N_15  and  C_16
REMARK    8  A    between atoms: N_15  and  C_18
REMARK    9  A    between atoms: C_16  and  C_17
REMARK   10  A    between atoms: C_18  and  C_19
REMARK   11  A    between atoms: C_22  and  C_23
REMARK   12  A    between atoms: C_23  and  C_24
REMARK   13  A    between atoms: N_26  and  C_27
REMARK                            x       y       z     vdW  Elec       q    Type
REMARK                         _______ _______ _______ _____ _____    ______ ____
ROOT
ATOM      1  N   UNL     1       4.999   6.222  17.309  0.00  0.00    +0.000 NA
ENDROOT
BRANCH   1   2
ATOM      2  C   UNL     1       6.438   6.393  17.019  0.00  0.00    +0.000 C 
ATOM      3  C   UNL     1       7.369   6.259  18.227  0.00  0.00    +0.000 C 
ENDBRANCH   1   2
BRANCH   1   4
ATOM      4  C   UNL     1       4.430   4.965  16.720  0.00  0.00    +0.000 C 
BRANCH   4   5
ATOM      5  C   UNL     1       3.817   4.008  17.740  0.00  0.00    +0.000 A 
ATOM      6  C   UNL     1       2.455   3.671  17.710  0.00  0.00    +0.000 A 
ATOM      7  C   UNL     1       1.932   2.757  18.629  0.00  0.00    +0.000 A 
ATOM      8 CL   UNL     1       0.254   2.377  18.592  0.00  0.00    +0.000 Cl
ATOM      9  C   UNL     1       2.751   2.147  19.577  0.00  0.00    +0.000 A 
ATOM     10  C   UNL     1       4.101   2.473  19.613  0.00  0.00    +0.000 A 
ATOM     11 CL   UNL     1       5.134   1.718  20.763  0.00  0.00    +0.000 Cl
ATOM     12  C   UNL     1       4.632   3.403  18.716  0.00  0.00    +0.000 A 
ENDBRANCH   4   5
BRANCH   4  13
ATOM     13  C   UNL     1       5.456   4.221  15.824  0.00  0.00    +0.000 C 
ATOM     14  O   UNL     1       6.215   3.327  16.174  0.00  0.00    +0.000 OA
BRANCH  13  15
ATOM     15  O   UNL     1       5.427   4.779  14.570  0.00  0.00    +0.000 OA
BRANCH  15  17
ATOM     16  C   UNL     1       5.937   3.439  12.607  0.00  0.00    +0.000 C 
ATOM     17  C   UNL     1       6.467   4.386  13.664  0.00  0.00    +0.000 C 
ENDBRANCH  15  17
ENDBRANCH  13  15
ENDBRANCH   4  13
ENDBRANCH   1   4
BRANCH   1  18
ATOM     18  C   UNL     1       4.206   7.442  17.030  0.00  0.00    +0.000 C 
BRANCH  18  19
ATOM     19  C   UNL     1       3.073   7.785  17.982  0.00  0.00    +0.000 A 
ATOM     20  C   UNL     1       2.736   7.238  19.207  0.00  0.00    +0.000 A 
ATOM     21  S   UNL     1       1.434   8.071  19.934  0.00  0.00    +0.000 S 
ATOM     22  C   UNL     1       1.376   9.115  18.580  0.00  0.00    +0.000 A 
ATOM     23  N   UNL     1       2.250   8.857  17.625  0.00  0.00    +0.000 NA
BRANCH  22  24
ATOM     24  C   UNL     1       0.391  10.234  18.548  0.00  0.00    +0.000 C 
BRANCH  24  25
ATOM     25  C   UNL     1       1.089  11.533  18.869  0.00  0.00    +0.000 C 
ATOM     26  O   UNL     1       0.820  12.177  19.882  0.00  0.00    +0.000 OA
ATOM     27  N   UNL     1       2.075  11.895  17.978  0.00  0.00    +0.000 N 
ATOM     28  C   UNL     1       2.848  13.104  18.127  0.00  0.00    +0.000 C 
ATOM     29  H   UNL     1       2.136  11.389  17.098  0.00  0.00    +0.000 HD
ENDBRANCH  24  25
ENDBRANCH  22  24
ENDBRANCH  18  19
ENDBRANCH   1  18
TORSDOF 10
ENDMDL
