MODEL 1
REMARK VINA RESULT:      -7.7      0.000      0.000
REMARK  Name = 
REMARK  5 active torsions:
REMARK  status: ('A' for Active; 'I' for Inactive)
REMARK    1  A    between atoms: C_2  and  C_4
REMARK    2  A    between atoms: C_6  and  S_7
REMARK    3  A    between atoms: S_7  and  N_8
REMARK    4  A    between atoms: C_14  and  S_15
REMARK    5  A    between atoms: S_15  and  C_16
REMARK                            x       y       z     vdW  Elec       q    Type
REMARK                         _______ _______ _______ _____ _____    ______ ____
ROOT
ATOM      1  C   UNL     1       3.484   5.653  18.372  0.00  0.00    +0.000 A 
ATOM      2  C   UNL     1       4.872   5.863  18.361  0.00  0.00    +0.000 A 
ATOM      3  C   UNL     1       5.721   5.224  17.457  0.00  0.00    +0.000 A 
ATOM      4  C   UNL     1       5.174   4.306  16.573  0.00  0.00    +0.000 A 
ATOM      5 CL   UNL     1       6.080   3.487  15.357  0.00  0.00    +0.000 Cl
ATOM      6  C   UNL     1       3.786   3.999  16.646  0.00  0.00    +0.000 A 
ATOM      7  C   UNL     1       2.909   4.626  17.560  0.00  0.00    +0.000 A 
ENDROOT
BRANCH   1   9
ATOM      8  N   UNL     1       2.524   6.430  20.508  0.00  0.00    +0.000 N 
ATOM      9  C   UNL     1       2.794   6.683  19.207  0.00  0.00    +0.000 C 
ATOM     10  O   UNL     1       2.485   7.771  18.729  0.00  0.00    +0.000 OA
ATOM     11  H   UNL     1       2.028   7.153  21.013  0.00  0.00    +0.000 HD
ATOM     12  H   UNL     1       2.671   5.526  20.932  0.00  0.00    +0.000 HD
ENDBRANCH   1   9
BRANCH   3  13
ATOM     13  S   UNL     1       7.409   5.756  17.524  0.00  0.00    +0.000 S 
ATOM     14  O   UNL     1       7.755   6.261  16.221  0.00  0.00    +0.000 OA
ATOM     15  O   UNL     1       7.708   6.470  18.734  0.00  0.00    +0.000 OA
BRANCH  13  16
ATOM     16  N   UNL     1       8.200   4.279  17.683  0.00  0.00    +0.000 NA
ATOM     17  H   UNL     1       9.145   4.311  17.300  0.00  0.00    +0.000 HD
ATOM     18  H   UNL     1       8.149   3.948  18.647  0.00  0.00    +0.000 HD
ENDBRANCH  13  16
ENDBRANCH   3  13
BRANCH   7  19
ATOM     19  S   UNL     1       1.168   4.101  17.750  0.00  0.00    +0.000 S 
BRANCH  19  20
ATOM     20  C   UNL     1       1.075   2.502  18.734  0.00  0.00    +0.000 C 
ATOM     21  C   UNL     1       2.411   1.773  18.934  0.00  0.00    +0.000 C 
ATOM     22  C   UNL     1       3.377   2.450  19.905  0.00  0.00    +0.000 C 
ATOM     23  C   UNL     1       2.770   2.760  21.267  0.00  0.00    +0.000 C 
ATOM     24  C   UNL     1       1.358   3.332  21.214  0.00  0.00    +0.000 C 
ATOM     25  C   UNL     1       0.446   2.734  20.133  0.00  0.00    +0.000 C 
ENDBRANCH  19  20
ENDBRANCH   7  19
TORSDOF 5
ENDMDL
MODEL 2
REMARK VINA RESULT:      -7.5      3.122      4.994
REMARK  Name = 
REMARK  5 active torsions:
REMARK  status: ('A' for Active; 'I' for Inactive)
REMARK    1  A    between atoms: C_2  and  C_4
REMARK    2  A    between atoms: C_6  and  S_7
REMARK    3  A    between atoms: S_7  and  N_8
REMARK    4  A    between atoms: C_14  and  S_15
REMARK    5  A    between atoms: S_15  and  C_16
REMARK                            x       y       z     vdW  Elec       q    Type
REMARK                         _______ _______ _______ _____ _____    ______ ____
ROOT
ATOM      1  C   UNL     1       4.024   6.729  17.789  0.00  0.00    +0.000 A 
ATOM      2  C   UNL     1       3.143   7.818  17.697  0.00  0.00    +0.000 A 
ATOM      3  C   UNL     1       2.217   8.121  18.694  0.00  0.00    +0.000 A 
ATOM      4  C   UNL     1       2.130   7.279  19.792  0.00  0.00    +0.000 A 
ATOM      5 CL   UNL     1       1.083   7.555  21.134  0.00  0.00    +0.000 Cl
ATOM      6  C   UNL     1       2.938   6.109  19.848  0.00  0.00    +0.000 A 
ATOM      7  C   UNL     1       3.876   5.776  18.844  0.00  0.00    +0.000 A 
ENDROOT
BRANCH   1   9
ATOM      8  N   UNL     1       6.332   7.267  17.104  0.00  0.00    +0.000 N 
ATOM      9  C   UNL     1       5.102   6.825  16.758  0.00  0.00    +0.000 C 
ATOM     10  O   UNL     1       4.888   6.487  15.597  0.00  0.00    +0.000 OA
ATOM     11  H   UNL     1       7.011   7.339  16.356  0.00  0.00    +0.000 HD
ATOM     12  H   UNL     1       6.543   7.642  18.017  0.00  0.00    +0.000 HD
ENDBRANCH   1   9
BRANCH   3  13
ATOM     13  S   UNL     1       1.318   9.626  18.438  0.00  0.00    +0.000 S 
ATOM     14  O   UNL     1       0.172   9.312  17.625  0.00  0.00    +0.000 OA
ATOM     15  O   UNL     1       1.225  10.416  19.634  0.00  0.00    +0.000 OA
BRANCH  13  16
ATOM     16  N   UNL     1       2.386  10.466  17.444  0.00  0.00    +0.000 NA
ATOM     17  H   UNL     1       2.808  11.261  17.926  0.00  0.00    +0.000 HD
ATOM     18  H   UNL     1       3.059   9.826  17.022  0.00  0.00    +0.000 HD
ENDBRANCH  13  16
ENDBRANCH   3  13
BRANCH   7  19
ATOM     19  S   UNL     1       4.784   4.189  18.851  0.00  0.00    +0.000 S 
BRANCH  19  20
ATOM     20  C   UNL     1       3.854   2.904  17.841  0.00  0.00    +0.000 C 
ATOM     21  C   UNL     1       3.285   1.724  18.642  0.00  0.00    +0.000 C 
ATOM     22  C   UNL     1       2.089   2.062  19.529  0.00  0.00    +0.000 C 
ATOM     23  C   UNL     1       0.951   2.759  18.795  0.00  0.00    +0.000 C 
ATOM     24  C   UNL     1       1.399   3.847  17.825  0.00  0.00    +0.000 C 
ATOM     25  C   UNL     1       2.687   3.545  17.046  0.00  0.00    +0.000 C 
ENDBRANCH  19  20
ENDBRANCH   7  19
TORSDOF 5
ENDMDL
MODEL 3
REMARK VINA RESULT:      -7.2      0.923      1.201
REMARK  Name = 
REMARK  5 active torsions:
REMARK  status: ('A' for Active; 'I' for Inactive)
REMARK    1  A    between atoms: C_2  and  C_4
REMARK    2  A    between atoms: C_6  and  S_7
REMARK    3  A    between atoms: S_7  and  N_8
REMARK    4  A    between atoms: C_14  and  S_15
REMARK    5  A    between atoms: S_15  and  C_16
REMARK                            x       y       z     vdW  Elec       q    Type
REMARK                         _______ _______ _______ _____ _____    ______ ____
ROOT
ATOM      1  C   UNL     1       3.366   5.854  18.194  0.00  0.00    +0.000 A 
ATOM      2  C   UNL     1       4.722   6.198  18.078  0.00  0.00    +0.000 A 
ATOM      3  C   UNL     1       5.588   5.552  17.195  0.00  0.00    +0.000 A 
ATOM      4  C   UNL     1       5.097   4.495  16.444  0.00  0.00    +0.000 A 
ATOM      5 CL   UNL     1       6.024   3.642  15.267  0.00  0.00    +0.000 Cl
ATOM      6  C   UNL     1       3.754   4.062  16.631  0.00  0.00    +0.000 A 
ATOM      7  C   UNL     1       2.862   4.693  17.527  0.00  0.00    +0.000 A 
ENDROOT
BRANCH   1   9
ATOM      8  N   UNL     1       2.350   6.711  20.272  0.00  0.00    +0.000 N 
ATOM      9  C   UNL     1       2.614   6.895  18.958  0.00  0.00    +0.000 C 
ATOM     10  O   UNL     1       2.247   7.931  18.410  0.00  0.00    +0.000 OA
ATOM     11  H   UNL     1       1.811   7.437  20.728  0.00  0.00    +0.000 HD
ATOM     12  H   UNL     1       2.546   5.846  20.754  0.00  0.00    +0.000 HD
ENDBRANCH   1   9
BRANCH   3  13
ATOM     13  S   UNL     1       7.212   6.253  17.106  0.00  0.00    +0.000 S 
ATOM     14  O   UNL     1       7.929   5.832  18.281  0.00  0.00    +0.000 OA
ATOM     15  O   UNL     1       7.771   6.167  15.786  0.00  0.00    +0.000 OA
BRANCH  13  16
ATOM     16  N   UNL     1       6.864   7.885  17.325  0.00  0.00    +0.000 NA
ATOM     17  H   UNL     1       7.196   8.226  18.228  0.00  0.00    +0.000 HD
ATOM     18  H   UNL     1       7.189   8.430  16.526  0.00  0.00    +0.000 HD
ENDBRANCH  13  16
ENDBRANCH   3  13
BRANCH   7  19
ATOM     19  S   UNL     1       1.197   4.023  17.874  0.00  0.00    +0.000 S 
BRANCH  19  20
ATOM     20  C   UNL     1       1.333   2.398  18.811  0.00  0.00    +0.000 C 
ATOM     21  C   UNL     1       2.758   1.855  18.983  0.00  0.00    +0.000 C 
ATOM     22  C   UNL     1       3.630   2.630  19.969  0.00  0.00    +0.000 C 
ATOM     23  C   UNL     1       2.999   2.814  21.342  0.00  0.00    +0.000 C 
ATOM     24  C   UNL     1       1.521   3.188  21.312  0.00  0.00    +0.000 C 
ATOM     25  C   UNL     1       0.690   2.502  20.219  0.00  0.00    +0.000 C 
ENDBRANCH  19  20
ENDBRANCH   7  19
TORSDOF 5
ENDMDL
MODEL 4
REMARK VINA RESULT:      -7.0      3.066      5.002
REMARK  Name = 
REMARK  5 active torsions:
REMARK  status: ('A' for Active; 'I' for Inactive)
REMARK    1  A    between atoms: C_2  and  C_4
REMARK    2  A    between atoms: C_6  and  S_7
REMARK    3  A    between atoms: S_7  and  N_8
REMARK    4  A    between atoms: C_14  and  S_15
REMARK    5  A    between atoms: S_15  and  C_16
REMARK                            x       y       z     vdW  Elec       q    Type
REMARK                         _______ _______ _______ _____ _____    ______ ____
ROOT
ATOM      1  C   UNL     1       4.223   6.697  17.697  0.00  0.00    +0.000 A 
ATOM      2  C   UNL     1       3.395   7.828  17.608  0.00  0.00    +0.000 A 
ATOM      3  C   UNL     1       2.448   8.144  18.581  0.00  0.00    +0.000 A 
ATOM      4  C   UNL     1       2.284   7.275  19.649  0.00  0.00    +0.000 A 
ATOM      5 CL   UNL     1       1.203   7.560  20.961  0.00  0.00    +0.000 Cl
ATOM      6  C   UNL     1       3.037   6.068  19.697  0.00  0.00    +0.000 A 
ATOM      7  C   UNL     1       3.994   5.722  18.717  0.00  0.00    +0.000 A 
ENDROOT
BRANCH   1   9
ATOM      8  N   UNL     1       5.181   6.266  15.465  0.00  0.00    +0.000 N 
ATOM      9  C   UNL     1       5.341   6.774  16.708  0.00  0.00    +0.000 C 
ATOM     10  O   UNL     1       6.404   7.313  17.006  0.00  0.00    +0.000 OA
ATOM     11  H   UNL     1       5.984   6.320  14.850  0.00  0.00    +0.000 HD
ATOM     12  H   UNL     1       4.368   5.735  15.190  0.00  0.00    +0.000 HD
ENDBRANCH   1   9
BRANCH   3  13
ATOM     13  S   UNL     1       1.627   9.695  18.340  0.00  0.00    +0.000 S 
ATOM     14  O   UNL     1       1.101  10.108  19.614  0.00  0.00    +0.000 OA
ATOM     15  O   UNL     1       2.371  10.578  17.486  0.00  0.00    +0.000 OA
BRANCH  13  16
ATOM     16  N   UNL     1       0.304   9.211  17.418  0.00  0.00    +0.000 NA
ATOM     17  H   UNL     1      -0.292  10.001  17.167  0.00  0.00    +0.000 HD
ATOM     18  H   UNL     1       0.609   8.647  16.624  0.00  0.00    +0.000 HD
ENDBRANCH  13  16
ENDBRANCH   3  13
BRANCH   7  19
ATOM     19  S   UNL     1       4.830   4.096  18.707  0.00  0.00    +0.000 S 
BRANCH  19  20
ATOM     20  C   UNL     1       3.825   2.855  17.715  0.00  0.00    +0.000 C 
ATOM     21  C   UNL     1       3.269   1.668  18.515  0.00  0.00    +0.000 C 
ATOM     22  C   UNL     1       2.123   2.010  19.466  0.00  0.00    +0.000 C 
ATOM     23  C   UNL     1       0.968   2.749  18.803  0.00  0.00    +0.000 C 
ATOM     24  C   UNL     1       1.394   3.850  17.837  0.00  0.00    +0.000 C 
ATOM     25  C   UNL     1       2.636   3.539  16.991  0.00  0.00    +0.000 C 
ENDBRANCH  19  20
ENDBRANCH   7  19
TORSDOF 5
ENDMDL
MODEL 5
REMARK VINA RESULT:      -7.0      4.065      6.369
REMARK  Name = 
REMARK  5 active torsions:
REMARK  status: ('A' for Active; 'I' for Inactive)
REMARK    1  A    between atoms: C_2  and  C_4
REMARK    2  A    between atoms: C_6  and  S_7
REMARK    3  A    between atoms: S_7  and  N_8
REMARK    4  A    between atoms: C_14  and  S_15
REMARK    5  A    between atoms: S_15  and  C_16
REMARK                            x       y       z     vdW  Elec       q    Type
REMARK                         _______ _______ _______ _____ _____    ______ ____
ROOT
ATOM      1  C   UNL     1       1.995   6.047  20.009  0.00  0.00    +0.000 A 
ATOM      2  C   UNL     1       1.463   7.074  20.805  0.00  0.00    +0.000 A 
ATOM      3  C   UNL     1       1.314   8.381  20.342  0.00  0.00    +0.000 A 
ATOM      4  C   UNL     1       1.761   8.685  19.065  0.00  0.00    +0.000 A 
ATOM      5 CL   UNL     1       1.587  10.235  18.331  0.00  0.00    +0.000 Cl
ATOM      6  C   UNL     1       2.403   7.682  18.287  0.00  0.00    +0.000 A 
ATOM      7  C   UNL     1       2.575   6.354  18.738  0.00  0.00    +0.000 A 
ENDROOT
BRANCH   1   9
ATOM      8  N   UNL     1       0.695   3.961  20.221  0.00  0.00    +0.000 N 
ATOM      9  C   UNL     1       1.746   4.709  20.626  0.00  0.00    +0.000 C 
ATOM     10  O   UNL     1       2.501   4.269  21.489  0.00  0.00    +0.000 OA
ATOM     11  H   UNL     1       0.560   3.078  20.698  0.00  0.00    +0.000 HD
ATOM     12  H   UNL     1      -0.008   4.305  19.583  0.00  0.00    +0.000 HD
ENDBRANCH   1   9
BRANCH   3  13
ATOM     13  S   UNL     1       0.480   9.472  21.462  0.00  0.00    +0.000 S 
ATOM     14  O   UNL     1       1.415   9.826  22.498  0.00  0.00    +0.000 OA
ATOM     15  O   UNL     1      -0.322  10.447  20.777  0.00  0.00    +0.000 OA
BRANCH  13  16
ATOM     16  N   UNL     1      -0.627   8.415  22.165  0.00  0.00    +0.000 NA
ATOM     17  H   UNL     1      -0.697   8.557  23.174  0.00  0.00    +0.000 HD
ATOM     18  H   UNL     1      -1.519   8.453  21.672  0.00  0.00    +0.000 HD
ENDBRANCH  13  16
ENDBRANCH   3  13
BRANCH   7  19
ATOM     19  S   UNL     1       3.547   5.126  17.795  0.00  0.00    +0.000 S 
BRANCH  19  20
ATOM     20  C   UNL     1       4.799   5.994  16.693  0.00  0.00    +0.000 C 
ATOM     21  C   UNL     1       6.002   6.609  17.422  0.00  0.00    +0.000 C 
ATOM     22  C   UNL     1       7.010   5.600  17.970  0.00  0.00    +0.000 C 
ATOM     23  C   UNL     1       7.512   4.602  16.935  0.00  0.00    +0.000 C 
ATOM     24  C   UNL     1       6.428   4.042  16.020  0.00  0.00    +0.000 C 
ATOM     25  C   UNL     1       5.343   5.042  15.596  0.00  0.00    +0.000 C 
ENDBRANCH  19  20
ENDBRANCH   7  19
TORSDOF 5
ENDMDL
MODEL 6
REMARK VINA RESULT:      -7.0      4.009      6.279
REMARK  Name = 
REMARK  5 active torsions:
REMARK  status: ('A' for Active; 'I' for Inactive)
REMARK    1  A    between atoms: C_2  and  C_4
REMARK    2  A    between atoms: C_6  and  S_7
REMARK    3  A    between atoms: S_7  and  N_8
REMARK    4  A    between atoms: C_14  and  S_15
REMARK    5  A    between atoms: S_15  and  C_16
REMARK                            x       y       z     vdW  Elec       q    Type
REMARK                         _______ _______ _______ _____ _____    ______ ____
ROOT
ATOM      1  C   UNL     1       2.039   5.752  20.090  0.00  0.00    +0.000 A 
ATOM      2  C   UNL     1       1.468   6.841  20.768  0.00  0.00    +0.000 A 
ATOM      3  C   UNL     1       1.390   8.116  20.208  0.00  0.00    +0.000 A 
ATOM      4  C   UNL     1       1.947   8.323  18.956  0.00  0.00    +0.000 A 
ATOM      5 CL   UNL     1       1.874   9.822  18.108  0.00  0.00    +0.000 Cl
ATOM      6  C   UNL     1       2.628   7.257  18.303  0.00  0.00    +0.000 A 
ATOM      7  C   UNL     1       2.729   5.960  18.855  0.00  0.00    +0.000 A 
ENDROOT
BRANCH   1   9
ATOM      8  N   UNL     1       0.678   3.708  20.329  0.00  0.00    +0.000 N 
ATOM      9  C   UNL     1       1.707   4.465  20.773  0.00  0.00    +0.000 C 
ATOM     10  O   UNL     1       2.374   4.073  21.727  0.00  0.00    +0.000 OA
ATOM     11  H   UNL     1       0.483   2.862  20.851  0.00  0.00    +0.000 HD
ATOM     12  H   UNL     1       0.040   4.018  19.610  0.00  0.00    +0.000 HD
ENDBRANCH   1   9
BRANCH   3  13
ATOM     13  S   UNL     1       0.492   9.296  21.178  0.00  0.00    +0.000 S 
ATOM     14  O   UNL     1       1.366   9.745  22.230  0.00  0.00    +0.000 OA
ATOM     15  O   UNL     1      -0.270  10.203  20.365  0.00  0.00    +0.000 OA
BRANCH  13  16
ATOM     16  N   UNL     1      -0.652   8.300  21.908  0.00  0.00    +0.000 NA
ATOM     17  H   UNL     1      -1.100   8.756  22.703  0.00  0.00    +0.000 HD
ATOM     18  H   UNL     1      -1.303   7.934  21.212  0.00  0.00    +0.000 HD
ENDBRANCH  13  16
ENDBRANCH   3  13
BRANCH   7  19
ATOM     19  S   UNL     1       3.746   4.652  18.082  0.00  0.00    +0.000 S 
BRANCH  19  20
ATOM     20  C   UNL     1       5.483   5.290  17.748  0.00  0.00    +0.000 C 
ATOM     21  C   UNL     1       6.460   4.261  17.162  0.00  0.00    +0.000 C 
ATOM     22  C   UNL     1       6.197   3.875  15.708  0.00  0.00    +0.000 C 
ATOM     23  C   UNL     1       6.098   5.063  14.760  0.00  0.00    +0.000 C 
ATOM     24  C   UNL     1       5.290   6.237  15.302  0.00  0.00    +0.000 C 
ATOM     25  C   UNL     1       5.462   6.518  16.802  0.00  0.00    +0.000 C 
ENDBRANCH  19  20
ENDBRANCH   7  19
TORSDOF 5
ENDMDL
MODEL 7
REMARK VINA RESULT:      -7.0      4.107      6.541
REMARK  Name = 
REMARK  5 active torsions:
REMARK  status: ('A' for Active; 'I' for Inactive)
REMARK    1  A    between atoms: C_2  and  C_4
REMARK    2  A    between atoms: C_6  and  S_7
REMARK    3  A    between atoms: S_7  and  N_8
REMARK    4  A    between atoms: C_14  and  S_15
REMARK    5  A    between atoms: S_15  and  C_16
REMARK                            x       y       z     vdW  Elec       q    Type
REMARK                         _______ _______ _______ _____ _____    ______ ____
ROOT
ATOM      1  C   UNL     1       2.022   6.228  20.097  0.00  0.00    +0.000 A 
ATOM      2  C   UNL     1       1.286   7.217  20.769  0.00  0.00    +0.000 A 
ATOM      3  C   UNL     1       1.112   8.502  20.256  0.00  0.00    +0.000 A 
ATOM      4  C   UNL     1       1.738   8.827  19.062  0.00  0.00    +0.000 A 
ATOM      5 CL   UNL     1       1.565  10.349  18.271  0.00  0.00    +0.000 Cl
ATOM      6  C   UNL     1       2.578   7.872  18.425  0.00  0.00    +0.000 A 
ATOM      7  C   UNL     1       2.778   6.567  18.931  0.00  0.00    +0.000 A 
ENDROOT
BRANCH   1   9
ATOM      8  N   UNL     1       0.751   4.121  20.267  0.00  0.00    +0.000 N 
ATOM      9  C   UNL     1       1.782   4.882  20.698  0.00  0.00    +0.000 C 
ATOM     10  O   UNL     1       2.527   4.445  21.573  0.00  0.00    +0.000 OA
ATOM     11  H   UNL     1       0.621   3.232  20.734  0.00  0.00    +0.000 HD
ATOM     12  H   UNL     1       0.055   4.459  19.618  0.00  0.00    +0.000 HD
ENDBRANCH   1   9
BRANCH   3  13
ATOM     13  S   UNL     1       0.019   9.532  21.196  0.00  0.00    +0.000 S 
ATOM     14  O   UNL     1      -0.802  10.257  20.261  0.00  0.00    +0.000 OA
ATOM     15  O   UNL     1      -0.525   8.852  22.337  0.00  0.00    +0.000 OA
BRANCH  13  16
ATOM     16  N   UNL     1       1.107  10.648  21.831  0.00  0.00    +0.000 NA
ATOM     17  H   UNL     1       2.034  10.555  21.414  0.00  0.00    +0.000 HD
ATOM     18  H   UNL     1       0.720  11.591  21.786  0.00  0.00    +0.000 HD
ENDBRANCH  13  16
ENDBRANCH   3  13
BRANCH   7  19
ATOM     19  S   UNL     1       3.988   5.413  18.192  0.00  0.00    +0.000 S 
BRANCH  19  20
ATOM     20  C   UNL     1       5.342   6.369  17.305  0.00  0.00    +0.000 C 
ATOM     21  C   UNL     1       6.778   5.942  17.641  0.00  0.00    +0.000 C 
ATOM     22  C   UNL     1       7.199   4.589  17.070  0.00  0.00    +0.000 C 
ATOM     23  C   UNL     1       6.977   4.454  15.569  0.00  0.00    +0.000 C 
ATOM     24  C   UNL     1       5.645   5.008  15.075  0.00  0.00    +0.000 C 
ATOM     25  C   UNL     1       5.171   6.295  15.765  0.00  0.00    +0.000 C 
ENDBRANCH  19  20
ENDBRANCH   7  19
TORSDOF 5
ENDMDL
MODEL 8
REMARK VINA RESULT:      -6.9      2.869      3.793
REMARK  Name = 
REMARK  5 active torsions:
REMARK  status: ('A' for Active; 'I' for Inactive)
REMARK    1  A    between atoms: C_2  and  C_4
REMARK    2  A    between atoms: C_6  and  S_7
REMARK    3  A    between atoms: S_7  and  N_8
REMARK    4  A    between atoms: C_14  and  S_15
REMARK    5  A    between atoms: S_15  and  C_16
REMARK                            x       y       z     vdW  Elec       q    Type
REMARK                         _______ _______ _______ _____ _____    ______ ____
ROOT
ATOM      1  C   UNL     1       4.201   3.212  18.055  0.00  0.00    +0.000 A 
ATOM      2  C   UNL     1       4.851   3.620  16.879  0.00  0.00    +0.000 A 
ATOM      3  C   UNL     1       5.809   4.633  16.863  0.00  0.00    +0.000 A 
ATOM      4  C   UNL     1       6.088   5.296  18.048  0.00  0.00    +0.000 A 
ATOM      5 CL   UNL     1       7.290   6.522  18.202  0.00  0.00    +0.000 Cl
ATOM      6  C   UNL     1       5.359   4.971  19.226  0.00  0.00    +0.000 A 
ATOM      7  C   UNL     1       4.376   3.956  19.263  0.00  0.00    +0.000 A 
ENDROOT
BRANCH   1   9
ATOM      8  N   UNL     1       4.006   0.766  18.312  0.00  0.00    +0.000 N 
ATOM      9  C   UNL     1       3.478   1.921  17.845  0.00  0.00    +0.000 C 
ATOM     10  O   UNL     1       2.394   1.897  17.268  0.00  0.00    +0.000 OA
ATOM     11  H   UNL     1       3.485  -0.079  18.113  0.00  0.00    +0.000 HD
ATOM     12  H   UNL     1       4.930   0.709  18.713  0.00  0.00    +0.000 HD
ENDBRANCH   1   9
BRANCH   3  13
ATOM     13  S   UNL     1       6.607   4.873  15.300  0.00  0.00    +0.000 S 
ATOM     14  O   UNL     1       5.950   5.974  14.644  0.00  0.00    +0.000 OA
ATOM     15  O   UNL     1       8.036   4.771  15.395  0.00  0.00    +0.000 OA
BRANCH  13  16
ATOM     16  N   UNL     1       6.125   3.482  14.483  0.00  0.00    +0.000 NA
ATOM     17  H   UNL     1       5.824   3.687  13.529  0.00  0.00    +0.000 HD
ATOM     18  H   UNL     1       6.845   2.761  14.549  0.00  0.00    +0.000 HD
ENDBRANCH  13  16
ENDBRANCH   3  13
BRANCH   7  19
ATOM     19  S   UNL     1       3.336   3.665  20.739  0.00  0.00    +0.000 S 
BRANCH  19  20
ATOM     20  C   UNL     1       1.705   4.586  20.576  0.00  0.00    +0.000 C 
ATOM     21  C   UNL     1       1.782   6.104  20.794  0.00  0.00    +0.000 C 
ATOM     22  C   UNL     1       2.468   6.883  19.673  0.00  0.00    +0.000 C 
ATOM     23  C   UNL     1       1.896   6.607  18.289  0.00  0.00    +0.000 C 
ATOM     24  C   UNL     1       1.606   5.137  18.007  0.00  0.00    +0.000 C 
ATOM     25  C   UNL     1       1.050   4.337  19.193  0.00  0.00    +0.000 C 
ENDBRANCH  19  20
ENDBRANCH   7  19
TORSDOF 5
ENDMDL
MODEL 9
REMARK VINA RESULT:      -6.9      4.138      6.428
REMARK  Name = 
REMARK  5 active torsions:
REMARK  status: ('A' for Active; 'I' for Inactive)
REMARK    1  A    between atoms: C_2  and  C_4
REMARK    2  A    between atoms: C_6  and  S_7
REMARK    3  A    between atoms: S_7  and  N_8
REMARK    4  A    between atoms: C_14  and  S_15
REMARK    5  A    between atoms: S_15  and  C_16
REMARK                            x       y       z     vdW  Elec       q    Type
REMARK                         _______ _______ _______ _____ _____    ______ ____
ROOT
ATOM      1  C   UNL     1       2.019   6.268  19.992  0.00  0.00    +0.000 A 
ATOM      2  C   UNL     1       1.445   7.316  20.731  0.00  0.00    +0.000 A 
ATOM      3  C   UNL     1       1.320   8.610  20.226  0.00  0.00    +0.000 A 
ATOM      4  C   UNL     1       1.833   8.880  18.967  0.00  0.00    +0.000 A 
ATOM      5 CL   UNL     1       1.699  10.409  18.183  0.00  0.00    +0.000 Cl
ATOM      6  C   UNL     1       2.517   7.858  18.251  0.00  0.00    +0.000 A 
ATOM      7  C   UNL     1       2.665   6.542  18.746  0.00  0.00    +0.000 A 
ENDROOT
BRANCH   1   9
ATOM      8  N   UNL     1       2.577   4.460  21.574  0.00  0.00    +0.000 N 
ATOM      9  C   UNL     1       1.738   4.947  20.632  0.00  0.00    +0.000 C 
ATOM     10  O   UNL     1       0.739   4.303  20.324  0.00  0.00    +0.000 OA
ATOM     11  H   UNL     1       2.351   3.546  21.949  0.00  0.00    +0.000 HD
ATOM     12  H   UNL     1       3.457   4.898  21.804  0.00  0.00    +0.000 HD
ENDBRANCH   1   9
BRANCH   3  13
ATOM     13  S   UNL     1       0.427   9.728  21.270  0.00  0.00    +0.000 S 
ATOM     14  O   UNL     1      -0.240   8.942  22.275  0.00  0.00    +0.000 OA
ATOM     15  O   UNL     1       1.189  10.904  21.587  0.00  0.00    +0.000 OA
BRANCH  13  16
ATOM     16  N   UNL     1      -0.771  10.258  20.213  0.00  0.00    +0.000 NA
ATOM     17  H   UNL     1      -1.543  10.706  20.708  0.00  0.00    +0.000 HD
ATOM     18  H   UNL     1      -0.364  10.825  19.468  0.00  0.00    +0.000 HD
ENDBRANCH  13  16
ENDBRANCH   3  13
BRANCH   7  19
ATOM     19  S   UNL     1       3.686   5.291  17.889  0.00  0.00    +0.000 S 
BRANCH  19  20
ATOM     20  C   UNL     1       4.926   6.130  16.753  0.00  0.00    +0.000 C 
ATOM     21  C   UNL     1       6.208   6.631  17.434  0.00  0.00    +0.000 C 
ATOM     22  C   UNL     1       7.177   5.535  17.873  0.00  0.00    +0.000 C 
ATOM     23  C   UNL     1       7.551   4.559  16.766  0.00  0.00    +0.000 C 
ATOM     24  C   UNL     1       6.381   4.114  15.895  0.00  0.00    +0.000 C 
ATOM     25  C   UNL     1       5.342   5.200  15.583  0.00  0.00    +0.000 C 
ENDBRANCH  19  20
ENDBRANCH   7  19
TORSDOF 5
ENDMDL
