MODEL 1
REMARK VINA RESULT:      -7.3      0.000      0.000
REMARK  Name = 
REMARK  6 active torsions:
REMARK  status: ('A' for Active; 'I' for Inactive)
REMARK    1  A    between atoms: C_3  and  C_4
REMARK    2  A    between atoms: C_4  and  C_5
REMARK    3  A    between atoms: C_6  and  O_7
REMARK    4  A    between atoms: C_11  and  O_12
REMARK    5  A    between atoms: C_18  and  O_19
REMARK    6  A    between atoms: C_23  and  O_24
REMARK                            x       y       z     vdW  Elec       q    Type
REMARK                         _______ _______ _______ _____ _____    ______ ____
ROOT
ATOM      1  C   UNL     1       0.293  11.594  21.056  0.00  0.00    +0.000 C 
ENDROOT
BRANCH   1   4
ATOM      2  O   UNL     1      -1.067  11.421  23.466  0.00  0.00    +0.000 OA
ATOM      3  C   UNL     1      -1.738  11.834  22.525  0.00  0.00    +0.000 A 
ATOM      4  C   UNL     1      -1.187  11.854  21.149  0.00  0.00    +0.000 A 
ATOM      5  C   UNL     1      -2.008  12.209  20.140  0.00  0.00    +0.000 A 
ATOM      6  O   UNL     1      -3.332  12.589  20.323  0.00  0.00    +0.000 OA
ATOM      7  C   UNL     1      -3.828  12.710  21.596  0.00  0.00    +0.000 A 
ATOM      8  C   UNL     1      -5.115  13.227  21.744  0.00  0.00    +0.000 A 
ATOM      9  C   UNL     1      -5.652  13.360  23.024  0.00  0.00    +0.000 A 
ATOM     10  C   UNL     1      -4.928  12.978  24.150  0.00  0.00    +0.000 A 
ATOM     11  C   UNL     1      -3.643  12.459  23.999  0.00  0.00    +0.000 A 
ATOM     12  C   UNL     1      -3.099  12.335  22.717  0.00  0.00    +0.000 A 
BRANCH   5  13
ATOM     13  O   UNL     1      -1.578  12.236  18.826  0.00  0.00    +0.000 OA
ATOM     14  H   UNL     1      -0.708  12.685  18.753  0.00  0.00    +0.000 HD
ENDBRANCH   5  13
BRANCH   9  15
ATOM     15  O   UNL     1      -6.900  13.872  23.225  0.00  0.00    +0.000 OA
ATOM     16  H   UNL     1      -7.476  13.175  23.579  0.00  0.00    +0.000 HD
ENDBRANCH   9  15
ENDBRANCH   1   4
BRANCH   1  17
ATOM     17  C   UNL     1       0.655  10.171  20.725  0.00  0.00    +0.000 A 
ATOM     18  C   UNL     1       0.790   9.144  21.588  0.00  0.00    +0.000 A 
ATOM     19  O   UNL     1       1.256   7.890  21.221  0.00  0.00    +0.000 OA
ATOM     20  C   UNL     1       1.852   7.738  19.999  0.00  0.00    +0.000 A 
ATOM     21  C   UNL     1       2.558   6.556  19.773  0.00  0.00    +0.000 A 
ATOM     22  C   UNL     1       3.203   6.375  18.554  0.00  0.00    +0.000 A 
ATOM     23  C   UNL     1       3.141   7.348  17.559  0.00  0.00    +0.000 A 
ATOM     24  C   UNL     1       2.415   8.521  17.780  0.00  0.00    +0.000 A 
ATOM     25  C   UNL     1       1.774   8.709  19.007  0.00  0.00    +0.000 A 
ATOM     26  C   UNL     1       1.029   9.940  19.305  0.00  0.00    +0.000 A 
ATOM     27  O   UNL     1       0.750  10.763  18.440  0.00  0.00    +0.000 OA
BRANCH  18  28
ATOM     28  O   UNL     1       0.487   9.261  22.930  0.00  0.00    +0.000 OA
ATOM     29  H   UNL     1      -0.302   9.829  23.067  0.00  0.00    +0.000 HD
ENDBRANCH  18  28
BRANCH  22  30
ATOM     30  O   UNL     1       3.920   5.245  18.290  0.00  0.00    +0.000 OA
ATOM     31  H   UNL     1       3.407   4.676  17.692  0.00  0.00    +0.000 HD
ENDBRANCH  22  30
ENDBRANCH   1  17
TORSDOF 6
ENDMDL
MODEL 2
REMARK VINA RESULT:      -7.3      1.306      1.669
REMARK  Name = 
REMARK  6 active torsions:
REMARK  status: ('A' for Active; 'I' for Inactive)
REMARK    1  A    between atoms: C_3  and  C_4
REMARK    2  A    between atoms: C_4  and  C_5
REMARK    3  A    between atoms: C_6  and  O_7
REMARK    4  A    between atoms: C_11  and  O_12
REMARK    5  A    between atoms: C_18  and  O_19
REMARK    6  A    between atoms: C_23  and  O_24
REMARK                            x       y       z     vdW  Elec       q    Type
REMARK                         _______ _______ _______ _____ _____    ______ ____
ROOT
ATOM      1  C   UNL     1       1.066  10.807  19.800  0.00  0.00    +0.000 C 
ENDROOT
BRANCH   1   4
ATOM      2  O   UNL     1      -0.101  11.619  22.180  0.00  0.00    +0.000 OA
ATOM      3  C   UNL     1      -0.830  11.698  21.196  0.00  0.00    +0.000 A 
ATOM      4  C   UNL     1      -0.391  11.176  19.880  0.00  0.00    +0.000 A 
ATOM      5  C   UNL     1      -1.278  11.186  18.864  0.00  0.00    +0.000 A 
ATOM      6  O   UNL     1      -2.568  11.689  18.973  0.00  0.00    +0.000 OA
ATOM      7  C   UNL     1      -2.955  12.300  20.138  0.00  0.00    +0.000 A 
ATOM      8  C   UNL     1      -4.207  12.916  20.161  0.00  0.00    +0.000 A 
ATOM      9  C   UNL     1      -4.634  13.544  21.331  0.00  0.00    +0.000 A 
ATOM     10  C   UNL     1      -3.837  13.558  22.472  0.00  0.00    +0.000 A 
ATOM     11  C   UNL     1      -2.588  12.940  22.446  0.00  0.00    +0.000 A 
ATOM     12  C   UNL     1      -2.152  12.320  21.271  0.00  0.00    +0.000 A 
BRANCH   5  13
ATOM     13  O   UNL     1      -0.953  10.701  17.610  0.00  0.00    +0.000 OA
ATOM     14  H   UNL     1      -1.090  11.389  16.923  0.00  0.00    +0.000 HD
ENDBRANCH   5  13
BRANCH   9  15
ATOM     15  O   UNL     1      -5.843  14.172  21.403  0.00  0.00    +0.000 OA
ATOM     16  H   UNL     1      -5.793  14.883  22.062  0.00  0.00    +0.000 HD
ENDBRANCH   9  15
ENDBRANCH   1   4
BRANCH   1  17
ATOM     17  C   UNL     1       1.333   9.326  19.774  0.00  0.00    +0.000 A 
ATOM     18  C   UNL     1       1.218   8.461  20.802  0.00  0.00    +0.000 A 
ATOM     19  O   UNL     1       1.610   7.132  20.733  0.00  0.00    +0.000 OA
ATOM     20  C   UNL     1       2.381   6.724  19.679  0.00  0.00    +0.000 A 
ATOM     21  C   UNL     1       2.993   5.473  19.779  0.00  0.00    +0.000 A 
ATOM     22  C   UNL     1       3.809   5.034  18.742  0.00  0.00    +0.000 A 
ATOM     23  C   UNL     1       4.011   5.818  17.609  0.00  0.00    +0.000 A 
ATOM     24  C   UNL     1       3.381   7.060  17.502  0.00  0.00    +0.000 A 
ATOM     25  C   UNL     1       2.568   7.507  18.546  0.00  0.00    +0.000 A 
ATOM     26  C   UNL     1       1.912   8.821  18.501  0.00  0.00    +0.000 A 
ATOM     27  O   UNL     1       1.865   9.496  17.478  0.00  0.00    +0.000 OA
BRANCH  18  28
ATOM     28  O   UNL     1       0.710   8.835  22.030  0.00  0.00    +0.000 OA
ATOM     29  H   UNL     1       0.093   9.594  21.943  0.00  0.00    +0.000 HD
ENDBRANCH  18  28
BRANCH  22  30
ATOM     30  O   UNL     1       4.442   3.827  18.799  0.00  0.00    +0.000 OA
ATOM     31  H   UNL     1       5.160   3.814  18.144  0.00  0.00    +0.000 HD
ENDBRANCH  22  30
ENDBRANCH   1  17
TORSDOF 6
ENDMDL
MODEL 3
REMARK VINA RESULT:      -7.2      0.814      8.454
REMARK  Name = 
REMARK  6 active torsions:
REMARK  status: ('A' for Active; 'I' for Inactive)
REMARK    1  A    between atoms: C_3  and  C_4
REMARK    2  A    between atoms: C_4  and  C_5
REMARK    3  A    between atoms: C_6  and  O_7
REMARK    4  A    between atoms: C_11  and  O_12
REMARK    5  A    between atoms: C_18  and  O_19
REMARK    6  A    between atoms: C_23  and  O_24
REMARK                            x       y       z     vdW  Elec       q    Type
REMARK                         _______ _______ _______ _____ _____    ______ ____
ROOT
ATOM      1  C   UNL     1      -0.393  12.156  21.212  0.00  0.00    +0.000 C 
ENDROOT
BRANCH   1   4
ATOM      2  O   UNL     1       0.137  11.237  18.650  0.00  0.00    +0.000 OA
ATOM      3  C   UNL     1       0.467  10.471  19.551  0.00  0.00    +0.000 A 
ATOM      4  C   UNL     1       0.127  10.766  20.963  0.00  0.00    +0.000 A 
ATOM      5  C   UNL     1       0.413   9.834  21.894  0.00  0.00    +0.000 A 
ATOM      6  O   UNL     1       1.040   8.627  21.608  0.00  0.00    +0.000 OA
ATOM      7  C   UNL     1       1.487   8.387  20.334  0.00  0.00    +0.000 A 
ATOM      8  C   UNL     1       2.233   7.228  20.117  0.00  0.00    +0.000 A 
ATOM      9  C   UNL     1       2.700   6.951  18.833  0.00  0.00    +0.000 A 
ATOM     10  C   UNL     1       2.427   7.805  17.768  0.00  0.00    +0.000 A 
ATOM     11  C   UNL     1       1.679   8.960  17.987  0.00  0.00    +0.000 A 
ATOM     12  C   UNL     1       1.219   9.247  19.277  0.00  0.00    +0.000 A 
BRANCH   5  13
ATOM     13  O   UNL     1       0.112  10.023  23.231  0.00  0.00    +0.000 OA
ATOM     14  H   UNL     1      -0.723   9.565  23.468  0.00  0.00    +0.000 HD
ENDBRANCH   5  13
BRANCH   9  15
ATOM     15  O   UNL     1       3.445   5.839  18.569  0.00  0.00    +0.000 OA
ATOM     16  H   UNL     1       4.200   6.087  18.012  0.00  0.00    +0.000 HD
ENDBRANCH   9  15
ENDBRANCH   1   4
BRANCH   1  17
ATOM     17  C   UNL     1      -1.893  12.276  21.176  0.00  0.00    +0.000 A 
ATOM     18  C   UNL     1      -2.661  12.567  20.106  0.00  0.00    +0.000 A 
ATOM     19  O   UNL     1      -4.028  12.790  20.182  0.00  0.00    +0.000 OA
ATOM     20  C   UNL     1      -4.599  12.983  21.410  0.00  0.00    +0.000 A 
ATOM     21  C   UNL     1      -5.902  13.483  21.439  0.00  0.00    +0.000 A 
ATOM     22  C   UNL     1      -6.509  13.720  22.668  0.00  0.00    +0.000 A 
ATOM     23  C   UNL     1      -5.839  13.455  23.860  0.00  0.00    +0.000 A 
ATOM     24  C   UNL     1      -4.543  12.935  23.828  0.00  0.00    +0.000 A 
ATOM     25  C   UNL     1      -3.929  12.703  22.595  0.00  0.00    +0.000 A 
ATOM     26  C   UNL     1      -2.554  12.193  22.505  0.00  0.00    +0.000 A 
ATOM     27  O   UNL     1      -1.955  11.746  23.478  0.00  0.00    +0.000 OA
BRANCH  18  28
ATOM     28  O   UNL     1      -2.140  12.685  18.833  0.00  0.00    +0.000 OA
ATOM     29  H   UNL     1      -2.338  11.889  18.293  0.00  0.00    +0.000 HD
ENDBRANCH  18  28
BRANCH  22  30
ATOM     30  O   UNL     1      -7.774  14.223  22.750  0.00  0.00    +0.000 OA
ATOM     31  H   UNL     1      -7.733  15.130  23.096  0.00  0.00    +0.000 HD
ENDBRANCH  22  30
ENDBRANCH   1  17
TORSDOF 6
ENDMDL
MODEL 4
REMARK VINA RESULT:      -7.1      1.740      8.540
REMARK  Name = 
REMARK  6 active torsions:
REMARK  status: ('A' for Active; 'I' for Inactive)
REMARK    1  A    between atoms: C_3  and  C_4
REMARK    2  A    between atoms: C_4  and  C_5
REMARK    3  A    between atoms: C_6  and  O_7
REMARK    4  A    between atoms: C_11  and  O_12
REMARK    5  A    between atoms: C_18  and  O_19
REMARK    6  A    between atoms: C_23  and  O_24
REMARK                            x       y       z     vdW  Elec       q    Type
REMARK                         _______ _______ _______ _____ _____    ______ ____
ROOT
ATOM      1  C   UNL     1       0.671  10.783  19.487  0.00  0.00    +0.000 C 
ENDROOT
BRANCH   1   4
ATOM      2  O   UNL     1       1.930   9.498  17.377  0.00  0.00    +0.000 OA
ATOM      3  C   UNL     1       1.877   8.849  18.418  0.00  0.00    +0.000 A 
ATOM      4  C   UNL     1       1.119   9.350  19.589  0.00  0.00    +0.000 A 
ATOM      5  C   UNL     1       1.001   8.542  20.662  0.00  0.00    +0.000 A 
ATOM      6  O   UNL     1       1.578   7.281  20.744  0.00  0.00    +0.000 OA
ATOM      7  C   UNL     1       2.396   6.849  19.733  0.00  0.00    +0.000 A 
ATOM      8  C   UNL     1       3.067   5.639  19.914  0.00  0.00    +0.000 A 
ATOM      9  C   UNL     1       3.904   5.168  18.903  0.00  0.00    +0.000 A 
ATOM     10  C   UNL     1       4.072   5.879  17.718  0.00  0.00    +0.000 A 
ATOM     11  C   UNL     1       3.398   7.086  17.538  0.00  0.00    +0.000 A 
ATOM     12  C   UNL     1       2.567   7.566  18.556  0.00  0.00    +0.000 A 
BRANCH   5  13
ATOM     13  O   UNL     1       0.295   8.927  21.788  0.00  0.00    +0.000 OA
ATOM     14  H   UNL     1      -0.593   8.507  21.804  0.00  0.00    +0.000 HD
ENDBRANCH   5  13
BRANCH   9  15
ATOM     15  O   UNL     1       4.593   3.998  19.035  0.00  0.00    +0.000 OA
ATOM     16  H   UNL     1       5.499   4.125  18.710  0.00  0.00    +0.000 HD
ENDBRANCH   9  15
ENDBRANCH   1   4
BRANCH   1  17
ATOM     17  C   UNL     1      -0.819  10.963  19.371  0.00  0.00    +0.000 A 
ATOM     18  C   UNL     1      -1.590  10.689  18.298  0.00  0.00    +0.000 A 
ATOM     19  O   UNL     1      -2.938  11.006  18.223  0.00  0.00    +0.000 OA
ATOM     20  C   UNL     1      -3.469  11.860  19.152  0.00  0.00    +0.000 A 
ATOM     21  C   UNL     1      -4.737  12.381  18.890  0.00  0.00    +0.000 A 
ATOM     22  C   UNL     1      -5.301  13.276  19.795  0.00  0.00    +0.000 A 
ATOM     23  C   UNL     1      -4.623  13.643  20.956  0.00  0.00    +0.000 A 
ATOM     24  C   UNL     1      -3.364  13.102  21.225  0.00  0.00    +0.000 A 
ATOM     25  C   UNL     1      -2.792  12.211  20.313  0.00  0.00    +0.000 A 
ATOM     26  C   UNL     1      -1.455  11.643  20.530  0.00  0.00    +0.000 A 
ATOM     27  O   UNL     1      -0.864  11.744  21.600  0.00  0.00    +0.000 OA
BRANCH  18  28
ATOM     28  O   UNL     1      -1.092  10.077  17.166  0.00  0.00    +0.000 OA
ATOM     29  H   UNL     1      -1.791   9.960  16.488  0.00  0.00    +0.000 HD
ENDBRANCH  18  28
BRANCH  22  30
ATOM     30  O   UNL     1      -6.529  13.826  19.578  0.00  0.00    +0.000 OA
ATOM     31  H   UNL     1      -6.597  14.658  20.074  0.00  0.00    +0.000 HD
ENDBRANCH  22  30
ENDBRANCH   1  17
TORSDOF 6
ENDMDL
MODEL 5
REMARK VINA RESULT:      -6.8      1.163      8.482
REMARK  Name = 
REMARK  6 active torsions:
REMARK  status: ('A' for Active; 'I' for Inactive)
REMARK    1  A    between atoms: C_3  and  C_4
REMARK    2  A    between atoms: C_4  and  C_5
REMARK    3  A    between atoms: C_6  and  O_7
REMARK    4  A    between atoms: C_11  and  O_12
REMARK    5  A    between atoms: C_18  and  O_19
REMARK    6  A    between atoms: C_23  and  O_24
REMARK                            x       y       z     vdW  Elec       q    Type
REMARK                         _______ _______ _______ _____ _____    ______ ____
ROOT
ATOM      1  C   UNL     1       0.913  10.994  20.346  0.00  0.00    +0.000 C 
ENDROOT
BRANCH   1   4
ATOM      2  O   UNL     1       1.825   9.891  17.972  0.00  0.00    +0.000 OA
ATOM      3  C   UNL     1       1.775   9.110  18.917  0.00  0.00    +0.000 A 
ATOM      4  C   UNL     1       1.183   9.520  20.213  0.00  0.00    +0.000 A 
ATOM      5  C   UNL     1       1.050   8.585  21.175  0.00  0.00    +0.000 A 
ATOM      6  O   UNL     1       1.468   7.268  21.032  0.00  0.00    +0.000 OA
ATOM      7  C   UNL     1       2.140   6.895  19.897  0.00  0.00    +0.000 A 
ATOM      8  C   UNL     1       2.666   5.604  19.849  0.00  0.00    +0.000 A 
ATOM      9  C   UNL     1       3.353   5.190  18.708  0.00  0.00    +0.000 A 
ATOM     10  C   UNL     1       3.513   6.041  17.618  0.00  0.00    +0.000 A 
ATOM     11  C   UNL     1       2.985   7.330  17.667  0.00  0.00    +0.000 A 
ATOM     12  C   UNL     1       2.306   7.751  18.815  0.00  0.00    +0.000 A 
BRANCH   5  13
ATOM     13  O   UNL     1       0.492   8.881  22.405  0.00  0.00    +0.000 OA
ATOM     14  H   UNL     1       1.182   8.914  23.103  0.00  0.00    +0.000 HD
ENDBRANCH   5  13
BRANCH   9  15
ATOM     15  O   UNL     1       3.897   3.943  18.615  0.00  0.00    +0.000 OA
ATOM     16  H   UNL     1       4.757   3.937  19.066  0.00  0.00    +0.000 HD
ENDBRANCH   9  15
ENDBRANCH   1   4
BRANCH   1  17
ATOM     17  C   UNL     1      -0.547  11.362  20.356  0.00  0.00    +0.000 A 
ATOM     18  C   UNL     1      -1.362  11.482  19.288  0.00  0.00    +0.000 A 
ATOM     19  O   UNL     1      -2.664  11.954  19.367  0.00  0.00    +0.000 OA
ATOM     20  C   UNL     1      -3.075  12.569  20.518  0.00  0.00    +0.000 A 
ATOM     21  C   UNL     1      -4.276  13.279  20.470  0.00  0.00    +0.000 A 
ATOM     22  C   UNL     1      -4.715  13.944  21.611  0.00  0.00    +0.000 A 
ATOM     23  C   UNL     1      -3.980  13.899  22.794  0.00  0.00    +0.000 A 
ATOM     24  C   UNL     1      -2.790  13.170  22.844  0.00  0.00    +0.000 A 
ATOM     25  C   UNL     1      -2.343  12.509  21.697  0.00  0.00    +0.000 A 
ATOM     26  C   UNL     1      -1.079  11.760  21.685  0.00  0.00    +0.000 A 
ATOM     27  O   UNL     1      -0.463  11.495  22.713  0.00  0.00    +0.000 OA
BRANCH  18  28
ATOM     28  O   UNL     1      -0.958  11.157  18.009  0.00  0.00    +0.000 OA
ATOM     29  H   UNL     1      -0.472  11.900  17.590  0.00  0.00    +0.000 HD
ENDBRANCH  18  28
BRANCH  22  30
ATOM     30  O   UNL     1      -5.873  14.665  21.612  0.00  0.00    +0.000 OA
ATOM     31  H   UNL     1      -6.285  14.603  22.490  0.00  0.00    +0.000 HD
ENDBRANCH  22  30
ENDBRANCH   1  17
TORSDOF 6
ENDMDL
MODEL 6
REMARK VINA RESULT:      -6.7      0.923      7.982
REMARK  Name = 
REMARK  6 active torsions:
REMARK  status: ('A' for Active; 'I' for Inactive)
REMARK    1  A    between atoms: C_3  and  C_4
REMARK    2  A    between atoms: C_4  and  C_5
REMARK    3  A    between atoms: C_6  and  O_7
REMARK    4  A    between atoms: C_11  and  O_12
REMARK    5  A    between atoms: C_18  and  O_19
REMARK    6  A    between atoms: C_23  and  O_24
REMARK                            x       y       z     vdW  Elec       q    Type
REMARK                         _______ _______ _______ _____ _____    ______ ____
ROOT
ATOM      1  C   UNL     1       0.123  12.545  21.038  0.00  0.00    +0.000 C 
ENDROOT
BRANCH   1   4
ATOM      2  O   UNL     1       0.972  10.172  22.193  0.00  0.00    +0.000 OA
ATOM      3  C   UNL     1       1.080  10.218  20.971  0.00  0.00    +0.000 A 
ATOM      4  C   UNL     1       0.793  11.468  20.228  0.00  0.00    +0.000 A 
ATOM      5  C   UNL     1       1.040  11.491  18.903  0.00  0.00    +0.000 A 
ATOM      6  O   UNL     1       1.517  10.398  18.190  0.00  0.00    +0.000 OA
ATOM      7  C   UNL     1       1.663   9.192  18.825  0.00  0.00    +0.000 A 
ATOM      8  C   UNL     1       2.009   8.087  18.047  0.00  0.00    +0.000 A 
ATOM      9  C   UNL     1       2.169   6.845  18.661  0.00  0.00    +0.000 A 
ATOM     10  C   UNL     1       1.997   6.695  20.035  0.00  0.00    +0.000 A 
ATOM     11  C   UNL     1       1.653   7.801  20.810  0.00  0.00    +0.000 A 
ATOM     12  C   UNL     1       1.481   9.045  20.194  0.00  0.00    +0.000 A 
BRANCH   5  13
ATOM     13  O   UNL     1       0.817  12.623  18.140  0.00  0.00    +0.000 OA
ATOM     14  H   UNL     1      -0.096  12.625  17.779  0.00  0.00    +0.000 HD
ENDBRANCH   5  13
BRANCH   9  15
ATOM     15  O   UNL     1       2.495   5.731  17.945  0.00  0.00    +0.000 OA
ATOM     16  H   UNL     1       3.459   5.692  17.839  0.00  0.00    +0.000 HD
ENDBRANCH   9  15
ENDBRANCH   1   4
BRANCH   1  17
ATOM     17  C   UNL     1      -1.372  12.407  21.142  0.00  0.00    +0.000 A 
ATOM     18  C   UNL     1      -2.278  12.606  20.162  0.00  0.00    +0.000 A 
ATOM     19  O   UNL     1      -3.649  12.588  20.370  0.00  0.00    +0.000 OA
ATOM     20  C   UNL     1      -4.123  12.629  21.653  0.00  0.00    +0.000 A 
ATOM     21  C   UNL     1      -5.482  12.896  21.824  0.00  0.00    +0.000 A 
ATOM     22  C   UNL     1      -5.999  12.976  23.114  0.00  0.00    +0.000 A 
ATOM     23  C   UNL     1      -5.183  12.781  24.225  0.00  0.00    +0.000 A 
ATOM     24  C   UNL     1      -3.827  12.492  24.050  0.00  0.00    +0.000 A 
ATOM     25  C   UNL     1      -3.305  12.421  22.756  0.00  0.00    +0.000 A 
ATOM     26  C   UNL     1      -1.879  12.157  22.517  0.00  0.00    +0.000 A 
ATOM     27  O   UNL     1      -1.123  11.781  23.406  0.00  0.00    +0.000 OA
BRANCH  18  28
ATOM     28  O   UNL     1      -1.909  12.863  18.857  0.00  0.00    +0.000 OA
ATOM     29  H   UNL     1      -1.170  13.507  18.817  0.00  0.00    +0.000 HD
ENDBRANCH  18  28
BRANCH  22  30
ATOM     30  O   UNL     1      -7.316  13.251  23.335  0.00  0.00    +0.000 OA
ATOM     31  H   UNL     1      -7.792  12.419  23.496  0.00  0.00    +0.000 HD
ENDBRANCH  22  30
ENDBRANCH   1  17
TORSDOF 6
ENDMDL
MODEL 7
REMARK VINA RESULT:      -6.6      3.620      5.011
REMARK  Name = 
REMARK  6 active torsions:
REMARK  status: ('A' for Active; 'I' for Inactive)
REMARK    1  A    between atoms: C_3  and  C_4
REMARK    2  A    between atoms: C_4  and  C_5
REMARK    3  A    between atoms: C_6  and  O_7
REMARK    4  A    between atoms: C_11  and  O_12
REMARK    5  A    between atoms: C_18  and  O_19
REMARK    6  A    between atoms: C_23  and  O_24
REMARK                            x       y       z     vdW  Elec       q    Type
REMARK                         _______ _______ _______ _____ _____    ______ ____
ROOT
ATOM      1  C   UNL     1      -0.086  10.224  19.736  0.00  0.00    +0.000 C 
ENDROOT
BRANCH   1   4
ATOM      2  O   UNL     1       1.517  11.635  21.505  0.00  0.00    +0.000 OA
ATOM      3  C   UNL     1       1.202  12.251  20.491  0.00  0.00    +0.000 A 
ATOM      4  C   UNL     1       0.242  11.677  19.519  0.00  0.00    +0.000 A 
ATOM      5  C   UNL     1      -0.153  12.447  18.485  0.00  0.00    +0.000 A 
ATOM      6  O   UNL     1       0.316  13.736  18.262  0.00  0.00    +0.000 OA
ATOM      7  C   UNL     1       1.304  14.241  19.067  0.00  0.00    +0.000 A 
ATOM      8  C   UNL     1       1.846  15.481  18.728  0.00  0.00    +0.000 A 
ATOM      9  C   UNL     1       2.850  16.026  19.527  0.00  0.00    +0.000 A 
ATOM     10  C   UNL     1       3.311  15.358  20.658  0.00  0.00    +0.000 A 
ATOM     11  C   UNL     1       2.767  14.120  20.996  0.00  0.00    +0.000 A 
ATOM     12  C   UNL     1       1.767  13.566  20.189  0.00  0.00    +0.000 A 
BRANCH   5  13
ATOM     13  O   UNL     1      -1.059  11.994  17.543  0.00  0.00    +0.000 OA
ATOM     14  H   UNL     1      -1.906  12.486  17.608  0.00  0.00    +0.000 HD
ENDBRANCH   5  13
BRANCH   9  15
ATOM     15  O   UNL     1       3.423  17.229  19.233  0.00  0.00    +0.000 OA
ATOM     16  H   UNL     1       3.561  17.725  20.056  0.00  0.00    +0.000 HD
ENDBRANCH   9  15
ENDBRANCH   1   4
BRANCH   1  17
ATOM     17  C   UNL     1       1.045   9.279  19.432  0.00  0.00    +0.000 A 
ATOM     18  C   UNL     1       1.803   9.248  18.316  0.00  0.00    +0.000 A 
ATOM     19  O   UNL     1       2.741   8.261  18.053  0.00  0.00    +0.000 OA
ATOM     20  C   UNL     1       2.735   7.124  18.815  0.00  0.00    +0.000 A 
ATOM     21  C   UNL     1       3.486   6.042  18.355  0.00  0.00    +0.000 A 
ATOM     22  C   UNL     1       3.484   4.857  19.085  0.00  0.00    +0.000 A 
ATOM     23  C   UNL     1       2.756   4.746  20.267  0.00  0.00    +0.000 A 
ATOM     24  C   UNL     1       2.022   5.838  20.736  0.00  0.00    +0.000 A 
ATOM     25  C   UNL     1       2.016   7.026  20.000  0.00  0.00    +0.000 A 
ATOM     26  C   UNL     1       1.231   8.191  20.428  0.00  0.00    +0.000 A 
ATOM     27  O   UNL     1       0.720   8.265  21.541  0.00  0.00    +0.000 OA
BRANCH  18  28
ATOM     28  O   UNL     1       1.693  10.200  17.322  0.00  0.00    +0.000 OA
ATOM     29  H   UNL     1       1.670   9.785  16.433  0.00  0.00    +0.000 HD
ENDBRANCH  18  28
BRANCH  22  30
ATOM     30  O   UNL     1       4.188   3.766  18.670  0.00  0.00    +0.000 OA
ATOM     31  H   UNL     1       4.834   4.041  17.999  0.00  0.00    +0.000 HD
ENDBRANCH  22  30
ENDBRANCH   1  17
TORSDOF 6
ENDMDL
MODEL 8
REMARK VINA RESULT:      -6.6      3.885     10.988
REMARK  Name = 
REMARK  6 active torsions:
REMARK  status: ('A' for Active; 'I' for Inactive)
REMARK    1  A    between atoms: C_3  and  C_4
REMARK    2  A    between atoms: C_4  and  C_5
REMARK    3  A    between atoms: C_6  and  O_7
REMARK    4  A    between atoms: C_11  and  O_12
REMARK    5  A    between atoms: C_18  and  O_19
REMARK    6  A    between atoms: C_23  and  O_24
REMARK                            x       y       z     vdW  Elec       q    Type
REMARK                         _______ _______ _______ _____ _____    ______ ____
ROOT
ATOM      1  C   UNL     1       4.839   5.243  18.801  0.00  0.00    +0.000 C 
ENDROOT
BRANCH   1   4
ATOM      2  O   UNL     1       4.159   3.485  16.768  0.00  0.00    +0.000 OA
ATOM      3  C   UNL     1       5.128   4.201  16.528  0.00  0.00    +0.000 A 
ATOM      4  C   UNL     1       5.690   5.094  17.569  0.00  0.00    +0.000 A 
ATOM      5  C   UNL     1       6.822   5.768  17.284  0.00  0.00    +0.000 A 
ATOM      6  O   UNL     1       7.472   5.698  16.057  0.00  0.00    +0.000 OA
ATOM      7  C   UNL     1       6.901   4.987  15.034  0.00  0.00    +0.000 A 
ATOM      8  C   UNL     1       7.509   5.055  13.780  0.00  0.00    +0.000 A 
ATOM      9  C   UNL     1       6.958   4.341  12.717  0.00  0.00    +0.000 A 
ATOM     10  C   UNL     1       5.819   3.559  12.890  0.00  0.00    +0.000 A 
ATOM     11  C   UNL     1       5.214   3.491  14.144  0.00  0.00    +0.000 A 
ATOM     12  C   UNL     1       5.760   4.216  15.209  0.00  0.00    +0.000 A 
BRANCH   5  13
ATOM     13  O   UNL     1       7.421   6.608  18.205  0.00  0.00    +0.000 OA
ATOM     14  H   UNL     1       7.713   7.442  17.778  0.00  0.00    +0.000 HD
ENDBRANCH   5  13
BRANCH   9  15
ATOM     15  O   UNL     1       7.505   4.382  11.468  0.00  0.00    +0.000 OA
ATOM     16  H   UNL     1       8.466   4.262  11.538  0.00  0.00    +0.000 HD
ENDBRANCH   9  15
ENDBRANCH   1   4
BRANCH   1  17
ATOM     17  C   UNL     1       3.740   6.264  18.679  0.00  0.00    +0.000 A 
ATOM     18  C   UNL     1       3.642   7.248  17.762  0.00  0.00    +0.000 A 
ATOM     19  O   UNL     1       2.665   8.232  17.795  0.00  0.00    +0.000 OA
ATOM     20  C   UNL     1       1.920   8.385  18.932  0.00  0.00    +0.000 A 
ATOM     21  C   UNL     1       1.155   9.548  19.045  0.00  0.00    +0.000 A 
ATOM     22  C   UNL     1       0.406   9.756  20.198  0.00  0.00    +0.000 A 
ATOM     23  C   UNL     1       0.401   8.818  21.228  0.00  0.00    +0.000 A 
ATOM     24  C   UNL     1       1.150   7.646  21.103  0.00  0.00    +0.000 A 
ATOM     25  C   UNL     1       1.910   7.439  19.949  0.00  0.00    +0.000 A 
ATOM     26  C   UNL     1       2.745   6.241  19.783  0.00  0.00    +0.000 A 
ATOM     27  O   UNL     1       2.660   5.273  20.532  0.00  0.00    +0.000 OA
BRANCH  18  28
ATOM     28  O   UNL     1       4.526   7.368  16.709  0.00  0.00    +0.000 OA
ATOM     29  H   UNL     1       4.128   7.044  15.872  0.00  0.00    +0.000 HD
ENDBRANCH  18  28
BRANCH  22  30
ATOM     30  O   UNL     1      -0.345  10.883  20.364  0.00  0.00    +0.000 OA
ATOM     31  H   UNL     1      -0.138  11.510  19.651  0.00  0.00    +0.000 HD
ENDBRANCH  22  30
ENDBRANCH   1  17
TORSDOF 6
ENDMDL
MODEL 9
REMARK VINA RESULT:      -6.6      3.888      5.659
REMARK  Name = 
REMARK  6 active torsions:
REMARK  status: ('A' for Active; 'I' for Inactive)
REMARK    1  A    between atoms: C_3  and  C_4
REMARK    2  A    between atoms: C_4  and  C_5
REMARK    3  A    between atoms: C_6  and  O_7
REMARK    4  A    between atoms: C_11  and  O_12
REMARK    5  A    between atoms: C_18  and  O_19
REMARK    6  A    between atoms: C_23  and  O_24
REMARK                            x       y       z     vdW  Elec       q    Type
REMARK                         _______ _______ _______ _____ _____    ______ ____
ROOT
ATOM      1  C   UNL     1       1.116   8.069  18.805  0.00  0.00    +0.000 C 
ENDROOT
BRANCH   1   4
ATOM      2  O   UNL     1       2.158  10.208  17.381  0.00  0.00    +0.000 OA
ATOM      3  C   UNL     1       1.780  10.480  18.517  0.00  0.00    +0.000 A 
ATOM      4  C   UNL     1       1.325   9.416  19.443  0.00  0.00    +0.000 A 
ATOM      5  C   UNL     1       1.033   9.761  20.713  0.00  0.00    +0.000 A 
ATOM      6  O   UNL     1       1.102  11.063  21.193  0.00  0.00    +0.000 OA
ATOM      7  C   UNL     1       1.389  12.085  20.325  0.00  0.00    +0.000 A 
ATOM      8  C   UNL     1       1.312  13.390  20.812  0.00  0.00    +0.000 A 
ATOM      9  C   UNL     1       1.600  14.453  19.958  0.00  0.00    +0.000 A 
ATOM     10  C   UNL     1       1.971  14.232  18.634  0.00  0.00    +0.000 A 
ATOM     11  C   UNL     1       2.049  12.927  18.150  0.00  0.00    +0.000 A 
ATOM     12  C   UNL     1       1.748  11.859  19.003  0.00  0.00    +0.000 A 
BRANCH   5  13
ATOM     13  O   UNL     1       0.619   8.826  21.645  0.00  0.00    +0.000 OA
ATOM     14  H   UNL     1       0.014   9.233  22.302  0.00  0.00    +0.000 HD
ENDBRANCH   5  13
BRANCH   9  15
ATOM     15  O   UNL     1       1.528  15.748  20.380  0.00  0.00    +0.000 OA
ATOM     16  H   UNL     1       0.997  15.789  21.192  0.00  0.00    +0.000 HD
ENDBRANCH   9  15
ENDBRANCH   1   4
BRANCH   1  17
ATOM     17  C   UNL     1       2.231   7.087  19.043  0.00  0.00    +0.000 A 
ATOM     18  C   UNL     1       3.370   6.960  18.331  0.00  0.00    +0.000 A 
ATOM     19  O   UNL     1       4.290   5.942  18.532  0.00  0.00    +0.000 OA
ATOM     20  C   UNL     1       3.931   4.868  19.299  0.00  0.00    +0.000 A 
ATOM     21  C   UNL     1       4.755   3.742  19.251  0.00  0.00    +0.000 A 
ATOM     22  C   UNL     1       4.409   2.618  19.994  0.00  0.00    +0.000 A 
ATOM     23  C   UNL     1       3.264   2.608  20.787  0.00  0.00    +0.000 A 
ATOM     24  C   UNL     1       2.453   3.743  20.850  0.00  0.00    +0.000 A 
ATOM     25  C   UNL     1       2.794   4.871  20.098  0.00  0.00    +0.000 A 
ATOM     26  C   UNL     1       1.955   6.077  20.099  0.00  0.00    +0.000 A 
ATOM     27  O   UNL     1       1.045   6.243  20.904  0.00  0.00    +0.000 OA
BRANCH  18  28
ATOM     28  O   UNL     1       3.709   7.834  17.318  0.00  0.00    +0.000 OA
ATOM     29  H   UNL     1       4.208   7.378  16.606  0.00  0.00    +0.000 HD
ENDBRANCH  18  28
BRANCH  22  30
ATOM     30  O   UNL     1       5.172   1.488  19.968  0.00  0.00    +0.000 OA
ATOM     31  H   UNL     1       5.692   1.437  20.787  0.00  0.00    +0.000 HD
ENDBRANCH  22  30
ENDBRANCH   1  17
TORSDOF 6
ENDMDL
