MODEL 1
REMARK VINA RESULT:      -6.0      0.000      0.000
REMARK  Name = 
REMARK  7 active torsions:
REMARK  status: ('A' for Active; 'I' for Inactive)
REMARK    1  A    between atoms: C_1  and  N_2
REMARK    2  A    between atoms: N_2  and  C_5
REMARK    3  A    between atoms: C_5  and  P_6
REMARK    4  A    between atoms: P_6  and  O_8
REMARK    5  A    between atoms: P_6  and  C_9
REMARK    6  A    between atoms: C_9  and  C_10
REMARK    7  A    between atoms: C_10  and  N_11
REMARK                            x       y       z     vdW  Elec       q    Type
REMARK                         _______ _______ _______ _____ _____    ______ ____
ROOT
ATOM      1  P   UNL     1       3.985   3.743  18.717  0.00  0.00    +0.000 P 
ATOM      2  O   UNL     1       4.051   5.078  19.405  0.00  0.00    +0.000 OA
ENDROOT
BRANCH   1   3
ATOM      3  O   UNL     1       5.183   2.794  19.247  0.00  0.00    +0.000 OA
ATOM      4  H   UNL     1       5.628   2.246  18.568  0.00  0.00    +0.000 HD
ENDBRANCH   1   3
BRANCH   1   5
ATOM      5  C   UNL     1       2.488   2.868  19.149  0.00  0.00    +0.000 C 
BRANCH   5   7
ATOM      6  C   UNL     1       0.875   4.356  20.324  0.00  0.00    +0.000 C 
ATOM      7  N   UNL     1       1.833   3.270  20.385  0.00  0.00    +0.000 N 
ATOM      8  C   UNL     1       2.383   2.884  21.593  0.00  0.00    +0.000 C 
ATOM      9  O   UNL     1       3.357   2.152  21.715  0.00  0.00    +0.000 OA
ENDBRANCH   5   7
ENDBRANCH   1   5
BRANCH   1  10
ATOM     10  C   UNL     1       4.395   3.843  16.988  0.00  0.00    +0.000 C 
BRANCH  10  11
ATOM     11  C   UNL     1       5.840   3.992  16.556  0.00  0.00    +0.000 C 
BRANCH  11  12
ATOM     12  N   UNL     1       6.496   5.140  17.203  0.00  0.00    +0.000 N 
ATOM     13  C   UNL     1       7.625   4.985  18.086  0.00  0.00    +0.000 C 
ATOM     14  C   UNL     1       7.835   6.379  18.644  0.00  0.00    +0.000 C 
ATOM     15  C   UNL     1       7.387   7.295  17.515  0.00  0.00    +0.000 C 
ATOM     16  C   UNL     1       6.362   6.453  16.766  0.00  0.00    +0.000 C 
ATOM     17  O   UNL     1       5.609   6.866  15.908  0.00  0.00    +0.000 OA
ENDBRANCH  11  12
ENDBRANCH  10  11
ENDBRANCH   1  10
TORSDOF 6
ENDMDL
MODEL 2
REMARK VINA RESULT:      -5.9      1.968      5.866
REMARK  Name = 
REMARK  7 active torsions:
REMARK  status: ('A' for Active; 'I' for Inactive)
REMARK    1  A    between atoms: C_1  and  N_2
REMARK    2  A    between atoms: N_2  and  C_5
REMARK    3  A    between atoms: C_5  and  P_6
REMARK    4  A    between atoms: P_6  and  O_8
REMARK    5  A    between atoms: P_6  and  C_9
REMARK    6  A    between atoms: C_9  and  C_10
REMARK    7  A    between atoms: C_10  and  N_11
REMARK                            x       y       z     vdW  Elec       q    Type
REMARK                         _______ _______ _______ _____ _____    ______ ____
ROOT
ATOM      1  P   UNL     1       5.250   4.281  18.260  0.00  0.00    +0.000 P 
ATOM      2  O   UNL     1       4.411   3.831  17.098  0.00  0.00    +0.000 OA
ENDROOT
BRANCH   1   3
ATOM      3  O   UNL     1       5.313   3.112  19.376  0.00  0.00    +0.000 OA
ATOM      4  H   UNL     1       6.133   3.072  19.910  0.00  0.00    +0.000 HD
ENDBRANCH   1   3
BRANCH   1   5
ATOM      5  C   UNL     1       6.949   4.533  17.771  0.00  0.00    +0.000 C 
BRANCH   5   7
ATOM      6  C   UNL     1       7.189   6.954  17.247  0.00  0.00    +0.000 C 
ATOM      7  N   UNL     1       7.196   5.578  16.790  0.00  0.00    +0.000 N 
ATOM      8  C   UNL     1       7.066   5.283  15.446  0.00  0.00    +0.000 C 
ATOM      9  O   UNL     1       6.828   4.170  14.995  0.00  0.00    +0.000 OA
ENDBRANCH   5   7
ENDBRANCH   1   5
BRANCH   1  10
ATOM     10  C   UNL     1       4.476   5.580  19.200  0.00  0.00    +0.000 C 
BRANCH  10  11
ATOM     11  C   UNL     1       2.973   5.767  19.144  0.00  0.00    +0.000 C 
BRANCH  11  12
ATOM     12  N   UNL     1       2.249   4.590  19.651  0.00  0.00    +0.000 N 
ATOM     13  C   UNL     1       2.060   4.349  21.060  0.00  0.00    +0.000 C 
ATOM     14  C   UNL     1       1.445   2.964  21.106  0.00  0.00    +0.000 C 
ATOM     15  C   UNL     1       0.643   2.878  19.815  0.00  0.00    +0.000 C 
ATOM     16  C   UNL     1       1.385   3.822  18.878  0.00  0.00    +0.000 C 
ATOM     17  O   UNL     1       1.200   3.908  17.682  0.00  0.00    +0.000 OA
ENDBRANCH  11  12
ENDBRANCH  10  11
ENDBRANCH   1  10
TORSDOF 6
ENDMDL
MODEL 3
REMARK VINA RESULT:      -5.9      1.903      5.626
REMARK  Name = 
REMARK  7 active torsions:
REMARK  status: ('A' for Active; 'I' for Inactive)
REMARK    1  A    between atoms: C_1  and  N_2
REMARK    2  A    between atoms: N_2  and  C_5
REMARK    3  A    between atoms: C_5  and  P_6
REMARK    4  A    between atoms: P_6  and  O_8
REMARK    5  A    between atoms: P_6  and  C_9
REMARK    6  A    between atoms: C_9  and  C_10
REMARK    7  A    between atoms: C_10  and  N_11
REMARK                            x       y       z     vdW  Elec       q    Type
REMARK                         _______ _______ _______ _____ _____    ______ ____
ROOT
ATOM      1  P   UNL     1       5.565   4.579  17.282  0.00  0.00    +0.000 P 
ATOM      2  O   UNL     1       5.156   3.849  16.034  0.00  0.00    +0.000 OA
ENDROOT
BRANCH   1   3
ATOM      3  O   UNL     1       5.763   3.524  18.493  0.00  0.00    +0.000 OA
ATOM      4  H   UNL     1       5.632   2.581  18.265  0.00  0.00    +0.000 HD
ENDBRANCH   1   3
BRANCH   1   5
ATOM      5  C   UNL     1       7.165   5.348  17.085  0.00  0.00    +0.000 C 
BRANCH   5   7
ATOM      6  C   UNL     1       7.565   7.781  17.429  0.00  0.00    +0.000 C 
ATOM      7  N   UNL     1       7.476   6.446  17.988  0.00  0.00    +0.000 N 
ATOM      8  C   UNL     1       8.023   6.164  19.225  0.00  0.00    +0.000 C 
ATOM      9  O   UNL     1       8.204   5.037  19.668  0.00  0.00    +0.000 OA
ENDBRANCH   5   7
ENDBRANCH   1   5
BRANCH   1  10
ATOM     10  C   UNL     1       4.257   5.587  17.945  0.00  0.00    +0.000 C 
BRANCH  10  11
ATOM     11  C   UNL     1       2.825   5.090  17.916  0.00  0.00    +0.000 C 
BRANCH  11  12
ATOM     12  N   UNL     1       2.483   4.314  19.119  0.00  0.00    +0.000 N 
ATOM     13  C   UNL     1       1.731   4.878  20.212  0.00  0.00    +0.000 C 
ATOM     14  C   UNL     1       1.786   3.801  21.277  0.00  0.00    +0.000 C 
ATOM     15  C   UNL     1       1.845   2.505  20.481  0.00  0.00    +0.000 C 
ATOM     16  C   UNL     1       2.507   2.925  19.176  0.00  0.00    +0.000 C 
ATOM     17  O   UNL     1       2.927   2.165  18.327  0.00  0.00    +0.000 OA
ENDBRANCH  11  12
ENDBRANCH  10  11
ENDBRANCH   1  10
TORSDOF 6
ENDMDL
MODEL 4
REMARK VINA RESULT:      -5.9      1.979      2.523
REMARK  Name = 
REMARK  7 active torsions:
REMARK  status: ('A' for Active; 'I' for Inactive)
REMARK    1  A    between atoms: C_1  and  N_2
REMARK    2  A    between atoms: N_2  and  C_5
REMARK    3  A    between atoms: C_5  and  P_6
REMARK    4  A    between atoms: P_6  and  O_8
REMARK    5  A    between atoms: P_6  and  C_9
REMARK    6  A    between atoms: C_9  and  C_10
REMARK    7  A    between atoms: C_10  and  N_11
REMARK                            x       y       z     vdW  Elec       q    Type
REMARK                         _______ _______ _______ _____ _____    ______ ____
ROOT
ATOM      1  P   UNL     1       4.119   2.271  19.570  0.00  0.00    +0.000 P 
ATOM      2  O   UNL     1       5.095   1.858  20.635  0.00  0.00    +0.000 OA
ENDROOT
BRANCH   1   3
ATOM      3  O   UNL     1       4.025   1.120  18.437  0.00  0.00    +0.000 OA
ATOM      4  H   UNL     1       3.259   0.514  18.505  0.00  0.00    +0.000 HD
ENDBRANCH   1   3
BRANCH   1   5
ATOM      5  C   UNL     1       2.463   2.398  20.227  0.00  0.00    +0.000 C 
BRANCH   5   7
ATOM      6  C   UNL     1       1.183   3.235  18.263  0.00  0.00    +0.000 C 
ATOM      7  N   UNL     1       1.605   3.415  19.638  0.00  0.00    +0.000 N 
ATOM      8  C   UNL     1       1.520   4.655  20.243  0.00  0.00    +0.000 C 
ATOM      9  O   UNL     1       2.061   4.955  21.300  0.00  0.00    +0.000 OA
ENDBRANCH   5   7
ENDBRANCH   1   5
BRANCH   1  10
ATOM     10  C   UNL     1       4.711   3.636  18.593  0.00  0.00    +0.000 C 
BRANCH  10  11
ATOM     11  C   UNL     1       4.931   4.991  19.234  0.00  0.00    +0.000 C 
BRANCH  11  12
ATOM     12  N   UNL     1       6.075   5.705  18.643  0.00  0.00    +0.000 N 
ATOM     13  C   UNL     1       5.924   6.635  17.553  0.00  0.00    +0.000 C 
ATOM     14  C   UNL     1       7.351   6.966  17.165  0.00  0.00    +0.000 C 
ATOM     15  C   UNL     1       8.119   6.859  18.475  0.00  0.00    +0.000 C 
ATOM     16  C   UNL     1       7.305   5.851  19.276  0.00  0.00    +0.000 C 
ATOM     17  O   UNL     1       7.665   5.324  20.308  0.00  0.00    +0.000 OA
ENDBRANCH  11  12
ENDBRANCH  10  11
ENDBRANCH   1  10
TORSDOF 6
ENDMDL
MODEL 5
REMARK VINA RESULT:      -5.9      2.026      5.708
REMARK  Name = 
REMARK  7 active torsions:
REMARK  status: ('A' for Active; 'I' for Inactive)
REMARK    1  A    between atoms: C_1  and  N_2
REMARK    2  A    between atoms: N_2  and  C_5
REMARK    3  A    between atoms: C_5  and  P_6
REMARK    4  A    between atoms: P_6  and  O_8
REMARK    5  A    between atoms: P_6  and  C_9
REMARK    6  A    between atoms: C_9  and  C_10
REMARK    7  A    between atoms: C_10  and  N_11
REMARK                            x       y       z     vdW  Elec       q    Type
REMARK                         _______ _______ _______ _____ _____    ______ ____
ROOT
ATOM      1  P   UNL     1       5.502   4.636  19.008  0.00  0.00    +0.000 P 
ATOM      2  O   UNL     1       5.168   3.236  19.442  0.00  0.00    +0.000 OA
ENDROOT
BRANCH   1   3
ATOM      3  O   UNL     1       6.653   5.246  19.966  0.00  0.00    +0.000 OA
ATOM      4  H   UNL     1       7.521   5.410  19.543  0.00  0.00    +0.000 HD
ENDBRANCH   1   3
BRANCH   1   5
ATOM      5  C   UNL     1       6.219   4.649  17.372  0.00  0.00    +0.000 C 
BRANCH   5   7
ATOM      6  C   UNL     1       5.398   5.858  15.357  0.00  0.00    +0.000 C 
ATOM      7  N   UNL     1       6.106   5.891  16.622  0.00  0.00    +0.000 N 
ATOM      8  C   UNL     1       6.954   6.939  16.926  0.00  0.00    +0.000 C 
ATOM      9  O   UNL     1       7.762   6.939  17.846  0.00  0.00    +0.000 OA
ENDBRANCH   5   7
ENDBRANCH   1   5
BRANCH   1  10
ATOM     10  C   UNL     1       4.179   5.784  19.323  0.00  0.00    +0.000 C 
BRANCH  10  11
ATOM     11  C   UNL     1       2.858   5.642  18.593  0.00  0.00    +0.000 C 
BRANCH  11  12
ATOM     12  N   UNL     1       2.118   4.442  19.016  0.00  0.00    +0.000 N 
ATOM     13  C   UNL     1       1.356   4.397  20.238  0.00  0.00    +0.000 C 
ATOM     14  C   UNL     1       0.938   2.945  20.346  0.00  0.00    +0.000 C 
ATOM     15  C   UNL     1       0.800   2.496  18.898  0.00  0.00    +0.000 C 
ATOM     16  C   UNL     1       1.770   3.405  18.156  0.00  0.00    +0.000 C 
ATOM     17  O   UNL     1       2.122   3.261  17.004  0.00  0.00    +0.000 OA
ENDBRANCH  11  12
ENDBRANCH  10  11
ENDBRANCH   1  10
TORSDOF 6
ENDMDL
MODEL 6
REMARK VINA RESULT:      -5.9      1.854      5.844
REMARK  Name = 
REMARK  7 active torsions:
REMARK  status: ('A' for Active; 'I' for Inactive)
REMARK    1  A    between atoms: C_1  and  N_2
REMARK    2  A    between atoms: N_2  and  C_5
REMARK    3  A    between atoms: C_5  and  P_6
REMARK    4  A    between atoms: P_6  and  O_8
REMARK    5  A    between atoms: P_6  and  C_9
REMARK    6  A    between atoms: C_9  and  C_10
REMARK    7  A    between atoms: C_10  and  N_11
REMARK                            x       y       z     vdW  Elec       q    Type
REMARK                         _______ _______ _______ _____ _____    ______ ____
ROOT
ATOM      1  P   UNL     1       5.421   4.386  17.643  0.00  0.00    +0.000 P 
ATOM      2  O   UNL     1       4.837   3.802  16.388  0.00  0.00    +0.000 OA
ENDROOT
BRANCH   1   3
ATOM      3  O   UNL     1       5.492   3.250  18.794  0.00  0.00    +0.000 OA
ATOM      4  H   UNL     1       6.129   2.523  18.639  0.00  0.00    +0.000 HD
ENDBRANCH   1   3
BRANCH   1   5
ATOM      5  C   UNL     1       7.118   4.886  17.394  0.00  0.00    +0.000 C 
BRANCH   5   7
ATOM      6  C   UNL     1       7.795   5.605  19.678  0.00  0.00    +0.000 C 
ATOM      7  N   UNL     1       7.626   5.926  18.274  0.00  0.00    +0.000 N 
ATOM      8  C   UNL     1       7.585   7.242  17.854  0.00  0.00    +0.000 C 
ATOM      9  O   UNL     1       7.216   7.610  16.746  0.00  0.00    +0.000 OA
ENDBRANCH   5   7
ENDBRANCH   1   5
BRANCH   1  10
ATOM     10  C   UNL     1       4.335   5.562  18.420  0.00  0.00    +0.000 C 
BRANCH  10  11
ATOM     11  C   UNL     1       2.876   5.631  18.017  0.00  0.00    +0.000 C 
BRANCH  11  12
ATOM     12  N   UNL     1       2.055   4.641  18.733  0.00  0.00    +0.000 N 
ATOM     13  C   UNL     1       1.872   3.296  18.246  0.00  0.00    +0.000 C 
ATOM     14  C   UNL     1       0.830   2.717  19.182  0.00  0.00    +0.000 C 
ATOM     15  C   UNL     1       1.091   3.427  20.503  0.00  0.00    +0.000 C 
ATOM     16  C   UNL     1       1.699   4.755  20.072  0.00  0.00    +0.000 C 
ATOM     17  O   UNL     1       1.879   5.710  20.799  0.00  0.00    +0.000 OA
ENDBRANCH  11  12
ENDBRANCH  10  11
ENDBRANCH   1  10
TORSDOF 6
ENDMDL
MODEL 7
REMARK VINA RESULT:      -5.9      1.806      5.680
REMARK  Name = 
REMARK  7 active torsions:
REMARK  status: ('A' for Active; 'I' for Inactive)
REMARK    1  A    between atoms: C_1  and  N_2
REMARK    2  A    between atoms: N_2  and  C_5
REMARK    3  A    between atoms: C_5  and  P_6
REMARK    4  A    between atoms: P_6  and  O_8
REMARK    5  A    between atoms: P_6  and  C_9
REMARK    6  A    between atoms: C_9  and  C_10
REMARK    7  A    between atoms: C_10  and  N_11
REMARK                            x       y       z     vdW  Elec       q    Type
REMARK                         _______ _______ _______ _____ _____    ______ ____
ROOT
ATOM      1  P   UNL     1       5.782   4.629  15.976  0.00  0.00    +0.000 P 
ATOM      2  O   UNL     1       5.682   5.832  15.082  0.00  0.00    +0.000 OA
ENDROOT
BRANCH   1   3
ATOM      3  O   UNL     1       6.021   3.301  15.083  0.00  0.00    +0.000 OA
ATOM      4  H   UNL     1       6.953   3.021  14.972  0.00  0.00    +0.000 HD
ENDBRANCH   1   3
BRANCH   1   5
ATOM      5  C   UNL     1       7.217   4.728  17.035  0.00  0.00    +0.000 C 
BRANCH   5   7
ATOM      6  C   UNL     1       6.411   5.378  19.299  0.00  0.00    +0.000 C 
ATOM      7  N   UNL     1       7.168   5.710  18.107  0.00  0.00    +0.000 N 
ATOM      8  C   UNL     1       7.510   7.021  17.834  0.00  0.00    +0.000 C 
ATOM      9  O   UNL     1       7.933   7.423  16.758  0.00  0.00    +0.000 OA
ENDBRANCH   5   7
ENDBRANCH   1   5
BRANCH   1  10
ATOM     10  C   UNL     1       4.231   4.221  16.749  0.00  0.00    +0.000 C 
BRANCH  10  11
ATOM     11  C   UNL     1       4.101   2.954  17.571  0.00  0.00    +0.000 C 
BRANCH  11  12
ATOM     12  N   UNL     1       3.368   3.181  18.827  0.00  0.00    +0.000 N 
ATOM     13  C   UNL     1       1.990   3.602  18.850  0.00  0.00    +0.000 C 
ATOM     14  C   UNL     1       1.727   3.882  20.316  0.00  0.00    +0.000 C 
ATOM     15  C   UNL     1       2.632   2.898  21.044  0.00  0.00    +0.000 C 
ATOM     16  C   UNL     1       3.772   2.677  20.059  0.00  0.00    +0.000 C 
ATOM     17  O   UNL     1       4.816   2.112  20.312  0.00  0.00    +0.000 OA
ENDBRANCH  11  12
ENDBRANCH  10  11
ENDBRANCH   1  10
TORSDOF 6
ENDMDL
MODEL 8
REMARK VINA RESULT:      -5.8      2.649      3.424
REMARK  Name = 
REMARK  7 active torsions:
REMARK  status: ('A' for Active; 'I' for Inactive)
REMARK    1  A    between atoms: C_1  and  N_2
REMARK    2  A    between atoms: N_2  and  C_5
REMARK    3  A    between atoms: C_5  and  P_6
REMARK    4  A    between atoms: P_6  and  O_8
REMARK    5  A    between atoms: P_6  and  C_9
REMARK    6  A    between atoms: C_9  and  C_10
REMARK    7  A    between atoms: C_10  and  N_11
REMARK                            x       y       z     vdW  Elec       q    Type
REMARK                         _______ _______ _______ _____ _____    ______ ____
ROOT
ATOM      1  P   UNL     1       5.075   4.680  17.804  0.00  0.00    +0.000 P 
ATOM      2  O   UNL     1       4.524   5.740  18.714  0.00  0.00    +0.000 OA
ENDROOT
BRANCH   1   3
ATOM      3  O   UNL     1       6.446   4.083  18.424  0.00  0.00    +0.000 OA
ATOM      4  H   UNL     1       7.194   4.711  18.491  0.00  0.00    +0.000 HD
ENDBRANCH   1   3
BRANCH   1   5
ATOM      5  C   UNL     1       3.973   3.277  17.707  0.00  0.00    +0.000 C 
BRANCH   5   7
ATOM      6  C   UNL     1       1.811   3.692  18.867  0.00  0.00    +0.000 C 
ATOM      7  N   UNL     1       3.109   3.047  18.854  0.00  0.00    +0.000 N 
ATOM      8  C   UNL     1       3.660   2.550  20.021  0.00  0.00    +0.000 C 
ATOM      9  O   UNL     1       4.828   2.208  20.152  0.00  0.00    +0.000 OA
ENDBRANCH   5   7
ENDBRANCH   1   5
BRANCH   1  10
ATOM     10  C   UNL     1       5.680   5.343  16.267  0.00  0.00    +0.000 C 
BRANCH  10  11
ATOM     11  C   UNL     1       7.037   4.923  15.739  0.00  0.00    +0.000 C 
BRANCH  11  12
ATOM     12  N   UNL     1       6.983   4.536  14.320  0.00  0.00    +0.000 N 
ATOM     13  C   UNL     1       5.878   3.796  13.764  0.00  0.00    +0.000 C 
ATOM     14  C   UNL     1       6.337   3.470  12.357  0.00  0.00    +0.000 C 
ATOM     15  C   UNL     1       7.226   4.648  11.982  0.00  0.00    +0.000 C 
ATOM     16  C   UNL     1       7.754   5.130  13.327  0.00  0.00    +0.000 C 
ATOM     17  O   UNL     1       8.654   5.931  13.479  0.00  0.00    +0.000 OA
ENDBRANCH  11  12
ENDBRANCH  10  11
ENDBRANCH   1  10
TORSDOF 6
ENDMDL
MODEL 9
REMARK VINA RESULT:      -5.8      1.679      2.183
REMARK  Name = 
REMARK  7 active torsions:
REMARK  status: ('A' for Active; 'I' for Inactive)
REMARK    1  A    between atoms: C_1  and  N_2
REMARK    2  A    between atoms: N_2  and  C_5
REMARK    3  A    between atoms: C_5  and  P_6
REMARK    4  A    between atoms: P_6  and  O_8
REMARK    5  A    between atoms: P_6  and  C_9
REMARK    6  A    between atoms: C_9  and  C_10
REMARK    7  A    between atoms: C_10  and  N_11
REMARK                            x       y       z     vdW  Elec       q    Type
REMARK                         _______ _______ _______ _____ _____    ______ ____
ROOT
ATOM      1  P   UNL     1       3.876   3.349  18.423  0.00  0.00    +0.000 P 
ATOM      2  O   UNL     1       5.080   3.347  19.321  0.00  0.00    +0.000 OA
ENDROOT
BRANCH   1   3
ATOM      3  O   UNL     1       3.428   1.827  18.104  0.00  0.00    +0.000 OA
ATOM      4  H   UNL     1       3.498   1.547  17.168  0.00  0.00    +0.000 HD
ENDBRANCH   1   3
BRANCH   1   5
ATOM      5  C   UNL     1       2.463   4.076  19.239  0.00  0.00    +0.000 C 
BRANCH   5   7
ATOM      6  C   UNL     1       2.304   2.981  21.469  0.00  0.00    +0.000 C 
ATOM      7  N   UNL     1       1.730   3.219  20.159  0.00  0.00    +0.000 N 
ATOM      8  C   UNL     1       0.743   2.389  19.662  0.00  0.00    +0.000 C 
ATOM      9  O   UNL     1       0.372   2.366  18.495  0.00  0.00    +0.000 OA
ENDBRANCH   5   7
ENDBRANCH   1   5
BRANCH   1  10
ATOM     10  C   UNL     1       4.248   3.925  16.780  0.00  0.00    +0.000 C 
BRANCH  10  11
ATOM     11  C   UNL     1       5.687   4.009  16.312  0.00  0.00    +0.000 C 
BRANCH  11  12
ATOM     12  N   UNL     1       6.378   5.190  16.855  0.00  0.00    +0.000 N 
ATOM     13  C   UNL     1       5.724   6.466  17.002  0.00  0.00    +0.000 C 
ATOM     14  C   UNL     1       6.847   7.399  17.408  0.00  0.00    +0.000 C 
ATOM     15  C   UNL     1       7.796   6.506  18.194  0.00  0.00    +0.000 C 
ATOM     16  C   UNL     1       7.550   5.125  17.602  0.00  0.00    +0.000 C 
ATOM     17  O   UNL     1       8.237   4.145  17.802  0.00  0.00    +0.000 OA
ENDBRANCH  11  12
ENDBRANCH  10  11
ENDBRANCH   1  10
TORSDOF 6
ENDMDL
