MODEL 1
REMARK VINA RESULT:      -8.0      0.000      0.000
REMARK  Name = 
REMARK  3 active torsions:
REMARK  status: ('A' for Active; 'I' for Inactive)
REMARK    1  A    between atoms: C_1  and  C_2
REMARK    2  A    between atoms: C_9  and  S_10
REMARK    3  A    between atoms: S_10  and  C_13
REMARK                            x       y       z     vdW  Elec       q    Type
REMARK                         _______ _______ _______ _____ _____    ______ ____
ROOT
ATOM      1  C   UNL     1       6.760   4.123  14.729  0.00  0.00    +0.000 C 
ATOM      2  C   UNL     1       6.409   5.293  15.646  0.00  0.00    +0.000 C 
ATOM      3  C   UNL     1       6.522   4.869  17.120  0.00  0.00    +0.000 C 
ATOM      4  C   UNL     1       6.039   5.974  18.057  0.00  0.00    +0.000 C 
ATOM      5  N   UNL     1       4.682   6.350  17.679  0.00  0.00    +0.000 N 
ATOM      6  C   UNL     1       3.673   6.521  18.611  0.00  0.00    +0.000 A 
ATOM      7  N   UNL     1       3.083   7.703  18.695  0.00  0.00    +0.000 NA
ATOM      8  C   UNL     1       2.042   7.882  19.580  0.00  0.00    +0.000 A 
ATOM      9  C   UNL     1       1.205   8.933  19.916  0.00  0.00    +0.000 A 
ATOM     10  N   UNL     1       0.323   8.546  20.898  0.00  0.00    +0.000 NA
ATOM     11  N   UNL     1       0.550   7.270  21.178  0.00  0.00    +0.000 NA
ATOM     12  N   UNL     1       1.564   6.861  20.397  0.00  0.00    +0.000 N 
ATOM     13  C   UNL     1       2.145   5.585  20.351  0.00  0.00    +0.000 A 
ATOM     14  C   UNL     1       1.803   4.412  21.062  0.00  0.00    +0.000 A 
ATOM     15  C   UNL     1       2.628   3.369  20.690  0.00  0.00    +0.000 A 
ATOM     16  S   UNL     1       3.760   3.830  19.483  0.00  0.00    +0.000 S 
ATOM     17  C   UNL     1       3.193   5.432  19.476  0.00  0.00    +0.000 A 
ATOM     18  C   UNL     1       4.564   6.905  16.333  0.00  0.00    +0.000 C 
ATOM     19  C   UNL     1       4.997   5.825  15.336  0.00  0.00    +0.000 C 
ENDROOT
BRANCH   9  20
ATOM     20  S   UNL     1       1.195  10.524  19.268  0.00  0.00    +0.000 S 
ATOM     21  O   UNL     1       1.475  11.422  20.371  0.00  0.00    +0.000 OA
ATOM     22  O   UNL     1       2.064  10.473  18.105  0.00  0.00    +0.000 OA
BRANCH  20  23
ATOM     23  C   UNL     1      -0.457  10.825  18.699  0.00  0.00    +0.000 A 
ATOM     24  C   UNL     1      -1.310  11.636  19.457  0.00  0.00    +0.000 A 
ATOM     25  C   UNL     1      -2.649  11.775  19.083  0.00  0.00    +0.000 A 
ATOM     26  C   UNL     1      -3.133  11.096  17.963  0.00  0.00    +0.000 A 
ATOM     27  C   UNL     1      -2.274  10.286  17.216  0.00  0.00    +0.000 A 
ATOM     28 CL   UNL     1      -2.887   9.436  15.850  0.00  0.00    +0.000 Cl
ATOM     29  C   UNL     1      -0.936  10.143  17.576  0.00  0.00    +0.000 A 
ENDBRANCH  20  23
ENDBRANCH   9  20
TORSDOF 2
ENDMDL
MODEL 2
REMARK VINA RESULT:      -8.0      1.024      1.363
REMARK  Name = 
REMARK  3 active torsions:
REMARK  status: ('A' for Active; 'I' for Inactive)
REMARK    1  A    between atoms: C_1  and  C_2
REMARK    2  A    between atoms: C_9  and  S_10
REMARK    3  A    between atoms: S_10  and  C_13
REMARK                            x       y       z     vdW  Elec       q    Type
REMARK                         _______ _______ _______ _____ _____    ______ ____
ROOT
ATOM      1  C   UNL     1       6.948   4.098  14.576  0.00  0.00    +0.000 C 
ATOM      2  C   UNL     1       6.559   5.266  15.480  0.00  0.00    +0.000 C 
ATOM      3  C   UNL     1       6.744   4.882  16.958  0.00  0.00    +0.000 C 
ATOM      4  C   UNL     1       6.227   5.978  17.887  0.00  0.00    +0.000 C 
ATOM      5  N   UNL     1       4.839   6.267  17.546  0.00  0.00    +0.000 N 
ATOM      6  C   UNL     1       3.852   6.400  18.508  0.00  0.00    +0.000 A 
ATOM      7  N   UNL     1       3.197   7.547  18.587  0.00  0.00    +0.000 NA
ATOM      8  C   UNL     1       2.176   7.686  19.502  0.00  0.00    +0.000 A 
ATOM      9  C   UNL     1       1.290   8.695  19.844  0.00  0.00    +0.000 A 
ATOM     10  N   UNL     1       0.464   8.279  20.862  0.00  0.00    +0.000 NA
ATOM     11  N   UNL     1       0.774   7.026  21.161  0.00  0.00    +0.000 NA
ATOM     12  N   UNL     1       1.785   6.658  20.355  0.00  0.00    +0.000 N 
ATOM     13  C   UNL     1       2.438   5.416  20.316  0.00  0.00    +0.000 A 
ATOM     14  C   UNL     1       2.187   4.243  21.063  0.00  0.00    +0.000 A 
ATOM     15  C   UNL     1       3.060   3.240  20.685  0.00  0.00    +0.000 A 
ATOM     16  S   UNL     1       4.123   3.739  19.432  0.00  0.00    +0.000 S 
ATOM     17  C   UNL     1       3.464   5.305  19.410  0.00  0.00    +0.000 A 
ATOM     18  C   UNL     1       4.647   6.783  16.194  0.00  0.00    +0.000 C 
ATOM     19  C   UNL     1       5.110   5.708  15.206  0.00  0.00    +0.000 C 
ENDROOT
BRANCH   9  20
ATOM     20  S   UNL     1       1.167  10.268  19.163  0.00  0.00    +0.000 S 
ATOM     21  O   UNL     1       1.504  11.202  20.219  0.00  0.00    +0.000 OA
ATOM     22  O   UNL     1       1.937  10.218  17.934  0.00  0.00    +0.000 OA
BRANCH  20  23
ATOM     23  C   UNL     1      -0.537  10.495  18.729  0.00  0.00    +0.000 A 
ATOM     24  C   UNL     1      -1.037   9.900  17.564  0.00  0.00    +0.000 A 
ATOM     25  C   UNL     1      -2.341  10.177  17.149  0.00  0.00    +0.000 A 
ATOM     26  C   UNL     1      -3.136  11.055  17.890  0.00  0.00    +0.000 A 
ATOM     27  C   UNL     1      -2.627  11.645  19.048  0.00  0.00    +0.000 A 
ATOM     28 CL   UNL     1      -3.608  12.742  19.941  0.00  0.00    +0.000 Cl
ATOM     29  C   UNL     1      -1.328  11.374  19.475  0.00  0.00    +0.000 A 
ENDBRANCH  20  23
ENDBRANCH   9  20
TORSDOF 2
ENDMDL
MODEL 3
REMARK VINA RESULT:      -7.3      7.720     10.059
REMARK  Name = 
REMARK  3 active torsions:
REMARK  status: ('A' for Active; 'I' for Inactive)
REMARK    1  A    between atoms: C_1  and  C_2
REMARK    2  A    between atoms: C_9  and  S_10
REMARK    3  A    between atoms: S_10  and  C_13
REMARK                            x       y       z     vdW  Elec       q    Type
REMARK                         _______ _______ _______ _____ _____    ______ ____
ROOT
ATOM      1  C   UNL     1      -2.907  10.639  15.116  0.00  0.00    +0.000 C 
ATOM      2  C   UNL     1      -3.293  10.539  16.590  0.00  0.00    +0.000 C 
ATOM      3  C   UNL     1      -4.808  10.744  16.761  0.00  0.00    +0.000 C 
ATOM      4  C   UNL     1      -5.201  10.793  18.235  0.00  0.00    +0.000 C 
ATOM      5  N   UNL     1      -4.412  11.825  18.898  0.00  0.00    +0.000 N 
ATOM      6  C   UNL     1      -4.974  12.744  19.767  0.00  0.00    +0.000 A 
ATOM      7  N   UNL     1      -4.536  12.783  21.016  0.00  0.00    +0.000 NA
ATOM      8  C   UNL     1      -5.044  13.723  21.886  0.00  0.00    +0.000 A 
ATOM      9  C   UNL     1      -4.819  14.062  23.210  0.00  0.00    +0.000 A 
ATOM     10  N   UNL     1      -5.634  15.106  23.580  0.00  0.00    +0.000 NA
ATOM     11  N   UNL     1      -6.351  15.465  22.525  0.00  0.00    +0.000 NA
ATOM     12  N   UNL     1      -6.005  14.656  21.509  0.00  0.00    +0.000 N 
ATOM     13  C   UNL     1      -6.507  14.669  20.199  0.00  0.00    +0.000 A 
ATOM     14  C   UNL     1      -7.451  15.535  19.603  0.00  0.00    +0.000 A 
ATOM     15  C   UNL     1      -7.638  15.200  18.276  0.00  0.00    +0.000 A 
ATOM     16  S   UNL     1      -6.651  13.880  17.791  0.00  0.00    +0.000 S 
ATOM     17  C   UNL     1      -6.001  13.712  19.352  0.00  0.00    +0.000 A 
ATOM     18  C   UNL     1      -2.973  11.580  18.889  0.00  0.00    +0.000 C 
ATOM     19  C   UNL     1      -2.504  11.560  17.430  0.00  0.00    +0.000 C 
ENDROOT
BRANCH   9  20
ATOM     20  S   UNL     1      -3.715  13.341  24.312  0.00  0.00    +0.000 S 
ATOM     21  O   UNL     1      -3.397  14.353  25.300  0.00  0.00    +0.000 OA
ATOM     22  O   UNL     1      -4.324  12.081  24.700  0.00  0.00    +0.000 OA
BRANCH  20  23
ATOM     23  C   UNL     1      -2.248  12.974  23.386  0.00  0.00    +0.000 A 
ATOM     24  C   UNL     1      -1.520  14.020  22.806  0.00  0.00    +0.000 A 
ATOM     25  C   UNL     1      -0.438  13.732  21.972  0.00  0.00    +0.000 A 
ATOM     26  C   UNL     1      -0.095  12.404  21.710  0.00  0.00    +0.000 A 
ATOM     27  C   UNL     1      -0.830  11.368  22.290  0.00  0.00    +0.000 A 
ATOM     28 CL   UNL     1      -0.413   9.735  21.943  0.00  0.00    +0.000 Cl
ATOM     29  C   UNL     1      -1.910  11.643  23.128  0.00  0.00    +0.000 A 
ENDBRANCH  20  23
ENDBRANCH   9  20
TORSDOF 2
ENDMDL
MODEL 4
REMARK VINA RESULT:      -7.0      3.252      7.601
REMARK  Name = 
REMARK  3 active torsions:
REMARK  status: ('A' for Active; 'I' for Inactive)
REMARK    1  A    between atoms: C_1  and  C_2
REMARK    2  A    between atoms: C_9  and  S_10
REMARK    3  A    between atoms: S_10  and  C_13
REMARK                            x       y       z     vdW  Elec       q    Type
REMARK                         _______ _______ _______ _____ _____    ______ ____
ROOT
ATOM      1  C   UNL     1       0.897  16.636  19.206  0.00  0.00    +0.000 C 
ATOM      2  C   UNL     1       0.802  15.228  18.622  0.00  0.00    +0.000 C 
ATOM      3  C   UNL     1      -0.451  14.513  19.154  0.00  0.00    +0.000 C 
ATOM      4  C   UNL     1      -0.496  13.056  18.700  0.00  0.00    +0.000 C 
ATOM      5  N   UNL     1       0.743  12.400  19.101  0.00  0.00    +0.000 N 
ATOM      6  C   UNL     1       0.762  11.151  19.698  0.00  0.00    +0.000 A 
ATOM      7  N   UNL     1       1.419  10.173  19.095  0.00  0.00    +0.000 NA
ATOM      8  C   UNL     1       1.495   8.934  19.695  0.00  0.00    +0.000 A 
ATOM      9  C   UNL     1       2.089   7.723  19.381  0.00  0.00    +0.000 A 
ATOM     10  N   UNL     1       1.829   6.796  20.362  0.00  0.00    +0.000 NA
ATOM     11  N   UNL     1       1.113   7.385  21.309  0.00  0.00    +0.000 NA
ATOM     12  N   UNL     1       0.913   8.659  20.929  0.00  0.00    +0.000 N 
ATOM     13  C   UNL     1       0.207   9.655  21.619  0.00  0.00    +0.000 A 
ATOM     14  C   UNL     1      -0.429   9.601  22.880  0.00  0.00    +0.000 A 
ATOM     15  C   UNL     1      -0.987  10.826  23.189  0.00  0.00    +0.000 A 
ATOM     16  S   UNL     1      -0.702  11.999  21.967  0.00  0.00    +0.000 S 
ATOM     17  C   UNL     1       0.128  10.877  20.996  0.00  0.00    +0.000 A 
ATOM     18  C   UNL     1       1.944  12.960  18.489  0.00  0.00    +0.000 C 
ATOM     19  C   UNL     1       2.072  14.419  18.940  0.00  0.00    +0.000 C 
ENDROOT
BRANCH   9  20
ATOM     20  S   UNL     1       3.023   7.334  17.992  0.00  0.00    +0.000 S 
ATOM     21  O   UNL     1       2.295   7.843  16.847  0.00  0.00    +0.000 OA
ATOM     22  O   UNL     1       4.368   7.794  18.290  0.00  0.00    +0.000 OA
BRANCH  20  23
ATOM     23  C   UNL     1       3.064   5.564  17.895  0.00  0.00    +0.000 A 
ATOM     24  C   UNL     1       4.139   4.933  17.256  0.00  0.00    +0.000 A 
ATOM     25  C   UNL     1       4.117   3.550  17.064  0.00  0.00    +0.000 A 
ATOM     26  C   UNL     1       3.019   2.804  17.499  0.00  0.00    +0.000 A 
ATOM     27  C   UNL     1       1.951   3.443  18.132  0.00  0.00    +0.000 A 
ATOM     28 CL   UNL     1       0.594   2.517  18.644  0.00  0.00    +0.000 Cl
ATOM     29  C   UNL     1       1.963   4.822  18.333  0.00  0.00    +0.000 A 
ENDBRANCH  20  23
ENDBRANCH   9  20
TORSDOF 2
ENDMDL
MODEL 5
REMARK VINA RESULT:      -7.0      3.593      7.679
REMARK  Name = 
REMARK  3 active torsions:
REMARK  status: ('A' for Active; 'I' for Inactive)
REMARK    1  A    between atoms: C_1  and  C_2
REMARK    2  A    between atoms: C_9  and  S_10
REMARK    3  A    between atoms: S_10  and  C_13
REMARK                            x       y       z     vdW  Elec       q    Type
REMARK                         _______ _______ _______ _____ _____    ______ ____
ROOT
ATOM      1  C   UNL     1       1.265  16.533  18.964  0.00  0.00    +0.000 C 
ATOM      2  C   UNL     1       1.098  15.101  18.459  0.00  0.00    +0.000 C 
ATOM      3  C   UNL     1      -0.216  14.500  18.985  0.00  0.00    +0.000 C 
ATOM      4  C   UNL     1      -0.341  13.023  18.615  0.00  0.00    +0.000 C 
ATOM      5  N   UNL     1       0.840  12.317  19.099  0.00  0.00    +0.000 N 
ATOM      6  C   UNL     1       0.758  11.107  19.767  0.00  0.00    +0.000 A 
ATOM      7  N   UNL     1       1.369  10.054  19.247  0.00  0.00    +0.000 NA
ATOM      8  C   UNL     1       1.344   8.852  19.919  0.00  0.00    +0.000 A 
ATOM      9  C   UNL     1       1.869   7.589  19.698  0.00  0.00    +0.000 A 
ATOM     10  N   UNL     1       1.517   6.741  20.721  0.00  0.00    +0.000 NA
ATOM     11  N   UNL     1       0.810   7.430  21.606  0.00  0.00    +0.000 NA
ATOM     12  N   UNL     1       0.705   8.688  21.145  0.00  0.00    +0.000 N 
ATOM     13  C   UNL     1       0.043   9.767  21.750  0.00  0.00    +0.000 A 
ATOM     14  C   UNL     1      -0.636   9.828  22.988  0.00  0.00    +0.000 A 
ATOM     15  C   UNL     1      -1.123  11.103  23.204  0.00  0.00    +0.000 A 
ATOM     16  S   UNL     1      -0.722  12.180  21.927  0.00  0.00    +0.000 S 
ATOM     17  C   UNL     1       0.064  10.952  21.055  0.00  0.00    +0.000 A 
ATOM     18  C   UNL     1       2.094  12.761  18.500  0.00  0.00    +0.000 C 
ATOM     19  C   UNL     1       2.302  14.234  18.870  0.00  0.00    +0.000 C 
ENDROOT
BRANCH   9  20
ATOM     20  S   UNL     1       2.821   7.059  18.370  0.00  0.00    +0.000 S 
ATOM     21  O   UNL     1       2.181   7.568  17.173  0.00  0.00    +0.000 OA
ATOM     22  O   UNL     1       4.186   7.425  18.702  0.00  0.00    +0.000 OA
BRANCH  20  23
ATOM     23  C   UNL     1       2.722   5.289  18.355  0.00  0.00    +0.000 A 
ATOM     24  C   UNL     1       1.616   4.665  17.763  0.00  0.00    +0.000 A 
ATOM     25  C   UNL     1       1.468   3.280  17.859  0.00  0.00    +0.000 A 
ATOM     26  C   UNL     1       2.415   2.525  18.554  0.00  0.00    +0.000 A 
ATOM     27  C   UNL     1       3.511   3.157  19.144  0.00  0.00    +0.000 A 
ATOM     28 CL   UNL     1       4.660   2.218  20.017  0.00  0.00    +0.000 Cl
ATOM     29  C   UNL     1       3.673   4.538  19.052  0.00  0.00    +0.000 A 
ENDBRANCH  20  23
ENDBRANCH   9  20
TORSDOF 2
ENDMDL
MODEL 6
REMARK VINA RESULT:      -7.0      6.941      9.316
REMARK  Name = 
REMARK  3 active torsions:
REMARK  status: ('A' for Active; 'I' for Inactive)
REMARK    1  A    between atoms: C_1  and  C_2
REMARK    2  A    between atoms: C_9  and  S_10
REMARK    3  A    between atoms: S_10  and  C_13
REMARK                            x       y       z     vdW  Elec       q    Type
REMARK                         _______ _______ _______ _____ _____    ______ ____
ROOT
ATOM      1  C   UNL     1       2.160  13.275  18.647  0.00  0.00    +0.000 C 
ATOM      2  C   UNL     1       1.121  12.790  19.656  0.00  0.00    +0.000 C 
ATOM      3  C   UNL     1       0.362  11.575  19.098  0.00  0.00    +0.000 C 
ATOM      4  C   UNL     1      -0.779  11.157  20.023  0.00  0.00    +0.000 C 
ATOM      5  N   UNL     1      -1.644  12.310  20.251  0.00  0.00    +0.000 N 
ATOM      6  C   UNL     1      -3.024  12.225  20.184  0.00  0.00    +0.000 A 
ATOM      7  N   UNL     1      -3.730  12.537  21.260  0.00  0.00    +0.000 NA
ATOM      8  C   UNL     1      -5.106  12.509  21.203  0.00  0.00    +0.000 A 
ATOM      9  C   UNL     1      -6.134  12.781  22.091  0.00  0.00    +0.000 A 
ATOM     10  N   UNL     1      -7.352  12.576  21.488  0.00  0.00    +0.000 NA
ATOM     11  N   UNL     1      -7.135  12.211  20.232  0.00  0.00    +0.000 NA
ATOM     12  N   UNL     1      -5.805  12.174  20.047  0.00  0.00    +0.000 N 
ATOM     13  C   UNL     1      -5.114  11.839  18.873  0.00  0.00    +0.000 A 
ATOM     14  C   UNL     1      -5.618  11.499  17.597  0.00  0.00    +0.000 A 
ATOM     15  C   UNL     1      -4.578  11.263  16.719  0.00  0.00    +0.000 A 
ATOM     16  S   UNL     1      -3.041  11.486  17.453  0.00  0.00    +0.000 S 
ATOM     17  C   UNL     1      -3.743  11.854  18.956  0.00  0.00    +0.000 A 
ATOM     18  C   UNL     1      -0.990  13.428  20.923  0.00  0.00    +0.000 C 
ATOM     19  C   UNL     1       0.146  13.924  20.023  0.00  0.00    +0.000 C 
ENDROOT
BRANCH   9  20
ATOM     20  S   UNL     1      -6.009  13.295  23.726  0.00  0.00    +0.000 S 
ATOM     21  O   UNL     1      -7.317  13.793  24.104  0.00  0.00    +0.000 OA
ATOM     22  O   UNL     1      -5.397  12.185  24.435  0.00  0.00    +0.000 OA
BRANCH  20  23
ATOM     23  C   UNL     1      -4.863  14.648  23.741  0.00  0.00    +0.000 A 
ATOM     24  C   UNL     1      -5.134  15.790  22.976  0.00  0.00    +0.000 A 
ATOM     25  C   UNL     1      -4.179  16.804  22.883  0.00  0.00    +0.000 A 
ATOM     26  C   UNL     1      -2.955  16.671  23.542  0.00  0.00    +0.000 A 
ATOM     27  C   UNL     1      -2.693  15.527  24.299  0.00  0.00    +0.000 A 
ATOM     28 CL   UNL     1      -1.173  15.364  25.088  0.00  0.00    +0.000 Cl
ATOM     29  C   UNL     1      -3.640  14.509  24.403  0.00  0.00    +0.000 A 
ENDBRANCH  20  23
ENDBRANCH   9  20
TORSDOF 2
ENDMDL
MODEL 7
REMARK VINA RESULT:      -7.0      4.186      7.139
REMARK  Name = 
REMARK  3 active torsions:
REMARK  status: ('A' for Active; 'I' for Inactive)
REMARK    1  A    between atoms: C_1  and  C_2
REMARK    2  A    between atoms: C_9  and  S_10
REMARK    3  A    between atoms: S_10  and  C_13
REMARK                            x       y       z     vdW  Elec       q    Type
REMARK                         _______ _______ _______ _____ _____    ______ ____
ROOT
ATOM      1  C   UNL     1       2.823   7.274  19.595  0.00  0.00    +0.000 C 
ATOM      2  C   UNL     1       1.470   7.971  19.462  0.00  0.00    +0.000 C 
ATOM      3  C   UNL     1       1.513   9.007  18.326  0.00  0.00    +0.000 C 
ATOM      4  C   UNL     1       0.222   9.819  18.264  0.00  0.00    +0.000 C 
ATOM      5  N   UNL     1      -0.018  10.420  19.571  0.00  0.00    +0.000 N 
ATOM      6  C   UNL     1      -0.392  11.745  19.721  0.00  0.00    +0.000 A 
ATOM      7  N   UNL     1      -1.544  12.014  20.314  0.00  0.00    +0.000 NA
ATOM      8  C   UNL     1      -1.913  13.326  20.519  0.00  0.00    +0.000 A 
ATOM      9  C   UNL     1      -2.996  13.964  21.101  0.00  0.00    +0.000 A 
ATOM     10  N   UNL     1      -2.845  15.328  21.022  0.00  0.00    +0.000 NA
ATOM     11  N   UNL     1      -1.684  15.582  20.434  0.00  0.00    +0.000 NA
ATOM     12  N   UNL     1      -1.116  14.401  20.136  0.00  0.00    +0.000 N 
ATOM     13  C   UNL     1       0.118  14.181  19.507  0.00  0.00    +0.000 A 
ATOM     14  C   UNL     1       1.085  15.113  19.067  0.00  0.00    +0.000 A 
ATOM     15  C   UNL     1       2.169  14.456  18.519  0.00  0.00    +0.000 A 
ATOM     16  S   UNL     1       1.996  12.748  18.580  0.00  0.00    +0.000 S 
ATOM     17  C   UNL     1       0.459  12.867  19.295  0.00  0.00    +0.000 A 
ATOM     18  C   UNL     1      -0.219   9.456  20.649  0.00  0.00    +0.000 C 
ATOM     19  C   UNL     1       1.064   8.631  20.792  0.00  0.00    +0.000 C 
ENDROOT
BRANCH   9  20
ATOM     20  S   UNL     1      -4.376  13.248  21.833  0.00  0.00    +0.000 S 
ATOM     21  O   UNL     1      -3.884  12.204  22.710  0.00  0.00    +0.000 OA
ATOM     22  O   UNL     1      -5.157  14.356  22.352  0.00  0.00    +0.000 OA
BRANCH  20  23
ATOM     23  C   UNL     1      -5.305  12.494  20.524  0.00  0.00    +0.000 A 
ATOM     24  C   UNL     1      -6.526  11.872  20.814  0.00  0.00    +0.000 A 
ATOM     25  C   UNL     1      -7.200  11.168  19.813  0.00  0.00    +0.000 A 
ATOM     26  C   UNL     1      -6.648  11.078  18.533  0.00  0.00    +0.000 A 
ATOM     27  C   UNL     1      -5.429  11.699  18.256  0.00  0.00    +0.000 A 
ATOM     28 CL   UNL     1      -4.748  11.561  16.681  0.00  0.00    +0.000 Cl
ATOM     29  C   UNL     1      -4.748  12.408  19.244  0.00  0.00    +0.000 A 
ENDBRANCH  20  23
ENDBRANCH   9  20
TORSDOF 2
ENDMDL
MODEL 8
REMARK VINA RESULT:      -7.0      5.677      9.706
REMARK  Name = 
REMARK  3 active torsions:
REMARK  status: ('A' for Active; 'I' for Inactive)
REMARK    1  A    between atoms: C_1  and  C_2
REMARK    2  A    between atoms: C_9  and  S_10
REMARK    3  A    between atoms: S_10  and  C_13
REMARK                            x       y       z     vdW  Elec       q    Type
REMARK                         _______ _______ _______ _____ _____    ______ ____
ROOT
ATOM      1  C   UNL     1      -5.962  15.198  24.195  0.00  0.00    +0.000 C 
ATOM      2  C   UNL     1      -4.721  14.980  23.331  0.00  0.00    +0.000 C 
ATOM      3  C   UNL     1      -5.028  15.315  21.861  0.00  0.00    +0.000 C 
ATOM      4  C   UNL     1      -3.850  14.970  20.953  0.00  0.00    +0.000 C 
ATOM      5  N   UNL     1      -3.497  13.569  21.153  0.00  0.00    +0.000 N 
ATOM      6  C   UNL     1      -3.249  12.709  20.098  0.00  0.00    +0.000 A 
ATOM      7  N   UNL     1      -2.061  12.130  20.019  0.00  0.00    +0.000 NA
ATOM      8  C   UNL     1      -1.807  11.232  19.007  0.00  0.00    +0.000 A 
ATOM      9  C   UNL     1      -0.727  10.448  18.633  0.00  0.00    +0.000 A 
ATOM     10  N   UNL     1      -1.031   9.724  17.504  0.00  0.00    +0.000 NA
ATOM     11  N   UNL     1      -2.282   9.999  17.161  0.00  0.00    +0.000 NA
ATOM     12  N   UNL     1      -2.757  10.888  18.049  0.00  0.00    +0.000 N 
ATOM     13  C   UNL     1      -4.036  11.464  18.081  0.00  0.00    +0.000 A 
ATOM     14  C   UNL     1      -5.147  11.239  17.236  0.00  0.00    +0.000 A 
ATOM     15  C   UNL     1      -6.221  12.006  17.644  0.00  0.00    +0.000 A 
ATOM     16  S   UNL     1      -5.863  12.942  19.039  0.00  0.00    +0.000 S 
ATOM     17  C   UNL     1      -4.263  12.370  19.088  0.00  0.00    +0.000 A 
ATOM     18  C   UNL     1      -3.050  13.249  22.506  0.00  0.00    +0.000 C 
ATOM     19  C   UNL     1      -4.208  13.535  23.468  0.00  0.00    +0.000 C 
ENDROOT
BRANCH   9  20
ATOM     20  S   UNL     1       0.808  10.331  19.396  0.00  0.00    +0.000 S 
ATOM     21  O   UNL     1       0.557   9.952  20.773  0.00  0.00    +0.000 OA
ATOM     22  O   UNL     1       1.611   9.494  18.524  0.00  0.00    +0.000 OA
BRANCH  20  23
ATOM     23  C   UNL     1       1.503  11.962  19.377  0.00  0.00    +0.000 A 
ATOM     24  C   UNL     1       2.261  12.375  18.274  0.00  0.00    +0.000 A 
ATOM     25  C   UNL     1       2.916  13.608  18.306  0.00  0.00    +0.000 A 
ATOM     26  C   UNL     1       2.822  14.418  19.440  0.00  0.00    +0.000 A 
ATOM     27  C   UNL     1       2.067  13.995  20.536  0.00  0.00    +0.000 A 
ATOM     28 CL   UNL     1       1.976  14.991  21.937  0.00  0.00    +0.000 Cl
ATOM     29  C   UNL     1       1.405  12.768  20.515  0.00  0.00    +0.000 A 
ENDBRANCH  20  23
ENDBRANCH   9  20
TORSDOF 2
ENDMDL
MODEL 9
REMARK VINA RESULT:      -6.9      3.949      9.703
REMARK  Name = 
REMARK  3 active torsions:
REMARK  status: ('A' for Active; 'I' for Inactive)
REMARK    1  A    between atoms: C_1  and  C_2
REMARK    2  A    between atoms: C_9  and  S_10
REMARK    3  A    between atoms: S_10  and  C_13
REMARK                            x       y       z     vdW  Elec       q    Type
REMARK                         _______ _______ _______ _____ _____    ______ ____
ROOT
ATOM      1  C   UNL     1      -4.754  16.285  24.602  0.00  0.00    +0.000 C 
ATOM      2  C   UNL     1      -3.696  15.933  23.558  0.00  0.00    +0.000 C 
ATOM      3  C   UNL     1      -4.275  16.082  22.141  0.00  0.00    +0.000 C 
ATOM      4  C   UNL     1      -3.286  15.599  21.082  0.00  0.00    +0.000 C 
ATOM      5  N   UNL     1      -2.896  14.229  21.393  0.00  0.00    +0.000 N 
ATOM      6  C   UNL     1      -2.845  13.235  20.431  0.00  0.00    +0.000 A 
ATOM      7  N   UNL     1      -1.690  12.628  20.209  0.00  0.00    +0.000 NA
ATOM      8  C   UNL     1      -1.626  11.602  19.292  0.00  0.00    +0.000 A 
ATOM      9  C   UNL     1      -0.632  10.755  18.830  0.00  0.00    +0.000 A 
ATOM     10  N   UNL     1      -1.138   9.898  17.881  0.00  0.00    +0.000 NA
ATOM     11  N   UNL     1      -2.432  10.151  17.744  0.00  0.00    +0.000 NA
ATOM     12  N   UNL     1      -2.737  11.156  18.582  0.00  0.00    +0.000 N 
ATOM     13  C   UNL     1      -3.990  11.756  18.776  0.00  0.00    +0.000 A 
ATOM     14  C   UNL     1      -5.238  11.447  18.190  0.00  0.00    +0.000 A 
ATOM     15  C   UNL     1      -6.221  12.281  18.687  0.00  0.00    +0.000 A 
ATOM     16  S   UNL     1      -5.612  13.382  19.857  0.00  0.00    +0.000 S 
ATOM     17  C   UNL     1      -4.029  12.790  19.680  0.00  0.00    +0.000 A 
ATOM     18  C   UNL     1      -2.202  14.077  22.669  0.00  0.00    +0.000 C 
ATOM     19  C   UNL     1      -3.159  14.508  23.785  0.00  0.00    +0.000 C 
ENDROOT
BRANCH   9  20
ATOM     20  S   UNL     1       1.020  10.707  19.302  0.00  0.00    +0.000 S 
ATOM     21  O   UNL     1       1.780  11.274  18.206  0.00  0.00    +0.000 OA
ATOM     22  O   UNL     1       1.060  11.300  20.627  0.00  0.00    +0.000 OA
BRANCH  20  23
ATOM     23  C   UNL     1       1.448   8.994  19.460  0.00  0.00    +0.000 A 
ATOM     24  C   UNL     1       1.137   8.312  20.643  0.00  0.00    +0.000 A 
ATOM     25  C   UNL     1       1.583   7.001  20.825  0.00  0.00    +0.000 A 
ATOM     26  C   UNL     1       2.345   6.380  19.832  0.00  0.00    +0.000 A 
ATOM     27  C   UNL     1       2.652   7.071  18.658  0.00  0.00    +0.000 A 
ATOM     28 CL   UNL     1       3.610   6.304  17.451  0.00  0.00    +0.000 Cl
ATOM     29  C   UNL     1       2.210   8.378  18.463  0.00  0.00    +0.000 A 
ENDBRANCH  20  23
ENDBRANCH   9  20
TORSDOF 2
ENDMDL
