MODEL 1
REMARK VINA RESULT:      -7.5      0.000      0.000
REMARK  Name = 
REMARK  11 active torsions:
REMARK  status: ('A' for Active; 'I' for Inactive)
REMARK    1  A    between atoms: C_1  and  C_2
REMARK    2  A    between atoms: C_2  and  C_3
REMARK    3  A    between atoms: C_8  and  N_9
REMARK    4  A    between atoms: C_10  and  C_12
REMARK    5  A    between atoms: C_12  and  N_13
REMARK    6  A    between atoms: N_16  and  C_17
REMARK    7  A    between atoms: C_17  and  C_18
REMARK    8  A    between atoms: N_20  and  C_21
REMARK    9  A    between atoms: C_23  and  C_24
REMARK   10  A    between atoms: C_27  and  O_28
REMARK   11  A    between atoms: O_28  and  C_29
REMARK                            x       y       z     vdW  Elec       q    Type
REMARK                         _______ _______ _______ _____ _____    ______ ____
ROOT
ATOM      1  N   UNL     1       1.555   6.385  19.908  0.00  0.00    +0.000 NA
ATOM      2  C   UNL     1       2.474   6.218  18.763  0.00  0.00    +0.000 C 
ATOM      3  C   UNL     1       3.864   5.660  19.128  0.00  0.00    +0.000 C 
ATOM      4  N   UNL     1       3.829   4.317  19.741  0.00  0.00    +0.000 NA
ATOM      5  C   UNL     1       2.900   4.342  20.891  0.00  0.00    +0.000 C 
ATOM      6  C   UNL     1       1.575   5.157  20.741  0.00  0.00    +0.000 C 
ENDROOT
BRANCH   1   7
ATOM      7  C   UNL     1       1.891   7.594  20.700  0.00  0.00    +0.000 C 
BRANCH   7   9
ATOM      8  N   UNL     1       0.757   9.748  20.239  0.00  0.00    +0.000 N 
ATOM      9  C   UNL     1       0.684   8.541  20.920  0.00  0.00    +0.000 C 
ATOM     10  O   UNL     1      -0.252   8.165  21.625  0.00  0.00    +0.000 OA
ATOM     11  H   UNL     1       1.660   9.915  19.808  0.00  0.00    +0.000 HD
BRANCH   8  17
ATOM     12  C   UNL     1      -1.019  10.960  19.030  0.00  0.00    +0.000 A 
ATOM     13  C   UNL     1      -1.986  11.986  18.994  0.00  0.00    +0.000 A 
ATOM     14  C   UNL     1      -2.194  12.817  20.089  0.00  0.00    +0.000 A 
ATOM     15  C   UNL     1      -1.437  12.629  21.237  0.00  0.00    +0.000 A 
ATOM     16  C   UNL     1      -0.457  11.629  21.280  0.00  0.00    +0.000 A 
ATOM     17  C   UNL     1      -0.221  10.782  20.187  0.00  0.00    +0.000 A 
BRANCH  12  19
ATOM     18  C   UNL     1      -2.277  10.048  17.082  0.00  0.00    +0.000 C 
ATOM     19  C   UNL     1      -0.949  10.042  17.832  0.00  0.00    +0.000 C 
ENDBRANCH  12  19
ENDBRANCH   8  17
ENDBRANCH   7   9
ENDBRANCH   1   7
BRANCH   4  20
ATOM     20  C   UNL     1       3.471   3.260  18.767  0.00  0.00    +0.000 C 
BRANCH  20  21
ATOM     21  C   UNL     1       3.963   3.600  17.351  0.00  0.00    +0.000 C 
ATOM     22  O   UNL     1       3.168   3.799  16.435  0.00  0.00    +0.000 OA
ATOM     23  N   UNL     1       5.342   3.586  17.211  0.00  0.00    +0.000 N 
ATOM     24  H   UNL     1       5.879   3.119  17.934  0.00  0.00    +0.000 HD
BRANCH  23  25
ATOM     25  C   UNL     1       6.003   3.954  16.027  0.00  0.00    +0.000 A 
ATOM     26  C   UNL     1       5.582   3.436  14.800  0.00  0.00    +0.000 A 
ATOM     27  C   UNL     1       6.160   3.856  13.595  0.00  0.00    +0.000 A 
ATOM     28  C   UNL     1       5.708   3.271  12.290  0.00  0.00    +0.000 C 
ATOM     29  C   UNL     1       7.180   4.814  13.633  0.00  0.00    +0.000 A 
ATOM     30  C   UNL     1       7.606   5.347  14.849  0.00  0.00    +0.000 A 
ATOM     31  C   UNL     1       7.027   4.919  16.053  0.00  0.00    +0.000 A 
BRANCH  31  32
ATOM     32  O   UNL     1       7.536   5.469  17.201  0.00  0.00    +0.000 OA
ATOM     33  C   UNL     1       7.176   6.842  17.379  0.00  0.00    +0.000 C 
ENDBRANCH  31  32
ENDBRANCH  23  25
ENDBRANCH  20  21
ENDBRANCH   4  20
TORSDOF 8
ENDMDL
MODEL 2
REMARK VINA RESULT:      -7.3      3.016      5.546
REMARK  Name = 
REMARK  11 active torsions:
REMARK  status: ('A' for Active; 'I' for Inactive)
REMARK    1  A    between atoms: C_1  and  C_2
REMARK    2  A    between atoms: C_2  and  C_3
REMARK    3  A    between atoms: C_8  and  N_9
REMARK    4  A    between atoms: C_10  and  C_12
REMARK    5  A    between atoms: C_12  and  N_13
REMARK    6  A    between atoms: N_16  and  C_17
REMARK    7  A    between atoms: C_17  and  C_18
REMARK    8  A    between atoms: N_20  and  C_21
REMARK    9  A    between atoms: C_23  and  C_24
REMARK   10  A    between atoms: C_27  and  O_28
REMARK   11  A    between atoms: O_28  and  C_29
REMARK                            x       y       z     vdW  Elec       q    Type
REMARK                         _______ _______ _______ _____ _____    ______ ____
ROOT
ATOM      1  N   UNL     1       0.617  12.192  21.300  0.00  0.00    +0.000 NA
ATOM      2  C   UNL     1       0.043  10.862  21.592  0.00  0.00    +0.000 C 
ATOM      3  C   UNL     1      -0.443  10.083  20.353  0.00  0.00    +0.000 C 
ATOM      4  N   UNL     1       0.622   9.792  19.372  0.00  0.00    +0.000 NA
ATOM      5  C   UNL     1       1.307  11.054  19.025  0.00  0.00    +0.000 C 
ATOM      6  C   UNL     1       1.576  12.080  20.172  0.00  0.00    +0.000 C 
ENDROOT
BRANCH   1   7
ATOM      7  C   UNL     1      -0.445  13.191  21.023  0.00  0.00    +0.000 C 
BRANCH   7   9
ATOM      8  N   UNL     1      -2.781  12.885  21.791  0.00  0.00    +0.000 N 
ATOM      9  C   UNL     1      -1.503  13.292  22.151  0.00  0.00    +0.000 C 
ATOM     10  O   UNL     1      -1.156  13.673  23.268  0.00  0.00    +0.000 OA
ATOM     11  H   UNL     1      -2.887  12.718  20.796  0.00  0.00    +0.000 HD
BRANCH   8  17
ATOM     12  C   UNL     1      -5.224  13.046  22.085  0.00  0.00    +0.000 A 
ATOM     13  C   UNL     1      -6.360  12.952  22.916  0.00  0.00    +0.000 A 
ATOM     14  C   UNL     1      -6.244  12.592  24.253  0.00  0.00    +0.000 A 
ATOM     15  C   UNL     1      -4.988  12.318  24.776  0.00  0.00    +0.000 A 
ATOM     16  C   UNL     1      -3.849  12.429  23.970  0.00  0.00    +0.000 A 
ATOM     17  C   UNL     1      -3.935  12.798  22.619  0.00  0.00    +0.000 A 
BRANCH  12  19
ATOM     18  C   UNL     1      -6.712  14.201  20.453  0.00  0.00    +0.000 C 
ATOM     19  C   UNL     1      -5.468  13.334  20.622  0.00  0.00    +0.000 C 
ENDBRANCH  12  19
ENDBRANCH   8  17
ENDBRANCH   7   9
ENDBRANCH   1   7
BRANCH   4  20
ATOM     20  C   UNL     1       1.571   8.764  19.858  0.00  0.00    +0.000 C 
BRANCH  20  21
ATOM     21  C   UNL     1       2.141   7.924  18.704  0.00  0.00    +0.000 C 
ATOM     22  O   UNL     1       1.978   8.263  17.533  0.00  0.00    +0.000 OA
ATOM     23  N   UNL     1       2.767   6.756  19.108  0.00  0.00    +0.000 N 
ATOM     24  H   UNL     1       2.579   6.428  20.050  0.00  0.00    +0.000 HD
BRANCH  23  25
ATOM     25  C   UNL     1       3.433   5.889  18.225  0.00  0.00    +0.000 A 
ATOM     26  C   UNL     1       4.769   6.124  17.888  0.00  0.00    +0.000 A 
ATOM     27  C   UNL     1       5.486   5.227  17.086  0.00  0.00    +0.000 A 
ATOM     28  C   UNL     1       6.911   5.509  16.716  0.00  0.00    +0.000 C 
ATOM     29  C   UNL     1       4.842   4.076  16.618  0.00  0.00    +0.000 A 
ATOM     30  C   UNL     1       3.512   3.822  16.953  0.00  0.00    +0.000 A 
ATOM     31  C   UNL     1       2.797   4.727  17.752  0.00  0.00    +0.000 A 
BRANCH  31  32
ATOM     32  O   UNL     1       1.485   4.414  17.998  0.00  0.00    +0.000 OA
ATOM     33  C   UNL     1       1.322   3.358  18.949  0.00  0.00    +0.000 C 
ENDBRANCH  31  32
ENDBRANCH  23  25
ENDBRANCH  20  21
ENDBRANCH   4  20
TORSDOF 8
ENDMDL
MODEL 3
REMARK VINA RESULT:      -7.3      3.951     12.282
REMARK  Name = 
REMARK  11 active torsions:
REMARK  status: ('A' for Active; 'I' for Inactive)
REMARK    1  A    between atoms: C_1  and  C_2
REMARK    2  A    between atoms: C_2  and  C_3
REMARK    3  A    between atoms: C_8  and  N_9
REMARK    4  A    between atoms: C_10  and  C_12
REMARK    5  A    between atoms: C_12  and  N_13
REMARK    6  A    between atoms: N_16  and  C_17
REMARK    7  A    between atoms: C_17  and  C_18
REMARK    8  A    between atoms: N_20  and  C_21
REMARK    9  A    between atoms: C_23  and  C_24
REMARK   10  A    between atoms: C_27  and  O_28
REMARK   11  A    between atoms: O_28  and  C_29
REMARK                            x       y       z     vdW  Elec       q    Type
REMARK                         _______ _______ _______ _____ _____    ______ ____
ROOT
ATOM      1  N   UNL     1       0.203   8.888  20.905  0.00  0.00    +0.000 NA
ATOM      2  C   UNL     1      -0.529   8.707  22.175  0.00  0.00    +0.000 C 
ATOM      3  C   UNL     1      -0.164   9.719  23.280  0.00  0.00    +0.000 C 
ATOM      4  N   UNL     1      -0.439  11.125  22.922  0.00  0.00    +0.000 NA
ATOM      5  C   UNL     1       0.216  11.423  21.630  0.00  0.00    +0.000 C 
ATOM      6  C   UNL     1       0.180  10.323  20.521  0.00  0.00    +0.000 C 
ENDROOT
BRANCH   1   7
ATOM      7  C   UNL     1       1.589   8.366  21.000  0.00  0.00    +0.000 C 
BRANCH   7   9
ATOM      8  N   UNL     1       2.777   6.524  19.844  0.00  0.00    +0.000 N 
ATOM      9  C   UNL     1       2.095   7.722  19.684  0.00  0.00    +0.000 C 
ATOM     10  O   UNL     1       1.838   8.268  18.611  0.00  0.00    +0.000 OA
ATOM     11  H   UNL     1       2.986   6.304  20.812  0.00  0.00    +0.000 HD
BRANCH   8  17
ATOM     12  C   UNL     1       2.630   4.465  18.495  0.00  0.00    +0.000 A 
ATOM     13  C   UNL     1       3.152   3.631  17.484  0.00  0.00    +0.000 A 
ATOM     14  C   UNL     1       4.300   3.982  16.784  0.00  0.00    +0.000 A 
ATOM     15  C   UNL     1       4.939   5.177  17.085  0.00  0.00    +0.000 A 
ATOM     16  C   UNL     1       4.446   6.005  18.101  0.00  0.00    +0.000 A 
ATOM     17  C   UNL     1       3.295   5.671  18.829  0.00  0.00    +0.000 A 
BRANCH  12  19
ATOM     18  C   UNL     1       1.494   2.753  19.906  0.00  0.00    +0.000 C 
ATOM     19  C   UNL     1       1.318   4.047  19.118  0.00  0.00    +0.000 C 
ENDBRANCH  12  19
ENDBRANCH   8  17
ENDBRANCH   7   9
ENDBRANCH   1   7
BRANCH   4  20
ATOM     20  C   UNL     1      -1.889  11.425  22.887  0.00  0.00    +0.000 C 
BRANCH  20  21
ATOM     21  C   UNL     1      -2.183  12.866  23.334  0.00  0.00    +0.000 C 
ATOM     22  O   UNL     1      -1.290  13.709  23.380  0.00  0.00    +0.000 OA
ATOM     23  N   UNL     1      -3.492  13.080  23.733  0.00  0.00    +0.000 N 
ATOM     24  H   UNL     1      -4.055  12.262  23.944  0.00  0.00    +0.000 HD
BRANCH  23  25
ATOM     25  C   UNL     1      -3.996  14.341  24.093  0.00  0.00    +0.000 A 
ATOM     26  C   UNL     1      -3.147  15.299  24.656  0.00  0.00    +0.000 A 
ATOM     27  C   UNL     1      -3.597  16.595  24.938  0.00  0.00    +0.000 A 
ATOM     28  C   UNL     1      -2.677  17.601  25.563  0.00  0.00    +0.000 C 
ATOM     29  C   UNL     1      -4.926  16.927  24.648  0.00  0.00    +0.000 A 
ATOM     30  C   UNL     1      -5.783  15.986  24.079  0.00  0.00    +0.000 A 
ATOM     31  C   UNL     1      -5.328  14.688  23.802  0.00  0.00    +0.000 A 
BRANCH  31  32
ATOM     32  O   UNL     1      -6.251  13.819  23.279  0.00  0.00    +0.000 OA
ATOM     33  C   UNL     1      -7.353  13.569  24.155  0.00  0.00    +0.000 C 
ENDBRANCH  31  32
ENDBRANCH  23  25
ENDBRANCH  20  21
ENDBRANCH   4  20
TORSDOF 8
ENDMDL
MODEL 4
REMARK VINA RESULT:      -7.3      3.366     11.719
REMARK  Name = 
REMARK  11 active torsions:
REMARK  status: ('A' for Active; 'I' for Inactive)
REMARK    1  A    between atoms: C_1  and  C_2
REMARK    2  A    between atoms: C_2  and  C_3
REMARK    3  A    between atoms: C_8  and  N_9
REMARK    4  A    between atoms: C_10  and  C_12
REMARK    5  A    between atoms: C_12  and  N_13
REMARK    6  A    between atoms: N_16  and  C_17
REMARK    7  A    between atoms: C_17  and  C_18
REMARK    8  A    between atoms: N_20  and  C_21
REMARK    9  A    between atoms: C_23  and  C_24
REMARK   10  A    between atoms: C_27  and  O_28
REMARK   11  A    between atoms: O_28  and  C_29
REMARK                            x       y       z     vdW  Elec       q    Type
REMARK                         _______ _______ _______ _____ _____    ______ ____
ROOT
ATOM      1  N   UNL     1       0.374   8.961  20.422  0.00  0.00    +0.000 NA
ATOM      2  C   UNL     1       0.037   8.521  21.792  0.00  0.00    +0.000 C 
ATOM      3  C   UNL     1       0.493   9.484  22.908  0.00  0.00    +0.000 C 
ATOM      4  N   UNL     1      -0.108  10.830  22.821  0.00  0.00    +0.000 NA
ATOM      5  C   UNL     1       0.129  11.370  21.465  0.00  0.00    +0.000 C 
ATOM      6  C   UNL     1       0.002  10.389  20.256  0.00  0.00    +0.000 C 
ENDROOT
BRANCH   1   7
ATOM      7  C   UNL     1       1.806   8.725  20.114  0.00  0.00    +0.000 C 
BRANCH   7   9
ATOM      8  N   UNL     1       2.397   6.384  19.562  0.00  0.00    +0.000 N 
ATOM      9  C   UNL     1       2.033   7.621  19.050  0.00  0.00    +0.000 C 
ATOM     10  O   UNL     1       1.846   7.884  17.863  0.00  0.00    +0.000 OA
ATOM     11  H   UNL     1       2.614   6.403  20.553  0.00  0.00    +0.000 HD
BRANCH   8  17
ATOM     12  C   UNL     1       1.936   3.982  19.238  0.00  0.00    +0.000 A 
ATOM     13  C   UNL     1       2.147   2.787  18.519  0.00  0.00    +0.000 A 
ATOM     14  C   UNL     1       2.984   2.755  17.410  0.00  0.00    +0.000 A 
ATOM     15  C   UNL     1       3.618   3.921  17.003  0.00  0.00    +0.000 A 
ATOM     16  C   UNL     1       3.436   5.110  17.720  0.00  0.00    +0.000 A 
ATOM     17  C   UNL     1       2.604   5.170  18.848  0.00  0.00    +0.000 A 
BRANCH  12  19
ATOM     18  C   UNL     1       1.336   2.909  21.406  0.00  0.00    +0.000 C 
ATOM     19  C   UNL     1       0.923   3.937  20.359  0.00  0.00    +0.000 C 
ENDBRANCH  12  19
ENDBRANCH   8  17
ENDBRANCH   7   9
ENDBRANCH   1   7
BRANCH   4  20
ATOM     20  C   UNL     1      -1.547  10.831  23.171  0.00  0.00    +0.000 C 
BRANCH  20  21
ATOM     21  C   UNL     1      -2.160  12.236  23.060  0.00  0.00    +0.000 C 
ATOM     22  O   UNL     1      -1.446  13.232  22.964  0.00  0.00    +0.000 OA
ATOM     23  N   UNL     1      -3.542  12.261  23.149  0.00  0.00    +0.000 N 
ATOM     24  H   UNL     1      -3.999  11.437  23.528  0.00  0.00    +0.000 HD
BRANCH  23  25
ATOM     25  C   UNL     1      -4.308  13.427  22.984  0.00  0.00    +0.000 A 
ATOM     26  C   UNL     1      -4.280  14.427  23.960  0.00  0.00    +0.000 A 
ATOM     27  C   UNL     1      -4.957  15.640  23.780  0.00  0.00    +0.000 A 
ATOM     28  C   UNL     1      -4.933  16.690  24.849  0.00  0.00    +0.000 C 
ATOM     29  C   UNL     1      -5.675  15.843  22.595  0.00  0.00    +0.000 A 
ATOM     30  C   UNL     1      -5.705  14.859  21.608  0.00  0.00    +0.000 A 
ATOM     31  C   UNL     1      -5.029  13.644  21.796  0.00  0.00    +0.000 A 
BRANCH  31  32
ATOM     32  O   UNL     1      -5.147  12.721  20.789  0.00  0.00    +0.000 OA
ATOM     33  C   UNL     1      -6.418  12.066  20.767  0.00  0.00    +0.000 C 
ENDBRANCH  31  32
ENDBRANCH  23  25
ENDBRANCH  20  21
ENDBRANCH   4  20
TORSDOF 8
ENDMDL
MODEL 5
REMARK VINA RESULT:      -7.3      3.489     11.730
REMARK  Name = 
REMARK  11 active torsions:
REMARK  status: ('A' for Active; 'I' for Inactive)
REMARK    1  A    between atoms: C_1  and  C_2
REMARK    2  A    between atoms: C_2  and  C_3
REMARK    3  A    between atoms: C_8  and  N_9
REMARK    4  A    between atoms: C_10  and  C_12
REMARK    5  A    between atoms: C_12  and  N_13
REMARK    6  A    between atoms: N_16  and  C_17
REMARK    7  A    between atoms: C_17  and  C_18
REMARK    8  A    between atoms: N_20  and  C_21
REMARK    9  A    between atoms: C_23  and  C_24
REMARK   10  A    between atoms: C_27  and  O_28
REMARK   11  A    between atoms: O_28  and  C_29
REMARK                            x       y       z     vdW  Elec       q    Type
REMARK                         _______ _______ _______ _____ _____    ______ ____
ROOT
ATOM      1  N   UNL     1       0.895  10.277  18.495  0.00  0.00    +0.000 NA
ATOM      2  C   UNL     1      -0.566  10.307  18.711  0.00  0.00    +0.000 C 
ATOM      3  C   UNL     1      -1.000  10.748  20.124  0.00  0.00    +0.000 C 
ATOM      4  N   UNL     1      -0.570  12.115  20.484  0.00  0.00    +0.000 NA
ATOM      5  C   UNL     1       0.888  12.227  20.269  0.00  0.00    +0.000 C 
ATOM      6  C   UNL     1       1.496  11.535  19.007  0.00  0.00    +0.000 C 
ENDROOT
BRANCH   1   7
ATOM      7  C   UNL     1       1.510   9.078  19.116  0.00  0.00    +0.000 C 
BRANCH   7   9
ATOM      8  N   UNL     1       2.815   7.029  18.634  0.00  0.00    +0.000 N 
ATOM      9  C   UNL     1       2.347   8.232  18.123  0.00  0.00    +0.000 C 
ATOM     10  O   UNL     1       2.507   8.639  16.974  0.00  0.00    +0.000 OA
ATOM     11  H   UNL     1       2.677   6.932  19.634  0.00  0.00    +0.000 HD
BRANCH   8  17
ATOM     12  C   UNL     1       2.965   4.743  17.719  0.00  0.00    +0.000 A 
ATOM     13  C   UNL     1       3.697   3.749  17.036  0.00  0.00    +0.000 A 
ATOM     14  C   UNL     1       4.977   4.002  16.558  0.00  0.00    +0.000 A 
ATOM     15  C   UNL     1       5.540   5.255  16.753  0.00  0.00    +0.000 A 
ATOM     16  C   UNL     1       4.835   6.245  17.449  0.00  0.00    +0.000 A 
ATOM     17  C   UNL     1       3.545   6.015  17.950  0.00  0.00    +0.000 A 
BRANCH  12  19
ATOM     18  C   UNL     1       1.479   3.931  19.547  0.00  0.00    +0.000 C 
ATOM     19  C   UNL     1       1.541   4.405  18.099  0.00  0.00    +0.000 C 
ENDBRANCH  12  19
ENDBRANCH   8  17
ENDBRANCH   7   9
ENDBRANCH   1   7
BRANCH   4  20
ATOM     20  C   UNL     1      -1.319  13.156  19.742  0.00  0.00    +0.000 C 
BRANCH  20  21
ATOM     21  C   UNL     1      -2.438  13.771  20.596  0.00  0.00    +0.000 C 
ATOM     22  O   UNL     1      -2.240  14.785  21.264  0.00  0.00    +0.000 OA
ATOM     23  N   UNL     1      -3.620  13.049  20.589  0.00  0.00    +0.000 N 
ATOM     24  H   UNL     1      -3.578  12.089  20.261  0.00  0.00    +0.000 HD
BRANCH  23  25
ATOM     25  C   UNL     1      -4.794  13.480  21.230  0.00  0.00    +0.000 A 
ATOM     26  C   UNL     1      -5.714  14.276  20.543  0.00  0.00    +0.000 A 
ATOM     27  C   UNL     1      -6.936  14.642  21.122  0.00  0.00    +0.000 A 
ATOM     28  C   UNL     1      -7.899  15.517  20.377  0.00  0.00    +0.000 C 
ATOM     29  C   UNL     1      -7.231  14.196  22.416  0.00  0.00    +0.000 A 
ATOM     30  C   UNL     1      -6.327  13.393  23.111  0.00  0.00    +0.000 A 
ATOM     31  C   UNL     1      -5.103  13.034  22.528  0.00  0.00    +0.000 A 
BRANCH  31  32
ATOM     32  O   UNL     1      -4.262  12.275  23.300  0.00  0.00    +0.000 OA
ATOM     33  C   UNL     1      -4.469  12.451  24.704  0.00  0.00    +0.000 C 
ENDBRANCH  31  32
ENDBRANCH  23  25
ENDBRANCH  20  21
ENDBRANCH   4  20
TORSDOF 8
ENDMDL
MODEL 6
REMARK VINA RESULT:      -7.2      3.722     12.019
REMARK  Name = 
REMARK  11 active torsions:
REMARK  status: ('A' for Active; 'I' for Inactive)
REMARK    1  A    between atoms: C_1  and  C_2
REMARK    2  A    between atoms: C_2  and  C_3
REMARK    3  A    between atoms: C_8  and  N_9
REMARK    4  A    between atoms: C_10  and  C_12
REMARK    5  A    between atoms: C_12  and  N_13
REMARK    6  A    between atoms: N_16  and  C_17
REMARK    7  A    between atoms: C_17  and  C_18
REMARK    8  A    between atoms: N_20  and  C_21
REMARK    9  A    between atoms: C_23  and  C_24
REMARK   10  A    between atoms: C_27  and  O_28
REMARK   11  A    between atoms: O_28  and  C_29
REMARK                            x       y       z     vdW  Elec       q    Type
REMARK                         _______ _______ _______ _____ _____    ______ ____
ROOT
ATOM      1  N   UNL     1       0.161   9.590  20.117  0.00  0.00    +0.000 NA
ATOM      2  C   UNL     1       0.042   9.045  21.484  0.00  0.00    +0.000 C 
ATOM      3  C   UNL     1       0.471  10.013  22.605  0.00  0.00    +0.000 C 
ATOM      4  N   UNL     1      -0.323  11.257  22.659  0.00  0.00    +0.000 NA
ATOM      5  C   UNL     1      -0.315  11.886  21.322  0.00  0.00    +0.000 C 
ATOM      6  C   UNL     1      -0.430  10.952  20.074  0.00  0.00    +0.000 C 
ENDROOT
BRANCH   1   7
ATOM      7  C   UNL     1       1.570   9.586  19.653  0.00  0.00    +0.000 C 
BRANCH   7   9
ATOM      8  N   UNL     1       2.578   7.348  19.316  0.00  0.00    +0.000 N 
ATOM      9  C   UNL     1       1.905   8.401  18.712  0.00  0.00    +0.000 C 
ATOM     10  O   UNL     1       1.533   8.442  17.539  0.00  0.00    +0.000 OA
ATOM     11  H   UNL     1       2.895   7.558  20.257  0.00  0.00    +0.000 HD
BRANCH   8  17
ATOM     12  C   UNL     1       2.439   4.887  19.243  0.00  0.00    +0.000 A 
ATOM     13  C   UNL     1       2.818   3.662  18.655  0.00  0.00    +0.000 A 
ATOM     14  C   UNL     1       3.676   3.625  17.562  0.00  0.00    +0.000 A 
ATOM     15  C   UNL     1       4.162   4.816  17.040  0.00  0.00    +0.000 A 
ATOM     16  C   UNL     1       3.813   6.038  17.627  0.00  0.00    +0.000 A 
ATOM     17  C   UNL     1       2.956   6.105  18.735  0.00  0.00    +0.000 A 
BRANCH  12  19
ATOM     18  C   UNL     1       1.019   3.379  20.629  0.00  0.00    +0.000 C 
ATOM     19  C   UNL     1       1.415   4.826  20.353  0.00  0.00    +0.000 C 
ENDBRANCH  12  19
ENDBRANCH   8  17
ENDBRANCH   7   9
ENDBRANCH   1   7
BRANCH   4  20
ATOM     20  C   UNL     1      -1.701  11.026  23.152  0.00  0.00    +0.000 C 
BRANCH  20  21
ATOM     21  C   UNL     1      -2.428  12.347  23.451  0.00  0.00    +0.000 C 
ATOM     22  O   UNL     1      -1.799  13.373  23.700  0.00  0.00    +0.000 OA
ATOM     23  N   UNL     1      -3.809  12.240  23.479  0.00  0.00    +0.000 N 
ATOM     24  H   UNL     1      -4.203  11.308  23.564  0.00  0.00    +0.000 HD
BRANCH  23  25
ATOM     25  C   UNL     1      -4.667  13.340  23.646  0.00  0.00    +0.000 A 
ATOM     26  C   UNL     1      -4.170  14.546  24.147  0.00  0.00    +0.000 A 
ATOM     27  C   UNL     1      -4.979  15.686  24.235  0.00  0.00    +0.000 A 
ATOM     28  C   UNL     1      -4.433  16.965  24.797  0.00  0.00    +0.000 C 
ATOM     29  C   UNL     1      -6.311  15.605  23.812  0.00  0.00    +0.000 A 
ATOM     30  C   UNL     1      -6.820  14.411  23.301  0.00  0.00    +0.000 A 
ATOM     31  C   UNL     1      -6.006  13.271  23.219  0.00  0.00    +0.000 A 
BRANCH  31  32
ATOM     32  O   UNL     1      -6.603  12.132  22.741  0.00  0.00    +0.000 OA
ATOM     33  C   UNL     1      -7.200  12.304  21.453  0.00  0.00    +0.000 C 
ENDBRANCH  31  32
ENDBRANCH  23  25
ENDBRANCH  20  21
ENDBRANCH   4  20
TORSDOF 8
ENDMDL
MODEL 7
REMARK VINA RESULT:      -7.2      3.738     12.090
REMARK  Name = 
REMARK  11 active torsions:
REMARK  status: ('A' for Active; 'I' for Inactive)
REMARK    1  A    between atoms: C_1  and  C_2
REMARK    2  A    between atoms: C_2  and  C_3
REMARK    3  A    between atoms: C_8  and  N_9
REMARK    4  A    between atoms: C_10  and  C_12
REMARK    5  A    between atoms: C_12  and  N_13
REMARK    6  A    between atoms: N_16  and  C_17
REMARK    7  A    between atoms: C_17  and  C_18
REMARK    8  A    between atoms: N_20  and  C_21
REMARK    9  A    between atoms: C_23  and  C_24
REMARK   10  A    between atoms: C_27  and  O_28
REMARK   11  A    between atoms: O_28  and  C_29
REMARK                            x       y       z     vdW  Elec       q    Type
REMARK                         _______ _______ _______ _____ _____    ______ ____
ROOT
ATOM      1  N   UNL     1       1.200  10.454  19.707  0.00  0.00    +0.000 NA
ATOM      2  C   UNL     1       0.230  11.249  18.927  0.00  0.00    +0.000 C 
ATOM      3  C   UNL     1      -1.199  11.273  19.507  0.00  0.00    +0.000 C 
ATOM      4  N   UNL     1      -1.288  11.854  20.862  0.00  0.00    +0.000 NA
ATOM      5  C   UNL     1      -0.322  11.160  21.741  0.00  0.00    +0.000 C 
ATOM      6  C   UNL     1       1.076  10.797  21.147  0.00  0.00    +0.000 C 
ENDROOT
BRANCH   1   7
ATOM      7  C   UNL     1       1.023   9.000  19.470  0.00  0.00    +0.000 C 
BRANCH   7   9
ATOM      8  N   UNL     1       2.543   7.192  18.725  0.00  0.00    +0.000 N 
ATOM      9  C   UNL     1       1.995   8.427  18.408  0.00  0.00    +0.000 C 
ATOM     10  O   UNL     1       2.185   9.056  17.368  0.00  0.00    +0.000 OA
ATOM     11  H   UNL     1       2.353   6.897  19.677  0.00  0.00    +0.000 HD
BRANCH   8  17
ATOM     12  C   UNL     1       3.115   5.019  17.707  0.00  0.00    +0.000 A 
ATOM     13  C   UNL     1       3.976   4.235  16.910  0.00  0.00    +0.000 A 
ATOM     14  C   UNL     1       5.100   4.789  16.308  0.00  0.00    +0.000 A 
ATOM     15  C   UNL     1       5.374   6.137  16.494  0.00  0.00    +0.000 A 
ATOM     16  C   UNL     1       4.541   6.923  17.300  0.00  0.00    +0.000 A 
ATOM     17  C   UNL     1       3.406   6.388  17.926  0.00  0.00    +0.000 A 
BRANCH  12  19
ATOM     18  C   UNL     1       1.944   2.841  18.017  0.00  0.00    +0.000 C 
ATOM     19  C   UNL     1       1.862   4.350  18.223  0.00  0.00    +0.000 C 
ENDBRANCH  12  19
ENDBRANCH   8  17
ENDBRANCH   7   9
ENDBRANCH   1   7
BRANCH   4  20
ATOM     20  C   UNL     1      -1.079  13.320  20.863  0.00  0.00    +0.000 C 
BRANCH  20  21
ATOM     21  C   UNL     1      -2.351  14.077  21.276  0.00  0.00    +0.000 C 
ATOM     22  O   UNL     1      -2.863  14.910  20.531  0.00  0.00    +0.000 OA
ATOM     23  N   UNL     1      -2.796  13.783  22.555  0.00  0.00    +0.000 N 
ATOM     24  H   UNL     1      -2.142  13.326  23.182  0.00  0.00    +0.000 HD
BRANCH  23  25
ATOM     25  C   UNL     1      -3.987  14.294  23.097  0.00  0.00    +0.000 A 
ATOM     26  C   UNL     1      -3.982  15.522  23.763  0.00  0.00    +0.000 A 
ATOM     27  C   UNL     1      -5.168  16.102  24.232  0.00  0.00    +0.000 A 
ATOM     28  C   UNL     1      -5.139  17.410  24.964  0.00  0.00    +0.000 C 
ATOM     29  C   UNL     1      -6.377  15.427  24.024  0.00  0.00    +0.000 A 
ATOM     30  C   UNL     1      -6.400  14.205  23.353  0.00  0.00    +0.000 A 
ATOM     31  C   UNL     1      -5.208  13.627  22.890  0.00  0.00    +0.000 A 
BRANCH  31  32
ATOM     32  O   UNL     1      -5.323  12.406  22.277  0.00  0.00    +0.000 OA
ATOM     33  C   UNL     1      -6.091  12.448  21.071  0.00  0.00    +0.000 C 
ENDBRANCH  31  32
ENDBRANCH  23  25
ENDBRANCH  20  21
ENDBRANCH   4  20
TORSDOF 8
ENDMDL
MODEL 8
REMARK VINA RESULT:      -7.2      3.142     11.433
REMARK  Name = 
REMARK  11 active torsions:
REMARK  status: ('A' for Active; 'I' for Inactive)
REMARK    1  A    between atoms: C_1  and  C_2
REMARK    2  A    between atoms: C_2  and  C_3
REMARK    3  A    between atoms: C_8  and  N_9
REMARK    4  A    between atoms: C_10  and  C_12
REMARK    5  A    between atoms: C_12  and  N_13
REMARK    6  A    between atoms: N_16  and  C_17
REMARK    7  A    between atoms: C_17  and  C_18
REMARK    8  A    between atoms: N_20  and  C_21
REMARK    9  A    between atoms: C_23  and  C_24
REMARK   10  A    between atoms: C_27  and  O_28
REMARK   11  A    between atoms: O_28  and  C_29
REMARK                            x       y       z     vdW  Elec       q    Type
REMARK                         _______ _______ _______ _____ _____    ______ ____
ROOT
ATOM      1  N   UNL     1       1.634   8.536  20.926  0.00  0.00    +0.000 NA
ATOM      2  C   UNL     1       1.047   9.457  19.932  0.00  0.00    +0.000 C 
ATOM      3  C   UNL     1      -0.416   9.859  20.210  0.00  0.00    +0.000 C 
ATOM      4  N   UNL     1      -0.610  10.566  21.492  0.00  0.00    +0.000 NA
ATOM      5  C   UNL     1      -0.021   9.754  22.577  0.00  0.00    +0.000 C 
ATOM      6  C   UNL     1       1.333   9.028  22.294  0.00  0.00    +0.000 C 
ENDROOT
BRANCH   1   7
ATOM      7  C   UNL     1       1.157   7.145  20.724  0.00  0.00    +0.000 C 
BRANCH   7   9
ATOM      8  N   UNL     1       2.495   6.505  18.740  0.00  0.00    +0.000 N 
ATOM      9  C   UNL     1       2.215   6.221  20.069  0.00  0.00    +0.000 C 
ATOM     10  O   UNL     1       2.756   5.350  20.750  0.00  0.00    +0.000 OA
ATOM     11  H   UNL     1       1.861   7.181  18.328  0.00  0.00    +0.000 HD
BRANCH   8  17
ATOM     12  C   UNL     1       3.260   4.563  17.425  0.00  0.00    +0.000 A 
ATOM     13  C   UNL     1       4.224   3.960  16.589  0.00  0.00    +0.000 A 
ATOM     14  C   UNL     1       5.364   4.650  16.195  0.00  0.00    +0.000 A 
ATOM     15  C   UNL     1       5.553   5.954  16.630  0.00  0.00    +0.000 A 
ATOM     16  C   UNL     1       4.617   6.558  17.478  0.00  0.00    +0.000 A 
ATOM     17  C   UNL     1       3.461   5.883  17.898  0.00  0.00    +0.000 A 
BRANCH  12  19
ATOM     18  C   UNL     1       2.335   2.289  17.857  0.00  0.00    +0.000 C 
ATOM     19  C   UNL     1       2.004   3.770  17.704  0.00  0.00    +0.000 C 
ENDBRANCH  12  19
ENDBRANCH   8  17
ENDBRANCH   7   9
ENDBRANCH   1   7
BRANCH   4  20
ATOM     20  C   UNL     1      -0.057  11.940  21.469  0.00  0.00    +0.000 C 
BRANCH  20  21
ATOM     21  C   UNL     1      -0.908  12.912  22.301  0.00  0.00    +0.000 C 
ATOM     22  O   UNL     1      -0.525  13.308  23.400  0.00  0.00    +0.000 OA
ATOM     23  N   UNL     1      -2.134  13.221  21.733  0.00  0.00    +0.000 N 
ATOM     24  H   UNL     1      -2.471  12.614  20.993  0.00  0.00    +0.000 HD
BRANCH  23  25
ATOM     25  C   UNL     1      -3.027  14.156  22.281  0.00  0.00    +0.000 A 
ATOM     26  C   UNL     1      -2.893  15.514  21.977  0.00  0.00    +0.000 A 
ATOM     27  C   UNL     1      -3.823  16.457  22.432  0.00  0.00    +0.000 A 
ATOM     28  C   UNL     1      -3.649  17.912  22.114  0.00  0.00    +0.000 C 
ATOM     29  C   UNL     1      -4.904  16.021  23.207  0.00  0.00    +0.000 A 
ATOM     30  C   UNL     1      -5.057  14.669  23.512  0.00  0.00    +0.000 A 
ATOM     31  C   UNL     1      -4.120  13.729  23.058  0.00  0.00    +0.000 A 
BRANCH  31  32
ATOM     32  O   UNL     1      -4.330  12.428  23.439  0.00  0.00    +0.000 OA
ATOM     33  C   UNL     1      -4.633  12.288  24.830  0.00  0.00    +0.000 C 
ENDBRANCH  31  32
ENDBRANCH  23  25
ENDBRANCH  20  21
ENDBRANCH   4  20
TORSDOF 8
ENDMDL
MODEL 9
REMARK VINA RESULT:      -7.2      3.134     10.873
REMARK  Name = 
REMARK  11 active torsions:
REMARK  status: ('A' for Active; 'I' for Inactive)
REMARK    1  A    between atoms: C_1  and  C_2
REMARK    2  A    between atoms: C_2  and  C_3
REMARK    3  A    between atoms: C_8  and  N_9
REMARK    4  A    between atoms: C_10  and  C_12
REMARK    5  A    between atoms: C_12  and  N_13
REMARK    6  A    between atoms: N_16  and  C_17
REMARK    7  A    between atoms: C_17  and  C_18
REMARK    8  A    between atoms: N_20  and  C_21
REMARK    9  A    between atoms: C_23  and  C_24
REMARK   10  A    between atoms: C_27  and  O_28
REMARK   11  A    between atoms: O_28  and  C_29
REMARK                            x       y       z     vdW  Elec       q    Type
REMARK                         _______ _______ _______ _____ _____    ______ ____
ROOT
ATOM      1  N   UNL     1       0.350   8.726  20.741  0.00  0.00    +0.000 NA
ATOM      2  C   UNL     1      -0.530   8.667  21.926  0.00  0.00    +0.000 C 
ATOM      3  C   UNL     1      -0.107   9.588  23.090  0.00  0.00    +0.000 C 
ATOM      4  N   UNL     1      -0.091  11.023  22.743  0.00  0.00    +0.000 NA
ATOM      5  C   UNL     1       0.736  11.211  21.532  0.00  0.00    +0.000 C 
ATOM      6  C   UNL     1       0.621  10.145  20.396  0.00  0.00    +0.000 C 
ENDROOT
BRANCH   1   7
ATOM      7  C   UNL     1       1.605   7.964  20.960  0.00  0.00    +0.000 C 
BRANCH   7   9
ATOM      8  N   UNL     1       2.904   6.207  19.793  0.00  0.00    +0.000 N 
ATOM      9  C   UNL     1       2.221   7.407  19.651  0.00  0.00    +0.000 C 
ATOM     10  O   UNL     1       2.042   8.015  18.597  0.00  0.00    +0.000 OA
ATOM     11  H   UNL     1       3.039   5.929  20.759  0.00  0.00    +0.000 HD
BRANCH   8  17
ATOM     12  C   UNL     1       2.795   4.370  18.151  0.00  0.00    +0.000 A 
ATOM     13  C   UNL     1       3.408   3.602  17.138  0.00  0.00    +0.000 A 
ATOM     14  C   UNL     1       4.703   3.875  16.714  0.00  0.00    +0.000 A 
ATOM     15  C   UNL     1       5.401   4.924  17.297  0.00  0.00    +0.000 A 
ATOM     16  C   UNL     1       4.814   5.680  18.320  0.00  0.00    +0.000 A 
ATOM     17  C   UNL     1       3.512   5.422  18.772  0.00  0.00    +0.000 A 
BRANCH  12  19
ATOM     18  C   UNL     1       1.208   2.642  18.994  0.00  0.00    +0.000 C 
ATOM     19  C   UNL     1       1.347   4.064  18.460  0.00  0.00    +0.000 C 
ENDBRANCH  12  19
ENDBRANCH   8  17
ENDBRANCH   7   9
ENDBRANCH   1   7
BRANCH   4  20
ATOM     20  C   UNL     1      -1.454  11.578  22.572  0.00  0.00    +0.000 C 
BRANCH  20  21
ATOM     21  C   UNL     1      -1.424  13.095  22.326  0.00  0.00    +0.000 C 
ATOM     22  O   UNL     1      -1.101  13.875  23.219  0.00  0.00    +0.000 OA
ATOM     23  N   UNL     1      -1.854  13.473  21.064  0.00  0.00    +0.000 N 
ATOM     24  H   UNL     1      -2.378  12.790  20.526  0.00  0.00    +0.000 HD
BRANCH  23  25
ATOM     25  C   UNL     1      -1.823  14.799  20.601  0.00  0.00    +0.000 A 
ATOM     26  C   UNL     1      -0.777  15.230  19.780  0.00  0.00    +0.000 A 
ATOM     27  C   UNL     1      -0.767  16.517  19.227  0.00  0.00    +0.000 A 
ATOM     28  C   UNL     1       0.376  16.967  18.368  0.00  0.00    +0.000 C 
ATOM     29  C   UNL     1      -1.832  17.381  19.509  0.00  0.00    +0.000 A 
ATOM     30  C   UNL     1      -2.888  16.964  20.318  0.00  0.00    +0.000 A 
ATOM     31  C   UNL     1      -2.889  15.675  20.874  0.00  0.00    +0.000 A 
BRANCH  31  32
ATOM     32  O   UNL     1      -3.949  15.366  21.688  0.00  0.00    +0.000 OA
ATOM     33  C   UNL     1      -5.170  15.157  20.973  0.00  0.00    +0.000 C 
ENDBRANCH  31  32
ENDBRANCH  23  25
ENDBRANCH  20  21
ENDBRANCH   4  20
TORSDOF 8
ENDMDL
