MODEL 1
REMARK VINA RESULT:      -9.2      0.000      0.000
REMARK  Name = 
REMARK  9 active torsions:
REMARK  status: ('A' for Active; 'I' for Inactive)
REMARK    1  A    between atoms: C_1  and  O_2
REMARK    2  A    between atoms: O_2  and  C_3
REMARK    3  A    between atoms: C_6  and  N_7
REMARK    4  A    between atoms: C_8  and  S_9
REMARK    5  A    between atoms: S_9  and  C_10
REMARK    6  A    between atoms: C_10  and  C_11
REMARK    7  A    between atoms: C_15  and  O_16
REMARK    8  A    between atoms: C_29  and  O_30
REMARK    9  A    between atoms: O_30  and  C_31
REMARK                            x       y       z     vdW  Elec       q    Type
REMARK                         _______ _______ _______ _____ _____    ______ ____
ROOT
ATOM      1  N   UNL     1       4.127   4.047  17.584  0.00  0.00    +0.000 N 
ATOM      2  C   UNL     1       4.650   4.228  18.850  0.00  0.00    +0.000 A 
ATOM      3  N   UNL     1       4.721   3.233  19.683  0.00  0.00    +0.000 NA
ATOM      4  C   UNL     1       3.431   2.729  19.903  0.00  0.00    +0.000 A 
ATOM      5  C   UNL     1       3.101   2.428  21.221  0.00  0.00    +0.000 A 
ATOM      6  C   UNL     1       1.786   2.607  21.637  0.00  0.00    +0.000 A 
ATOM      7  C   UNL     1       0.816   3.036  20.719  0.00  0.00    +0.000 A 
ATOM      8  C   UNL     1       1.121   3.174  19.357  0.00  0.00    +0.000 A 
ATOM      9  C   UNL     1       2.436   2.970  18.938  0.00  0.00    +0.000 A 
ATOM     10  C   UNL     1       2.947   3.316  17.556  0.00  0.00    +0.000 A 
ATOM     11  O   UNL     1       2.298   3.006  16.580  0.00  0.00    +0.000 OA
ENDROOT
BRANCH   1  15
ATOM     12  C   UNL     1       7.065   5.007  14.603  0.00  0.00    +0.000 A 
ATOM     13  C   UNL     1       6.103   4.006  14.334  0.00  0.00    +0.000 A 
ATOM     14  C   UNL     1       5.063   3.691  15.256  0.00  0.00    +0.000 A 
ATOM     15  C   UNL     1       4.981   4.367  16.468  0.00  0.00    +0.000 A 
ATOM     16  C   UNL     1       5.922   5.393  16.661  0.00  0.00    +0.000 A 
ATOM     17  C   UNL     1       6.965   5.700  15.796  0.00  0.00    +0.000 A 
BRANCH  12  19
ATOM     18  C   UNL     1       7.831   5.367  12.393  0.00  0.00    +0.000 C 
ATOM     19  O   UNL     1       8.118   5.297  13.783  0.00  0.00    +0.000 OA
ENDBRANCH  12  19
BRANCH  17  20
ATOM     20  O   UNL     1       7.703   6.706  16.340  0.00  0.00    +0.000 OA
ATOM     21  C   UNL     1       7.349   7.357  17.536  0.00  0.00    +0.000 C 
ENDBRANCH  17  20
ENDBRANCH   1  15
BRANCH   2  22
ATOM     22  S   UNL     1       4.389   5.871  19.490  0.00  0.00    +0.000 S 
BRANCH  22  23
ATOM     23  C   UNL     1       2.986   6.382  18.484  0.00  0.00    +0.000 C 
BRANCH  23  24
ATOM     24  C   UNL     1       2.282   7.614  18.987  0.00  0.00    +0.000 A 
ATOM     25  C   UNL     1       1.809   7.818  20.231  0.00  0.00    +0.000 A 
ATOM     26  C   UNL     1       0.994   9.013  20.504  0.00  0.00    +0.000 A 
ATOM     27  O   UNL     1       0.502   9.237  21.605  0.00  0.00    +0.000 OA
ATOM     28  C   UNL     1       0.731   9.923  19.363  0.00  0.00    +0.000 A 
ATOM     29  C   UNL     1       1.333   9.652  18.204  0.00  0.00    +0.000 A 
ATOM     30  O   UNL     1       2.133   8.562  17.977  0.00  0.00    +0.000 OA
BRANCH  28  31
ATOM     31  O   UNL     1      -0.137  10.977  19.527  0.00  0.00    +0.000 OA
ATOM     32  H   UNL     1      -0.028  11.248  20.463  0.00  0.00    +0.000 HD
ENDBRANCH  28  31
ENDBRANCH  23  24
ENDBRANCH  22  23
ENDBRANCH   2  22
TORSDOF 7
ENDMDL
MODEL 2
REMARK VINA RESULT:      -9.2      0.654      1.146
REMARK  Name = 
REMARK  9 active torsions:
REMARK  status: ('A' for Active; 'I' for Inactive)
REMARK    1  A    between atoms: C_1  and  O_2
REMARK    2  A    between atoms: O_2  and  C_3
REMARK    3  A    between atoms: C_6  and  N_7
REMARK    4  A    between atoms: C_8  and  S_9
REMARK    5  A    between atoms: S_9  and  C_10
REMARK    6  A    between atoms: C_10  and  C_11
REMARK    7  A    between atoms: C_15  and  O_16
REMARK    8  A    between atoms: C_29  and  O_30
REMARK    9  A    between atoms: O_30  and  C_31
REMARK                            x       y       z     vdW  Elec       q    Type
REMARK                         _______ _______ _______ _____ _____    ______ ____
ROOT
ATOM      1  N   UNL     1       4.124   4.057  17.586  0.00  0.00    +0.000 N 
ATOM      2  C   UNL     1       4.645   4.241  18.852  0.00  0.00    +0.000 A 
ATOM      3  N   UNL     1       4.723   3.245  19.685  0.00  0.00    +0.000 NA
ATOM      4  C   UNL     1       3.435   2.733  19.903  0.00  0.00    +0.000 A 
ATOM      5  C   UNL     1       3.107   2.428  21.221  0.00  0.00    +0.000 A 
ATOM      6  C   UNL     1       1.790   2.598  21.636  0.00  0.00    +0.000 A 
ATOM      7  C   UNL     1       0.818   3.022  20.719  0.00  0.00    +0.000 A 
ATOM      8  C   UNL     1       1.123   3.163  19.357  0.00  0.00    +0.000 A 
ATOM      9  C   UNL     1       2.439   2.968  18.938  0.00  0.00    +0.000 A 
ATOM     10  C   UNL     1       2.948   3.318  17.556  0.00  0.00    +0.000 A 
ATOM     11  O   UNL     1       2.302   3.005  16.580  0.00  0.00    +0.000 OA
ENDROOT
BRANCH   1  15
ATOM     12  C   UNL     1       7.058   5.026  14.604  0.00  0.00    +0.000 A 
ATOM     13  C   UNL     1       6.080   4.045  14.323  0.00  0.00    +0.000 A 
ATOM     14  C   UNL     1       5.040   3.729  15.246  0.00  0.00    +0.000 A 
ATOM     15  C   UNL     1       4.976   4.384  16.470  0.00  0.00    +0.000 A 
ATOM     16  C   UNL     1       5.934   5.393  16.676  0.00  0.00    +0.000 A 
ATOM     17  C   UNL     1       6.976   5.699  15.810  0.00  0.00    +0.000 A 
BRANCH  12  19
ATOM     18  C   UNL     1       7.834   5.330  12.389  0.00  0.00    +0.000 C 
ATOM     19  O   UNL     1       8.111   5.314  13.783  0.00  0.00    +0.000 OA
ENDBRANCH  12  19
BRANCH  17  20
ATOM     20  O   UNL     1       7.733   6.683  16.367  0.00  0.00    +0.000 OA
ATOM     21  C   UNL     1       7.350   7.383  17.526  0.00  0.00    +0.000 C 
ENDBRANCH  17  20
ENDBRANCH   1  15
BRANCH   2  22
ATOM     22  S   UNL     1       4.372   5.881  19.493  0.00  0.00    +0.000 S 
BRANCH  22  23
ATOM     23  C   UNL     1       3.074   6.444  18.380  0.00  0.00    +0.000 C 
BRANCH  23  24
ATOM     24  C   UNL     1       2.229   7.561  18.932  0.00  0.00    +0.000 A 
ATOM     25  C   UNL     1       1.862   8.684  18.289  0.00  0.00    +0.000 A 
ATOM     26  C   UNL     1       1.177   9.751  19.037  0.00  0.00    +0.000 A 
ATOM     27  O   UNL     1       0.850  10.814  18.519  0.00  0.00    +0.000 OA
ATOM     28  C   UNL     1       0.946   9.516  20.483  0.00  0.00    +0.000 A 
ATOM     29  C   UNL     1       1.278   8.323  20.977  0.00  0.00    +0.000 A 
ATOM     30  O   UNL     1       1.869   7.318  20.256  0.00  0.00    +0.000 OA
BRANCH  28  31
ATOM     31  O   UNL     1       0.437  10.532  21.258  0.00  0.00    +0.000 OA
ATOM     32  H   UNL     1       0.174  11.227  20.618  0.00  0.00    +0.000 HD
ENDBRANCH  28  31
ENDBRANCH  23  24
ENDBRANCH  22  23
ENDBRANCH   2  22
TORSDOF 7
ENDMDL
MODEL 3
REMARK VINA RESULT:      -9.0      1.179      1.587
REMARK  Name = 
REMARK  9 active torsions:
REMARK  status: ('A' for Active; 'I' for Inactive)
REMARK    1  A    between atoms: C_1  and  O_2
REMARK    2  A    between atoms: O_2  and  C_3
REMARK    3  A    between atoms: C_6  and  N_7
REMARK    4  A    between atoms: C_8  and  S_9
REMARK    5  A    between atoms: S_9  and  C_10
REMARK    6  A    between atoms: C_10  and  C_11
REMARK    7  A    between atoms: C_15  and  O_16
REMARK    8  A    between atoms: C_29  and  O_30
REMARK    9  A    between atoms: O_30  and  C_31
REMARK                            x       y       z     vdW  Elec       q    Type
REMARK                         _______ _______ _______ _____ _____    ______ ____
ROOT
ATOM      1  N   UNL     1       4.032   4.163  17.580  0.00  0.00    +0.000 N 
ATOM      2  C   UNL     1       3.627   5.180  18.422  0.00  0.00    +0.000 A 
ATOM      3  N   UNL     1       3.857   5.109  19.701  0.00  0.00    +0.000 NA
ATOM      4  C   UNL     1       3.235   3.959  20.211  0.00  0.00    +0.000 A 
ATOM      5  C   UNL     1       2.556   4.107  21.417  0.00  0.00    +0.000 A 
ATOM      6  C   UNL     1       1.415   3.344  21.637  0.00  0.00    +0.000 A 
ATOM      7  C   UNL     1       0.999   2.415  20.672  0.00  0.00    +0.000 A 
ATOM      8  C   UNL     1       1.782   2.152  19.538  0.00  0.00    +0.000 A 
ATOM      9  C   UNL     1       2.940   2.901  19.332  0.00  0.00    +0.000 A 
ATOM     10  C   UNL     1       3.738   2.888  18.046  0.00  0.00    +0.000 A 
ATOM     11  O   UNL     1       3.997   1.833  17.509  0.00  0.00    +0.000 OA
ENDROOT
BRANCH   1  15
ATOM     12  C   UNL     1       7.091   5.186  14.745  0.00  0.00    +0.000 A 
ATOM     13  C   UNL     1       6.108   4.232  14.393  0.00  0.00    +0.000 A 
ATOM     14  C   UNL     1       5.030   3.901  15.265  0.00  0.00    +0.000 A 
ATOM     15  C   UNL     1       4.930   4.515  16.509  0.00  0.00    +0.000 A 
ATOM     16  C   UNL     1       5.895   5.500  16.785  0.00  0.00    +0.000 A 
ATOM     17  C   UNL     1       6.974   5.818  15.970  0.00  0.00    +0.000 A 
BRANCH  12  19
ATOM     18  C   UNL     1       7.992   5.405  12.567  0.00  0.00    +0.000 C 
ATOM     19  O   UNL     1       8.178   5.485  13.974  0.00  0.00    +0.000 OA
ENDBRANCH  12  19
BRANCH  17  20
ATOM     20  O   UNL     1       7.724   6.770  16.589  0.00  0.00    +0.000 OA
ATOM     21  C   UNL     1       7.627   7.048  17.965  0.00  0.00    +0.000 C 
ENDBRANCH  17  20
ENDBRANCH   1  15
BRANCH   2  22
ATOM     22  S   UNL     1       2.163   6.024  17.855  0.00  0.00    +0.000 S 
BRANCH  22  23
ATOM     23  C   UNL     1       2.694   7.734  18.036  0.00  0.00    +0.000 C 
BRANCH  23  24
ATOM     24  C   UNL     1       1.891   8.529  19.031  0.00  0.00    +0.000 A 
ATOM     25  C   UNL     1       1.284   9.710  18.813  0.00  0.00    +0.000 A 
ATOM     26  C   UNL     1       0.684  10.431  19.948  0.00  0.00    +0.000 A 
ATOM     27  O   UNL     1       0.150  11.528  19.823  0.00  0.00    +0.000 OA
ATOM     28  C   UNL     1       0.804   9.800  21.284  0.00  0.00    +0.000 A 
ATOM     29  C   UNL     1       1.351   8.585  21.348  0.00  0.00    +0.000 A 
ATOM     30  O   UNL     1       1.860   7.902  20.274  0.00  0.00    +0.000 OA
BRANCH  28  31
ATOM     31  O   UNL     1       0.387  10.492  22.397  0.00  0.00    +0.000 OA
ATOM     32  H   UNL     1       0.237  11.408  22.080  0.00  0.00    +0.000 HD
ENDBRANCH  28  31
ENDBRANCH  23  24
ENDBRANCH  22  23
ENDBRANCH   2  22
TORSDOF 7
ENDMDL
MODEL 4
REMARK VINA RESULT:      -8.8      1.097      1.116
REMARK  Name = 
REMARK  9 active torsions:
REMARK  status: ('A' for Active; 'I' for Inactive)
REMARK    1  A    between atoms: C_1  and  O_2
REMARK    2  A    between atoms: O_2  and  C_3
REMARK    3  A    between atoms: C_6  and  N_7
REMARK    4  A    between atoms: C_8  and  S_9
REMARK    5  A    between atoms: S_9  and  C_10
REMARK    6  A    between atoms: C_10  and  C_11
REMARK    7  A    between atoms: C_15  and  O_16
REMARK    8  A    between atoms: C_29  and  O_30
REMARK    9  A    between atoms: O_30  and  C_31
REMARK                            x       y       z     vdW  Elec       q    Type
REMARK                         _______ _______ _______ _____ _____    ______ ____
ROOT
ATOM      1  N   UNL     1       4.032   4.166  17.585  0.00  0.00    +0.000 N 
ATOM      2  C   UNL     1       3.642   5.163  18.458  0.00  0.00    +0.000 A 
ATOM      3  N   UNL     1       3.879   5.054  19.732  0.00  0.00    +0.000 NA
ATOM      4  C   UNL     1       3.252   3.896  20.215  0.00  0.00    +0.000 A 
ATOM      5  C   UNL     1       2.583   4.016  21.430  0.00  0.00    +0.000 A 
ATOM      6  C   UNL     1       1.436   3.256  21.637  0.00  0.00    +0.000 A 
ATOM      7  C   UNL     1       1.007   2.357  20.649  0.00  0.00    +0.000 A 
ATOM      8  C   UNL     1       1.780   2.119  19.503  0.00  0.00    +0.000 A 
ATOM      9  C   UNL     1       2.943   2.865  19.310  0.00  0.00    +0.000 A 
ATOM     10  C   UNL     1       3.732   2.881  18.018  0.00  0.00    +0.000 A 
ATOM     11  O   UNL     1       3.978   1.839  17.450  0.00  0.00    +0.000 OA
ENDROOT
BRANCH   1  15
ATOM     12  C   UNL     1       7.083   5.214  14.750  0.00  0.00    +0.000 A 
ATOM     13  C   UNL     1       6.045   4.334  14.362  0.00  0.00    +0.000 A 
ATOM     14  C   UNL     1       4.969   4.003  15.236  0.00  0.00    +0.000 A 
ATOM     15  C   UNL     1       4.926   4.540  16.518  0.00  0.00    +0.000 A 
ATOM     16  C   UNL     1       5.946   5.455  16.833  0.00  0.00    +0.000 A 
ATOM     17  C   UNL     1       7.023   5.770  16.015  0.00  0.00    +0.000 A 
BRANCH  12  19
ATOM     18  C   UNL     1       7.991   5.375  12.570  0.00  0.00    +0.000 C 
ATOM     19  O   UNL     1       8.168   5.506  13.975  0.00  0.00    +0.000 OA
ENDBRANCH  12  19
BRANCH  17  20
ATOM     20  O   UNL     1       7.833   6.641  16.675  0.00  0.00    +0.000 OA
ATOM     21  C   UNL     1       7.343   7.709  17.450  0.00  0.00    +0.000 C 
ENDBRANCH  17  20
ENDBRANCH   1  15
BRANCH   2  22
ATOM     22  S   UNL     1       2.180   6.033  17.925  0.00  0.00    +0.000 S 
BRANCH  22  23
ATOM     23  C   UNL     1       2.757   7.732  18.064  0.00  0.00    +0.000 C 
BRANCH  23  24
ATOM     24  C   UNL     1       1.843   8.631  18.854  0.00  0.00    +0.000 A 
ATOM     25  C   UNL     1       1.458   8.462  20.132  0.00  0.00    +0.000 A 
ATOM     26  C   UNL     1       0.423   9.345  20.695  0.00  0.00    +0.000 A 
ATOM     27  O   UNL     1       0.002   9.220  21.840  0.00  0.00    +0.000 OA
ATOM     28  C   UNL     1      -0.147  10.373  19.791  0.00  0.00    +0.000 A 
ATOM     29  C   UNL     1       0.387  10.493  18.575  0.00  0.00    +0.000 A 
ATOM     30  O   UNL     1       1.387   9.697  18.081  0.00  0.00    +0.000 OA
BRANCH  28  31
ATOM     31  O   UNL     1      -1.212  11.131  20.219  0.00  0.00    +0.000 OA
ATOM     32  H   UNL     1      -0.939  11.473  21.097  0.00  0.00    +0.000 HD
ENDBRANCH  28  31
ENDBRANCH  23  24
ENDBRANCH  22  23
ENDBRANCH   2  22
TORSDOF 7
ENDMDL
MODEL 5
REMARK VINA RESULT:      -8.6      1.203      2.252
REMARK  Name = 
REMARK  9 active torsions:
REMARK  status: ('A' for Active; 'I' for Inactive)
REMARK    1  A    between atoms: C_1  and  O_2
REMARK    2  A    between atoms: O_2  and  C_3
REMARK    3  A    between atoms: C_6  and  N_7
REMARK    4  A    between atoms: C_8  and  S_9
REMARK    5  A    between atoms: S_9  and  C_10
REMARK    6  A    between atoms: C_10  and  C_11
REMARK    7  A    between atoms: C_15  and  O_16
REMARK    8  A    between atoms: C_29  and  O_30
REMARK    9  A    between atoms: O_30  and  C_31
REMARK                            x       y       z     vdW  Elec       q    Type
REMARK                         _______ _______ _______ _____ _____    ______ ____
ROOT
ATOM      1  N   UNL     1       4.423   3.916  17.421  0.00  0.00    +0.000 N 
ATOM      2  C   UNL     1       4.890   4.109  18.706  0.00  0.00    +0.000 A 
ATOM      3  N   UNL     1       4.788   3.165  19.594  0.00  0.00    +0.000 NA
ATOM      4  C   UNL     1       3.434   2.837  19.756  0.00  0.00    +0.000 A 
ATOM      5  C   UNL     1       2.994   2.658  21.065  0.00  0.00    +0.000 A 
ATOM      6  C   UNL     1       1.690   3.021  21.384  0.00  0.00    +0.000 A 
ATOM      7  C   UNL     1       0.836   3.510  20.384  0.00  0.00    +0.000 A 
ATOM      8  C   UNL     1       1.234   3.526  19.039  0.00  0.00    +0.000 A 
ATOM      9  C   UNL     1       2.534   3.138  18.718  0.00  0.00    +0.000 A 
ATOM     10  C   UNL     1       3.163   3.334  17.355  0.00  0.00    +0.000 A 
ATOM     11  O   UNL     1       2.538   3.047  16.357  0.00  0.00    +0.000 OA
ENDROOT
BRANCH   1  15
ATOM     12  C   UNL     1       6.872   4.594  13.959  0.00  0.00    +0.000 A 
ATOM     13  C   UNL     1       7.404   4.839  15.246  0.00  0.00    +0.000 A 
ATOM     14  C   UNL     1       6.664   4.569  16.433  0.00  0.00    +0.000 A 
ATOM     15  C   UNL     1       5.373   4.061  16.346  0.00  0.00    +0.000 A 
ATOM     16  C   UNL     1       4.913   3.777  15.048  0.00  0.00    +0.000 A 
ATOM     17  C   UNL     1       5.598   4.061  13.874  0.00  0.00    +0.000 A 
BRANCH  12  19
ATOM     18  C   UNL     1       8.522   5.900  12.876  0.00  0.00    +0.000 C 
ATOM     19  O   UNL     1       7.515   4.901  12.794  0.00  0.00    +0.000 OA
ENDBRANCH  12  19
BRANCH  17  20
ATOM     20  O   UNL     1       4.820   3.703  12.816  0.00  0.00    +0.000 OA
ATOM     21  C   UNL     1       5.236   2.788  11.831  0.00  0.00    +0.000 C 
ENDBRANCH  17  20
ENDBRANCH   1  15
BRANCH   2  22
ATOM     22  S   UNL     1       4.801   5.807  19.239  0.00  0.00    +0.000 S 
BRANCH  22  23
ATOM     23  C   UNL     1       3.624   6.453  18.041  0.00  0.00    +0.000 C 
BRANCH  23  24
ATOM     24  C   UNL     1       2.612   7.405  18.621  0.00  0.00    +0.000 A 
ATOM     25  C   UNL     1       2.086   8.485  18.015  0.00  0.00    +0.000 A 
ATOM     26  C   UNL     1       1.237   9.404  18.792  0.00  0.00    +0.000 A 
ATOM     27  O   UNL     1       0.759  10.426  18.310  0.00  0.00    +0.000 OA
ATOM     28  C   UNL     1       1.028   9.078  20.223  0.00  0.00    +0.000 A 
ATOM     29  C   UNL     1       1.532   7.929  20.676  0.00  0.00    +0.000 A 
ATOM     30  O   UNL     1       2.277   7.056  19.928  0.00  0.00    +0.000 OA
BRANCH  28  31
ATOM     31  O   UNL     1       0.362   9.972  21.029  0.00  0.00    +0.000 OA
ATOM     32  H   UNL     1      -0.579   9.696  20.985  0.00  0.00    +0.000 HD
ENDBRANCH  28  31
ENDBRANCH  23  24
ENDBRANCH  22  23
ENDBRANCH   2  22
TORSDOF 7
ENDMDL
MODEL 6
REMARK VINA RESULT:      -8.5      1.073      1.941
REMARK  Name = 
REMARK  9 active torsions:
REMARK  status: ('A' for Active; 'I' for Inactive)
REMARK    1  A    between atoms: C_1  and  O_2
REMARK    2  A    between atoms: O_2  and  C_3
REMARK    3  A    between atoms: C_6  and  N_7
REMARK    4  A    between atoms: C_8  and  S_9
REMARK    5  A    between atoms: S_9  and  C_10
REMARK    6  A    between atoms: C_10  and  C_11
REMARK    7  A    between atoms: C_15  and  O_16
REMARK    8  A    between atoms: C_29  and  O_30
REMARK    9  A    between atoms: O_30  and  C_31
REMARK                            x       y       z     vdW  Elec       q    Type
REMARK                         _______ _______ _______ _____ _____    ______ ____
ROOT
ATOM      1  N   UNL     1       4.422   3.877  17.450  0.00  0.00    +0.000 N 
ATOM      2  C   UNL     1       4.892   4.065  18.734  0.00  0.00    +0.000 A 
ATOM      3  N   UNL     1       4.797   3.116  19.618  0.00  0.00    +0.000 NA
ATOM      4  C   UNL     1       3.445   2.781  19.783  0.00  0.00    +0.000 A 
ATOM      5  C   UNL     1       3.008   2.594  21.091  0.00  0.00    +0.000 A 
ATOM      6  C   UNL     1       1.704   2.950  21.416  0.00  0.00    +0.000 A 
ATOM      7  C   UNL     1       0.845   3.440  20.421  0.00  0.00    +0.000 A 
ATOM      8  C   UNL     1       1.239   3.465  19.075  0.00  0.00    +0.000 A 
ATOM      9  C   UNL     1       2.540   3.084  18.748  0.00  0.00    +0.000 A 
ATOM     10  C   UNL     1       3.165   3.290  17.384  0.00  0.00    +0.000 A 
ATOM     11  O   UNL     1       2.539   3.005  16.387  0.00  0.00    +0.000 OA
ENDROOT
BRANCH   1  15
ATOM     12  C   UNL     1       6.860   4.587  13.987  0.00  0.00    +0.000 A 
ATOM     13  C   UNL     1       7.398   4.816  15.274  0.00  0.00    +0.000 A 
ATOM     14  C   UNL     1       6.661   4.535  16.462  0.00  0.00    +0.000 A 
ATOM     15  C   UNL     1       5.368   4.031  16.374  0.00  0.00    +0.000 A 
ATOM     16  C   UNL     1       4.903   3.764  15.074  0.00  0.00    +0.000 A 
ATOM     17  C   UNL     1       5.585   4.059  13.900  0.00  0.00    +0.000 A 
BRANCH  12  19
ATOM     18  C   UNL     1       8.548   5.860  12.922  0.00  0.00    +0.000 C 
ATOM     19  O   UNL     1       7.500   4.905  12.823  0.00  0.00    +0.000 OA
ENDBRANCH  12  19
BRANCH  17  20
ATOM     20  O   UNL     1       4.801   3.716  12.842  0.00  0.00    +0.000 OA
ATOM     21  C   UNL     1       5.221   2.832  11.831  0.00  0.00    +0.000 C 
ENDBRANCH  17  20
ENDBRANCH   1  15
BRANCH   2  22
ATOM     22  S   UNL     1       4.797   5.760  19.277  0.00  0.00    +0.000 S 
BRANCH  22  23
ATOM     23  C   UNL     1       3.574   6.394  18.119  0.00  0.00    +0.000 C 
BRANCH  23  24
ATOM     24  C   UNL     1       2.715   7.500  18.672  0.00  0.00    +0.000 A 
ATOM     25  C   UNL     1       2.133   7.535  19.884  0.00  0.00    +0.000 A 
ATOM     26  C   UNL     1       1.185   8.618  20.197  0.00  0.00    +0.000 A 
ATOM     27  O   UNL     1       0.592   8.685  21.269  0.00  0.00    +0.000 OA
ATOM     28  C   UNL     1       0.920   9.609  19.126  0.00  0.00    +0.000 A 
ATOM     29  C   UNL     1       1.632   9.511  18.002  0.00  0.00    +0.000 A 
ATOM     30  O   UNL     1       2.550   8.526  17.744  0.00  0.00    +0.000 OA
BRANCH  28  31
ATOM     31  O   UNL     1      -0.058  10.557  19.313  0.00  0.00    +0.000 OA
ATOM     32  H   UNL     1      -0.844  10.051  19.610  0.00  0.00    +0.000 HD
ENDBRANCH  28  31
ENDBRANCH  23  24
ENDBRANCH  22  23
ENDBRANCH   2  22
TORSDOF 7
ENDMDL
MODEL 7
REMARK VINA RESULT:      -7.9      1.449      2.396
REMARK  Name = 
REMARK  9 active torsions:
REMARK  status: ('A' for Active; 'I' for Inactive)
REMARK    1  A    between atoms: C_1  and  O_2
REMARK    2  A    between atoms: O_2  and  C_3
REMARK    3  A    between atoms: C_6  and  N_7
REMARK    4  A    between atoms: C_8  and  S_9
REMARK    5  A    between atoms: S_9  and  C_10
REMARK    6  A    between atoms: C_10  and  C_11
REMARK    7  A    between atoms: C_15  and  O_16
REMARK    8  A    between atoms: C_29  and  O_30
REMARK    9  A    between atoms: O_30  and  C_31
REMARK                            x       y       z     vdW  Elec       q    Type
REMARK                         _______ _______ _______ _____ _____    ______ ____
ROOT
ATOM      1  N   UNL     1       4.389   3.953  17.474  0.00  0.00    +0.000 N 
ATOM      2  C   UNL     1       3.996   5.033  18.241  0.00  0.00    +0.000 A 
ATOM      3  N   UNL     1       4.130   5.007  19.534  0.00  0.00    +0.000 NA
ATOM      4  C   UNL     1       3.399   3.926  20.047  0.00  0.00    +0.000 A 
ATOM      5  C   UNL     1       2.649   4.174  21.193  0.00  0.00    +0.000 A 
ATOM      6  C   UNL     1       1.446   3.497  21.362  0.00  0.00    +0.000 A 
ATOM      7  C   UNL     1       1.037   2.552  20.410  0.00  0.00    +0.000 A 
ATOM      8  C   UNL     1       1.878   2.186  19.348  0.00  0.00    +0.000 A 
ATOM      9  C   UNL     1       3.095   2.848  19.195  0.00  0.00    +0.000 A 
ATOM     10  C   UNL     1       3.979   2.723  17.972  0.00  0.00    +0.000 A 
ATOM     11  O   UNL     1       4.202   1.629  17.501  0.00  0.00    +0.000 OA
ENDROOT
BRANCH   1  15
ATOM     12  C   UNL     1       6.960   4.893  14.166  0.00  0.00    +0.000 A 
ATOM     13  C   UNL     1       7.401   5.153  15.484  0.00  0.00    +0.000 A 
ATOM     14  C   UNL     1       6.621   4.801  16.624  0.00  0.00    +0.000 A 
ATOM     15  C   UNL     1       5.381   4.195  16.457  0.00  0.00    +0.000 A 
ATOM     16  C   UNL     1       5.017   3.902  15.131  0.00  0.00    +0.000 A 
ATOM     17  C   UNL     1       5.740   4.263  14.001  0.00  0.00    +0.000 A 
BRANCH  12  19
ATOM     18  C   UNL     1       8.938   5.815  13.248  0.00  0.00    +0.000 C 
ATOM     19  O   UNL     1       7.639   5.273  13.044  0.00  0.00    +0.000 OA
ENDBRANCH  12  19
BRANCH  17  20
ATOM     20  O   UNL     1       5.052   3.867  12.896  0.00  0.00    +0.000 OA
ATOM     21  C   UNL     1       5.477   2.817  12.062  0.00  0.00    +0.000 C 
ENDBRANCH  17  20
ENDBRANCH   1  15
BRANCH   2  22
ATOM     22  S   UNL     1       2.635   5.941  17.534  0.00  0.00    +0.000 S 
BRANCH  22  23
ATOM     23  C   UNL     1       3.110   7.619  17.979  0.00  0.00    +0.000 C 
BRANCH  23  24
ATOM     24  C   UNL     1       2.045   8.388  18.714  0.00  0.00    +0.000 A 
ATOM     25  C   UNL     1       1.329   9.423  18.239  0.00  0.00    +0.000 A 
ATOM     26  C   UNL     1       0.448  10.169  19.153  0.00  0.00    +0.000 A 
ATOM     27  O   UNL     1      -0.201  11.145  18.792  0.00  0.00    +0.000 OA
ATOM     28  C   UNL     1       0.420   9.728  20.568  0.00  0.00    +0.000 A 
ATOM     29  C   UNL     1       1.108   8.631  20.888  0.00  0.00    +0.000 A 
ATOM     30  O   UNL     1       1.885   7.915  20.015  0.00  0.00    +0.000 OA
BRANCH  28  31
ATOM     31  O   UNL     1      -0.275  10.472  21.493  0.00  0.00    +0.000 OA
ATOM     32  H   UNL     1      -0.575  11.265  21.001  0.00  0.00    +0.000 HD
ENDBRANCH  28  31
ENDBRANCH  23  24
ENDBRANCH  22  23
ENDBRANCH   2  22
TORSDOF 7
ENDMDL
MODEL 8
REMARK VINA RESULT:      -7.9      1.319      2.097
REMARK  Name = 
REMARK  9 active torsions:
REMARK  status: ('A' for Active; 'I' for Inactive)
REMARK    1  A    between atoms: C_1  and  O_2
REMARK    2  A    between atoms: O_2  and  C_3
REMARK    3  A    between atoms: C_6  and  N_7
REMARK    4  A    between atoms: C_8  and  S_9
REMARK    5  A    between atoms: S_9  and  C_10
REMARK    6  A    between atoms: C_10  and  C_11
REMARK    7  A    between atoms: C_15  and  O_16
REMARK    8  A    between atoms: C_29  and  O_30
REMARK    9  A    between atoms: O_30  and  C_31
REMARK                            x       y       z     vdW  Elec       q    Type
REMARK                         _______ _______ _______ _____ _____    ______ ____
ROOT
ATOM      1  N   UNL     1       4.338   3.903  17.509  0.00  0.00    +0.000 N 
ATOM      2  C   UNL     1       4.143   4.903  18.442  0.00  0.00    +0.000 A 
ATOM      3  N   UNL     1       4.294   4.661  19.711  0.00  0.00    +0.000 NA
ATOM      4  C   UNL     1       3.403   3.646  20.090  0.00  0.00    +0.000 A 
ATOM      5  C   UNL     1       2.725   3.835  21.291  0.00  0.00    +0.000 A 
ATOM      6  C   UNL     1       1.430   3.343  21.409  0.00  0.00    +0.000 A 
ATOM      7  C   UNL     1       0.853   2.631  20.347  0.00  0.00    +0.000 A 
ATOM      8  C   UNL     1       1.603   2.300  19.209  0.00  0.00    +0.000 A 
ATOM      9  C   UNL     1       2.910   2.773  19.103  0.00  0.00    +0.000 A 
ATOM     10  C   UNL     1       3.739   2.694  17.838  0.00  0.00    +0.000 A 
ATOM     11  O   UNL     1       3.770   1.662  17.203  0.00  0.00    +0.000 OA
ENDROOT
BRANCH   1  15
ATOM     12  C   UNL     1       6.942   4.823  14.221  0.00  0.00    +0.000 A 
ATOM     13  C   UNL     1       7.387   5.048  15.544  0.00  0.00    +0.000 A 
ATOM     14  C   UNL     1       6.595   4.700  16.677  0.00  0.00    +0.000 A 
ATOM     15  C   UNL     1       5.339   4.133  16.498  0.00  0.00    +0.000 A 
ATOM     16  C   UNL     1       4.969   3.873  15.166  0.00  0.00    +0.000 A 
ATOM     17  C   UNL     1       5.704   4.232  14.044  0.00  0.00    +0.000 A 
BRANCH  12  19
ATOM     18  C   UNL     1       8.862   5.881  13.329  0.00  0.00    +0.000 C 
ATOM     19  O   UNL     1       7.633   5.203  13.106  0.00  0.00    +0.000 OA
ENDBRANCH  12  19
BRANCH  17  20
ATOM     20  O   UNL     1       5.006   3.875  12.932  0.00  0.00    +0.000 OA
ATOM     21  C   UNL     1       5.465   2.912  12.013  0.00  0.00    +0.000 C 
ENDBRANCH  17  20
ENDBRANCH   1  15
BRANCH   2  22
ATOM     22  S   UNL     1       2.939   6.114  17.933  0.00  0.00    +0.000 S 
BRANCH  22  23
ATOM     23  C   UNL     1       2.520   6.833  19.529  0.00  0.00    +0.000 C 
BRANCH  23  24
ATOM     24  C   UNL     1       1.901   8.203  19.447  0.00  0.00    +0.000 A 
ATOM     25  C   UNL     1       1.110   8.784  20.367  0.00  0.00    +0.000 A 
ATOM     26  C   UNL     1       0.451  10.061  20.047  0.00  0.00    +0.000 A 
ATOM     27  O   UNL     1      -0.311  10.623  20.828  0.00  0.00    +0.000 OA
ATOM     28  C   UNL     1       0.696  10.624  18.698  0.00  0.00    +0.000 A 
ATOM     29  C   UNL     1       1.572   9.993  17.914  0.00  0.00    +0.000 A 
ATOM     30  O   UNL     1       2.219   8.832  18.245  0.00  0.00    +0.000 OA
BRANCH  28  31
ATOM     31  O   UNL     1      -0.002  11.738  18.295  0.00  0.00    +0.000 OA
ATOM     32  H   UNL     1      -0.732  11.824  18.944  0.00  0.00    +0.000 HD
ENDBRANCH  28  31
ENDBRANCH  23  24
ENDBRANCH  22  23
ENDBRANCH   2  22
TORSDOF 7
ENDMDL
MODEL 9
REMARK VINA RESULT:      -7.8      4.638      7.814
REMARK  Name = 
REMARK  9 active torsions:
REMARK  status: ('A' for Active; 'I' for Inactive)
REMARK    1  A    between atoms: C_1  and  O_2
REMARK    2  A    between atoms: O_2  and  C_3
REMARK    3  A    between atoms: C_6  and  N_7
REMARK    4  A    between atoms: C_8  and  S_9
REMARK    5  A    between atoms: S_9  and  C_10
REMARK    6  A    between atoms: C_10  and  C_11
REMARK    7  A    between atoms: C_15  and  O_16
REMARK    8  A    between atoms: C_29  and  O_30
REMARK    9  A    between atoms: O_30  and  C_31
REMARK                            x       y       z     vdW  Elec       q    Type
REMARK                         _______ _______ _______ _____ _____    ______ ____
ROOT
ATOM      1  N   UNL     1       0.717   9.685  20.282  0.00  0.00    +0.000 N 
ATOM      2  C   UNL     1       0.105  10.715  19.596  0.00  0.00    +0.000 A 
ATOM      3  N   UNL     1       0.283  11.950  19.963  0.00  0.00    +0.000 NA
ATOM      4  C   UNL     1      -0.154  12.099  21.288  0.00  0.00    +0.000 A 
ATOM      5  C   UNL     1      -0.904  13.238  21.567  0.00  0.00    +0.000 A 
ATOM      6  C   UNL     1      -1.907  13.157  22.527  0.00  0.00    +0.000 A 
ATOM      7  C   UNL     1      -2.111  11.956  23.224  0.00  0.00    +0.000 A 
ATOM      8  C   UNL     1      -1.242  10.868  23.057  0.00  0.00    +0.000 A 
ATOM      9  C   UNL     1      -0.222  10.960  22.111  0.00  0.00    +0.000 A 
ATOM     10  C   UNL     1       0.626   9.788  21.664  0.00  0.00    +0.000 A 
ATOM     11  O   UNL     1       1.087   9.030  22.489  0.00  0.00    +0.000 OA
ENDROOT
BRANCH   1  15
ATOM     12  C   UNL     1       2.989   6.723  18.159  0.00  0.00    +0.000 A 
ATOM     13  C   UNL     1       2.745   7.977  17.553  0.00  0.00    +0.000 A 
ATOM     14  C   UNL     1       2.055   9.023  18.234  0.00  0.00    +0.000 A 
ATOM     15  C   UNL     1       1.591   8.821  19.528  0.00  0.00    +0.000 A 
ATOM     16  C   UNL     1       1.913   7.580  20.108  0.00  0.00    +0.000 A 
ATOM     17  C   UNL     1       2.553   6.533  19.458  0.00  0.00    +0.000 A 
BRANCH  12  19
ATOM     18  C   UNL     1       4.786   5.955  16.823  0.00  0.00    +0.000 C 
ATOM     19  O   UNL     1       3.583   5.669  17.525  0.00  0.00    +0.000 OA
ENDBRANCH  12  19
BRANCH  17  20
ATOM     20  O   UNL     1       2.638   5.476  20.311  0.00  0.00    +0.000 OA
ATOM     21  C   UNL     1       1.677   4.450  20.362  0.00  0.00    +0.000 C 
ENDBRANCH  17  20
ENDBRANCH   1  15
BRANCH   2  22
ATOM     22  S   UNL     1      -1.454  10.249  18.869  0.00  0.00    +0.000 S 
BRANCH  22  23
ATOM     23  C   UNL     1      -2.199  11.873  18.652  0.00  0.00    +0.000 C 
BRANCH  23  24
ATOM     24  C   UNL     1      -3.672  11.923  18.961  0.00  0.00    +0.000 A 
ATOM     25  C   UNL     1      -4.260  12.606  19.961  0.00  0.00    +0.000 A 
ATOM     26  C   UNL     1      -5.695  12.406  20.223  0.00  0.00    +0.000 A 
ATOM     27  O   UNL     1      -6.281  12.968  21.142  0.00  0.00    +0.000 OA
ATOM     28  C   UNL     1      -6.406  11.433  19.359  0.00  0.00    +0.000 A 
ATOM     29  C   UNL     1      -5.726  10.891  18.347  0.00  0.00    +0.000 A 
ATOM     30  O   UNL     1      -4.403  11.126  18.083  0.00  0.00    +0.000 OA
BRANCH  28  31
ATOM     31  O   UNL     1      -7.710  11.102  19.647  0.00  0.00    +0.000 OA
ATOM     32  H   UNL     1      -7.928  11.621  20.450  0.00  0.00    +0.000 HD
ENDBRANCH  28  31
ENDBRANCH  23  24
ENDBRANCH  22  23
ENDBRANCH   2  22
TORSDOF 7
ENDMDL
