MODEL 1
REMARK VINA RESULT:      -7.2      0.000      0.000
REMARK  Name = 
REMARK  10 active torsions:
REMARK  status: ('A' for Active; 'I' for Inactive)
REMARK    1  A    between atoms: C_1  and  C_2
REMARK    2  A    between atoms: C_2  and  C_3
REMARK    3  A    between atoms: C_2  and  N_4
REMARK    4  A    between atoms: N_4  and  C_5
REMARK    5  A    between atoms: N_4  and  C_6
REMARK    6  A    between atoms: C_6  and  C_7
REMARK    7  A    between atoms: N_9  and  C_10
REMARK    8  A    between atoms: C_10  and  C_11
REMARK    9  A    between atoms: C_11  and  O_12
REMARK   10  A    between atoms: C_11  and  C_13
REMARK                            x       y       z     vdW  Elec       q    Type
REMARK                         _______ _______ _______ _____ _____    ______ ____
ROOT
ATOM      1  C   UNL     1       6.604   5.547  18.246  0.00  0.00    +0.000 C 
ENDROOT
BRANCH   1   2
ATOM      2  C   UNL     1       5.316   5.053  18.837  0.00  0.00    +0.000 A 
ATOM      3  C   UNL     1       4.990   3.766  19.213  0.00  0.00    +0.000 A 
ATOM      4  C   UNL     1       3.639   3.636  19.683  0.00  0.00    +0.000 A 
ATOM      5  C   UNL     1       2.919   2.500  20.128  0.00  0.00    +0.000 A 
ATOM      6  C   UNL     1       1.583   2.620  20.521  0.00  0.00    +0.000 A 
ATOM      7  C   UNL     1       0.949   3.853  20.487  0.00  0.00    +0.000 A 
ATOM      8  C   UNL     1       1.633   4.989  20.060  0.00  0.00    +0.000 A 
ATOM      9  C   UNL     1       2.978   4.866  19.664  0.00  0.00    +0.000 A 
ATOM     10  S   UNL     1       4.011   6.124  19.118  0.00  0.00    +0.000 S 
ENDBRANCH   1   2
BRANCH   1  11
ATOM     11  O   UNL     1       6.305   6.682  17.421  0.00  0.00    +0.000 OA
ATOM     12  H   UNL     1       5.459   6.486  16.978  0.00  0.00    +0.000 HD
ENDBRANCH   1  11
BRANCH   1  13
ATOM     13  C   UNL     1       7.331   4.474  17.420  0.00  0.00    +0.000 C 
BRANCH  13  16
ATOM     14  C   UNL     1       6.787   4.710  15.020  0.00  0.00    +0.000 C 
ATOM     15  O   UNL     1       7.669   5.547  14.843  0.00  0.00    +0.000 OA
ATOM     16  N   UNL     1       6.572   4.114  16.240  0.00  0.00    +0.000 N 
ATOM     17  H   UNL     1       6.012   3.272  16.294  0.00  0.00    +0.000 HD
BRANCH  14  18
ATOM     18  C   UNL     1       5.824   4.278  13.904  0.00  0.00    +0.000 C 
BRANCH  18  19
ATOM     19  N   UNL     1       6.468   3.475  12.829  0.00  0.00    +0.000 NA
ATOM     20  C   UNL     1       7.187   4.377  11.918  0.00  0.00    +0.000 C 
BRANCH  19  22
ATOM     21  C   UNL     1       4.431   3.234  11.372  0.00  0.00    +0.000 C 
ATOM     22  C   UNL     1       5.573   2.529  12.123  0.00  0.00    +0.000 C 
ATOM     23  C   UNL     1       6.328   1.675  11.088  0.00  0.00    +0.000 C 
ENDBRANCH  19  22
ENDBRANCH  18  19
ENDBRANCH  14  18
ENDBRANCH  13  16
ENDBRANCH   1  13
TORSDOF 7
ENDMDL
MODEL 2
REMARK VINA RESULT:      -7.0      3.870      6.086
REMARK  Name = 
REMARK  10 active torsions:
REMARK  status: ('A' for Active; 'I' for Inactive)
REMARK    1  A    between atoms: C_1  and  C_2
REMARK    2  A    between atoms: C_2  and  C_3
REMARK    3  A    between atoms: C_2  and  N_4
REMARK    4  A    between atoms: N_4  and  C_5
REMARK    5  A    between atoms: N_4  and  C_6
REMARK    6  A    between atoms: C_6  and  C_7
REMARK    7  A    between atoms: N_9  and  C_10
REMARK    8  A    between atoms: C_10  and  C_11
REMARK    9  A    between atoms: C_11  and  O_12
REMARK   10  A    between atoms: C_11  and  C_13
REMARK                            x       y       z     vdW  Elec       q    Type
REMARK                         _______ _______ _______ _____ _____    ______ ____
ROOT
ATOM      1  C   UNL     1       5.681   5.740  16.016  0.00  0.00    +0.000 C 
ENDROOT
BRANCH   1   2
ATOM      2  C   UNL     1       4.623   5.134  16.892  0.00  0.00    +0.000 A 
ATOM      3  C   UNL     1       4.031   3.892  16.778  0.00  0.00    +0.000 A 
ATOM      4  C   UNL     1       3.003   3.662  17.752  0.00  0.00    +0.000 A 
ATOM      5  C   UNL     1       2.152   2.547  17.954  0.00  0.00    +0.000 A 
ATOM      6  C   UNL     1       1.194   2.564  18.972  0.00  0.00    +0.000 A 
ATOM      7  C   UNL     1       1.070   3.670  19.801  0.00  0.00    +0.000 A 
ATOM      8  C   UNL     1       1.896   4.779  19.630  0.00  0.00    +0.000 A 
ATOM      9  C   UNL     1       2.859   4.759  18.604  0.00  0.00    +0.000 A 
ATOM     10  S   UNL     1       3.984   5.999  18.223  0.00  0.00    +0.000 S 
ENDBRANCH   1   2
BRANCH   1  11
ATOM     11  O   UNL     1       5.929   4.834  14.932  0.00  0.00    +0.000 OA
ATOM     12  H   UNL     1       6.584   5.267  14.354  0.00  0.00    +0.000 HD
ENDBRANCH   1  11
BRANCH   1  13
ATOM     13  C   UNL     1       6.989   6.024  16.772  0.00  0.00    +0.000 C 
BRANCH  13  16
ATOM     14  C   UNL     1       7.940   7.986  17.936  0.00  0.00    +0.000 C 
ATOM     15  O   UNL     1       8.456   7.290  18.809  0.00  0.00    +0.000 OA
ATOM     16  N   UNL     1       7.231   7.447  16.889  0.00  0.00    +0.000 N 
ATOM     17  H   UNL     1       7.031   8.016  16.075  0.00  0.00    +0.000 HD
BRANCH  14  18
ATOM     18  C   UNL     1       8.014   9.520  17.954  0.00  0.00    +0.000 C 
BRANCH  18  19
ATOM     19  N   UNL     1       9.290  10.056  18.500  0.00  0.00    +0.000 NA
ATOM     20  C   UNL     1       9.114  10.362  19.927  0.00  0.00    +0.000 C 
BRANCH  19  22
ATOM     21  C   UNL     1       9.010  12.442  17.752  0.00  0.00    +0.000 C 
ATOM     22  C   UNL     1       9.885  11.177  17.735  0.00  0.00    +0.000 C 
ATOM     23  C   UNL     1      11.268  11.584  18.276  0.00  0.00    +0.000 C 
ENDBRANCH  19  22
ENDBRANCH  18  19
ENDBRANCH  14  18
ENDBRANCH  13  16
ENDBRANCH   1  13
TORSDOF 7
ENDMDL
MODEL 3
REMARK VINA RESULT:      -7.0      0.962      1.226
REMARK  Name = 
REMARK  10 active torsions:
REMARK  status: ('A' for Active; 'I' for Inactive)
REMARK    1  A    between atoms: C_1  and  C_2
REMARK    2  A    between atoms: C_2  and  C_3
REMARK    3  A    between atoms: C_2  and  N_4
REMARK    4  A    between atoms: N_4  and  C_5
REMARK    5  A    between atoms: N_4  and  C_6
REMARK    6  A    between atoms: C_6  and  C_7
REMARK    7  A    between atoms: N_9  and  C_10
REMARK    8  A    between atoms: C_10  and  C_11
REMARK    9  A    between atoms: C_11  and  O_12
REMARK   10  A    between atoms: C_11  and  C_13
REMARK                            x       y       z     vdW  Elec       q    Type
REMARK                         _______ _______ _______ _____ _____    ______ ____
ROOT
ATOM      1  C   UNL     1       6.672   5.332  18.342  0.00  0.00    +0.000 C 
ENDROOT
BRANCH   1   2
ATOM      2  C   UNL     1       5.297   4.752  18.495  0.00  0.00    +0.000 A 
ATOM      3  C   UNL     1       4.909   3.667  19.255  0.00  0.00    +0.000 A 
ATOM      4  C   UNL     1       3.517   3.345  19.117  0.00  0.00    +0.000 A 
ATOM      5  C   UNL     1       2.745   2.306  19.694  0.00  0.00    +0.000 A 
ATOM      6  C   UNL     1       1.388   2.179  19.385  0.00  0.00    +0.000 A 
ATOM      7  C   UNL     1       0.779   3.071  18.514  0.00  0.00    +0.000 A 
ATOM      8  C   UNL     1       1.511   4.105  17.935  0.00  0.00    +0.000 A 
ATOM      9  C   UNL     1       2.878   4.231  18.248  0.00  0.00    +0.000 A 
ATOM     10  S   UNL     1       3.962   5.428  17.665  0.00  0.00    +0.000 S 
ENDBRANCH   1   2
BRANCH   1  11
ATOM     11  O   UNL     1       6.535   6.676  17.861  0.00  0.00    +0.000 OA
ATOM     12  H   UNL     1       7.289   7.177  18.221  0.00  0.00    +0.000 HD
ENDBRANCH   1  11
BRANCH   1  13
ATOM     13  C   UNL     1       7.559   4.519  17.384  0.00  0.00    +0.000 C 
BRANCH  13  16
ATOM     14  C   UNL     1       6.922   4.660  15.000  0.00  0.00    +0.000 C 
ATOM     15  O   UNL     1       7.702   5.586  14.787  0.00  0.00    +0.000 OA
ATOM     16  N   UNL     1       6.809   4.062  16.233  0.00  0.00    +0.000 N 
ATOM     17  H   UNL     1       6.346   3.165  16.313  0.00  0.00    +0.000 HD
BRANCH  14  18
ATOM     18  C   UNL     1       5.979   4.111  13.920  0.00  0.00    +0.000 C 
BRANCH  18  19
ATOM     19  N   UNL     1       6.673   3.686  12.673  0.00  0.00    +0.000 NA
ATOM     20  C   UNL     1       7.473   4.807  12.161  0.00  0.00    +0.000 C 
BRANCH  19  22
ATOM     21  C   UNL     1       6.005   1.554  11.517  0.00  0.00    +0.000 C 
ATOM     22  C   UNL     1       5.804   3.073  11.642  0.00  0.00    +0.000 C 
ATOM     23  C   UNL     1       4.308   3.303  11.929  0.00  0.00    +0.000 C 
ENDBRANCH  19  22
ENDBRANCH  18  19
ENDBRANCH  14  18
ENDBRANCH  13  16
ENDBRANCH   1  13
TORSDOF 7
ENDMDL
MODEL 4
REMARK VINA RESULT:      -6.9      4.001      6.290
REMARK  Name = 
REMARK  10 active torsions:
REMARK  status: ('A' for Active; 'I' for Inactive)
REMARK    1  A    between atoms: C_1  and  C_2
REMARK    2  A    between atoms: C_2  and  C_3
REMARK    3  A    between atoms: C_2  and  N_4
REMARK    4  A    between atoms: N_4  and  C_5
REMARK    5  A    between atoms: N_4  and  C_6
REMARK    6  A    between atoms: C_6  and  C_7
REMARK    7  A    between atoms: N_9  and  C_10
REMARK    8  A    between atoms: C_10  and  C_11
REMARK    9  A    between atoms: C_11  and  O_12
REMARK   10  A    between atoms: C_11  and  C_13
REMARK                            x       y       z     vdW  Elec       q    Type
REMARK                         _______ _______ _______ _____ _____    ______ ____
ROOT
ATOM      1  C   UNL     1       5.631   6.004  16.180  0.00  0.00    +0.000 C 
ENDROOT
BRANCH   1   2
ATOM      2  C   UNL     1       4.546   5.536  17.105  0.00  0.00    +0.000 A 
ATOM      3  C   UNL     1       3.948   6.231  18.137  0.00  0.00    +0.000 A 
ATOM      4  C   UNL     1       2.986   5.452  18.864  0.00  0.00    +0.000 A 
ATOM      5  C   UNL     1       2.189   5.780  19.989  0.00  0.00    +0.000 A 
ATOM      6  C   UNL     1       1.328   4.830  20.546  0.00  0.00    +0.000 A 
ATOM      7  C   UNL     1       1.240   3.557  20.001  0.00  0.00    +0.000 A 
ATOM      8  C   UNL     1       2.008   3.207  18.892  0.00  0.00    +0.000 A 
ATOM      9  C   UNL     1       2.873   4.166  18.333  0.00  0.00    +0.000 A 
ATOM     10  S   UNL     1       3.895   3.959  16.969  0.00  0.00    +0.000 S 
ENDBRANCH   1   2
BRANCH   1  11
ATOM     11  O   UNL     1       5.805   5.008  15.163  0.00  0.00    +0.000 OA
ATOM     12  H   UNL     1       4.911   4.714  14.908  0.00  0.00    +0.000 HD
ENDBRANCH   1  11
BRANCH   1  13
ATOM     13  C   UNL     1       6.964   6.255  16.903  0.00  0.00    +0.000 C 
BRANCH  13  16
ATOM     14  C   UNL     1       8.034   8.195  17.999  0.00  0.00    +0.000 C 
ATOM     15  O   UNL     1       8.574   7.490  18.849  0.00  0.00    +0.000 OA
ATOM     16  N   UNL     1       7.255   7.671  16.995  0.00  0.00    +0.000 N 
ATOM     17  H   UNL     1       7.029   8.240  16.188  0.00  0.00    +0.000 HD
BRANCH  14  18
ATOM     18  C   UNL     1       8.155   9.726  18.000  0.00  0.00    +0.000 C 
BRANCH  18  19
ATOM     19  N   UNL     1       9.429  10.230  18.581  0.00  0.00    +0.000 NA
ATOM     20  C   UNL     1       9.202  10.617  19.981  0.00  0.00    +0.000 C 
BRANCH  19  22
ATOM     21  C   UNL     1       9.333  12.607  17.761  0.00  0.00    +0.000 C 
ATOM     22  C   UNL     1      10.112  11.281  17.792  0.00  0.00    +0.000 C 
ATOM     23  C   UNL     1      11.516  11.602  18.339  0.00  0.00    +0.000 C 
ENDBRANCH  19  22
ENDBRANCH  18  19
ENDBRANCH  14  18
ENDBRANCH  13  16
ENDBRANCH   1  13
TORSDOF 7
ENDMDL
MODEL 5
REMARK VINA RESULT:      -6.8      1.334      1.733
REMARK  Name = 
REMARK  10 active torsions:
REMARK  status: ('A' for Active; 'I' for Inactive)
REMARK    1  A    between atoms: C_1  and  C_2
REMARK    2  A    between atoms: C_2  and  C_3
REMARK    3  A    between atoms: C_2  and  N_4
REMARK    4  A    between atoms: N_4  and  C_5
REMARK    5  A    between atoms: N_4  and  C_6
REMARK    6  A    between atoms: C_6  and  C_7
REMARK    7  A    between atoms: N_9  and  C_10
REMARK    8  A    between atoms: C_10  and  C_11
REMARK    9  A    between atoms: C_11  and  O_12
REMARK   10  A    between atoms: C_11  and  C_13
REMARK                            x       y       z     vdW  Elec       q    Type
REMARK                         _______ _______ _______ _____ _____    ______ ____
ROOT
ATOM      1  C   UNL     1       6.826   4.799  18.828  0.00  0.00    +0.000 C 
ENDROOT
BRANCH   1   2
ATOM      2  C   UNL     1       5.383   4.517  19.131  0.00  0.00    +0.000 A 
ATOM      3  C   UNL     1       4.400   5.412  19.500  0.00  0.00    +0.000 A 
ATOM      4  C   UNL     1       3.138   4.787  19.778  0.00  0.00    +0.000 A 
ATOM      5  C   UNL     1       1.905   5.339  20.206  0.00  0.00    +0.000 A 
ATOM      6  C   UNL     1       0.802   4.512  20.437  0.00  0.00    +0.000 A 
ATOM      7  C   UNL     1       0.900   3.142  20.244  0.00  0.00    +0.000 A 
ATOM      8  C   UNL     1       2.097   2.570  19.818  0.00  0.00    +0.000 A 
ATOM      9  C   UNL     1       3.206   3.405  19.586  0.00  0.00    +0.000 A 
ATOM     10  S   UNL     1       4.764   2.924  19.049  0.00  0.00    +0.000 S 
ENDBRANCH   1   2
BRANCH   1  11
ATOM     11  O   UNL     1       7.378   5.518  19.940  0.00  0.00    +0.000 OA
ATOM     12  H   UNL     1       7.430   6.452  19.667  0.00  0.00    +0.000 HD
ENDBRANCH   1  11
BRANCH   1  13
ATOM     13  C   UNL     1       7.018   5.607  17.534  0.00  0.00    +0.000 C 
BRANCH  13  16
ATOM     14  C   UNL     1       5.768   5.425  15.410  0.00  0.00    +0.000 C 
ATOM     15  O   UNL     1       5.431   6.607  15.440  0.00  0.00    +0.000 OA
ATOM     16  N   UNL     1       6.566   4.862  16.377  0.00  0.00    +0.000 N 
ATOM     17  H   UNL     1       7.014   3.972  16.200  0.00  0.00    +0.000 HD
BRANCH  14  18
ATOM     18  C   UNL     1       5.301   4.463  14.307  0.00  0.00    +0.000 C 
BRANCH  18  19
ATOM     19  N   UNL     1       6.412   3.865  13.518  0.00  0.00    +0.000 NA
ATOM     20  C   UNL     1       7.278   4.940  13.013  0.00  0.00    +0.000 C 
BRANCH  19  22
ATOM     21  C   UNL     1       4.733   3.360  11.714  0.00  0.00    +0.000 C 
ATOM     22  C   UNL     1       5.998   2.910  12.464  0.00  0.00    +0.000 C 
ATOM     23  C   UNL     1       7.094   2.699  11.404  0.00  0.00    +0.000 C 
ENDBRANCH  19  22
ENDBRANCH  18  19
ENDBRANCH  14  18
ENDBRANCH  13  16
ENDBRANCH   1  13
TORSDOF 7
ENDMDL
MODEL 6
REMARK VINA RESULT:      -6.8      2.715      4.547
REMARK  Name = 
REMARK  10 active torsions:
REMARK  status: ('A' for Active; 'I' for Inactive)
REMARK    1  A    between atoms: C_1  and  C_2
REMARK    2  A    between atoms: C_2  and  C_3
REMARK    3  A    between atoms: C_2  and  N_4
REMARK    4  A    between atoms: N_4  and  C_5
REMARK    5  A    between atoms: N_4  and  C_6
REMARK    6  A    between atoms: C_6  and  C_7
REMARK    7  A    between atoms: N_9  and  C_10
REMARK    8  A    between atoms: C_10  and  C_11
REMARK    9  A    between atoms: C_11  and  O_12
REMARK   10  A    between atoms: C_11  and  C_13
REMARK                            x       y       z     vdW  Elec       q    Type
REMARK                         _______ _______ _______ _____ _____    ______ ____
ROOT
ATOM      1  C   UNL     1       3.241   3.787  19.130  0.00  0.00    +0.000 C 
ENDROOT
BRANCH   1   2
ATOM      2  C   UNL     1       2.764   5.196  19.328  0.00  0.00    +0.000 A 
ATOM      3  C   UNL     1       2.165   5.743  20.444  0.00  0.00    +0.000 A 
ATOM      4  C   UNL     1       1.773   7.112  20.266  0.00  0.00    +0.000 A 
ATOM      5  C   UNL     1       1.116   8.009  21.143  0.00  0.00    +0.000 A 
ATOM      6  C   UNL     1       0.814   9.310  20.729  0.00  0.00    +0.000 A 
ATOM      7  C   UNL     1       1.160   9.739  19.456  0.00  0.00    +0.000 A 
ATOM      8  C   UNL     1       1.812   8.881  18.572  0.00  0.00    +0.000 A 
ATOM      9  C   UNL     1       2.114   7.572  18.992  0.00  0.00    +0.000 A 
ATOM     10  S   UNL     1       2.918   6.358  18.082  0.00  0.00    +0.000 S 
ENDBRANCH   1   2
BRANCH   1  11
ATOM     11  O   UNL     1       2.271   2.905  19.712  0.00  0.00    +0.000 OA
ATOM     12  H   UNL     1       1.437   3.055  19.230  0.00  0.00    +0.000 HD
ENDBRANCH   1  11
BRANCH   1  13
ATOM     13  C   UNL     1       4.623   3.532  19.754  0.00  0.00    +0.000 C 
BRANCH  13  16
ATOM     14  C   UNL     1       6.667   4.601  18.865  0.00  0.00    +0.000 C 
ATOM     15  O   UNL     1       6.748   5.371  19.820  0.00  0.00    +0.000 OA
ATOM     16  N   UNL     1       5.677   3.652  18.767  0.00  0.00    +0.000 N 
ATOM     17  H   UNL     1       5.776   2.892  18.106  0.00  0.00    +0.000 HD
BRANCH  14  18
ATOM     18  C   UNL     1       7.642   4.651  17.680  0.00  0.00    +0.000 C 
BRANCH  18  19
ATOM     19  N   UNL     1       7.254   5.620  16.619  0.00  0.00    +0.000 NA
ATOM     20  C   UNL     1       7.234   6.976  17.187  0.00  0.00    +0.000 C 
BRANCH  19  22
ATOM     21  C   UNL     1       5.246   6.528  15.405  0.00  0.00    +0.000 C 
ATOM     22  C   UNL     1       6.017   5.284  15.876  0.00  0.00    +0.000 C 
ATOM     23  C   UNL     1       6.302   4.434  14.624  0.00  0.00    +0.000 C 
ENDBRANCH  19  22
ENDBRANCH  18  19
ENDBRANCH  14  18
ENDBRANCH  13  16
ENDBRANCH   1  13
TORSDOF 7
ENDMDL
MODEL 7
REMARK VINA RESULT:      -6.8      2.689      7.174
REMARK  Name = 
REMARK  10 active torsions:
REMARK  status: ('A' for Active; 'I' for Inactive)
REMARK    1  A    between atoms: C_1  and  C_2
REMARK    2  A    between atoms: C_2  and  C_3
REMARK    3  A    between atoms: C_2  and  N_4
REMARK    4  A    between atoms: N_4  and  C_5
REMARK    5  A    between atoms: N_4  and  C_6
REMARK    6  A    between atoms: C_6  and  C_7
REMARK    7  A    between atoms: N_9  and  C_10
REMARK    8  A    between atoms: C_10  and  C_11
REMARK    9  A    between atoms: C_11  and  O_12
REMARK   10  A    between atoms: C_11  and  C_13
REMARK                            x       y       z     vdW  Elec       q    Type
REMARK                         _______ _______ _______ _____ _____    ______ ____
ROOT
ATOM      1  C   UNL     1       6.195   5.069  18.185  0.00  0.00    +0.000 C 
ENDROOT
BRANCH   1   2
ATOM      2  C   UNL     1       6.347   4.783  16.720  0.00  0.00    +0.000 A 
ATOM      3  C   UNL     1       7.272   5.310  15.842  0.00  0.00    +0.000 A 
ATOM      4  C   UNL     1       7.089   4.865  14.489  0.00  0.00    +0.000 A 
ATOM      5  C   UNL     1       7.795   5.187  13.304  0.00  0.00    +0.000 A 
ATOM      6  C   UNL     1       7.409   4.636  12.079  0.00  0.00    +0.000 A 
ATOM      7  C   UNL     1       6.334   3.762  12.010  0.00  0.00    +0.000 A 
ATOM      8  C   UNL     1       5.623   3.422  13.159  0.00  0.00    +0.000 A 
ATOM      9  C   UNL     1       6.014   3.978  14.391  0.00  0.00    +0.000 A 
ATOM     10  S   UNL     1       5.296   3.692  15.925  0.00  0.00    +0.000 S 
ENDBRANCH   1   2
BRANCH   1  11
ATOM     11  O   UNL     1       6.100   3.814  18.874  0.00  0.00    +0.000 OA
ATOM     12  H   UNL     1       5.282   3.850  19.402  0.00  0.00    +0.000 HD
ENDBRANCH   1  11
BRANCH   1  13
ATOM     13  C   UNL     1       4.962   5.934  18.500  0.00  0.00    +0.000 C 
BRANCH  13  16
ATOM     14  C   UNL     1       2.804   5.622  19.663  0.00  0.00    +0.000 C 
ATOM     15  O   UNL     1       2.217   6.386  18.900  0.00  0.00    +0.000 OA
ATOM     16  N   UNL     1       4.138   5.323  19.522  0.00  0.00    +0.000 N 
ATOM     17  H   UNL     1       4.525   4.522  20.007  0.00  0.00    +0.000 HD
BRANCH  14  18
ATOM     18  C   UNL     1       2.109   4.960  20.862  0.00  0.00    +0.000 C 
BRANCH  18  19
ATOM     19  N   UNL     1       1.761   3.529  20.642  0.00  0.00    +0.000 NA
ATOM     20  C   UNL     1       2.495   2.700  21.608  0.00  0.00    +0.000 C 
BRANCH  19  22
ATOM     21  C   UNL     1       3.026   2.024  19.073  0.00  0.00    +0.000 C 
ATOM     22  C   UNL     1       1.895   3.052  19.246  0.00  0.00    +0.000 C 
ATOM     23  C   UNL     1       0.605   2.388  18.731  0.00  0.00    +0.000 C 
ENDBRANCH  19  22
ENDBRANCH  18  19
ENDBRANCH  14  18
ENDBRANCH  13  16
ENDBRANCH   1  13
TORSDOF 7
ENDMDL
MODEL 8
REMARK VINA RESULT:      -6.7      1.204      1.439
REMARK  Name = 
REMARK  10 active torsions:
REMARK  status: ('A' for Active; 'I' for Inactive)
REMARK    1  A    between atoms: C_1  and  C_2
REMARK    2  A    between atoms: C_2  and  C_3
REMARK    3  A    between atoms: C_2  and  N_4
REMARK    4  A    between atoms: N_4  and  C_5
REMARK    5  A    between atoms: N_4  and  C_6
REMARK    6  A    between atoms: C_6  and  C_7
REMARK    7  A    between atoms: N_9  and  C_10
REMARK    8  A    between atoms: C_10  and  C_11
REMARK    9  A    between atoms: C_11  and  O_12
REMARK   10  A    between atoms: C_11  and  C_13
REMARK                            x       y       z     vdW  Elec       q    Type
REMARK                         _______ _______ _______ _____ _____    ______ ____
ROOT
ATOM      1  C   UNL     1       6.786   4.709  18.714  0.00  0.00    +0.000 C 
ENDROOT
BRANCH   1   2
ATOM      2  C   UNL     1       5.359   4.304  18.946  0.00  0.00    +0.000 A 
ATOM      3  C   UNL     1       4.790   3.058  18.778  0.00  0.00    +0.000 A 
ATOM      4  C   UNL     1       3.376   3.041  19.028  0.00  0.00    +0.000 A 
ATOM      5  C   UNL     1       2.433   1.988  18.940  0.00  0.00    +0.000 A 
ATOM      6  C   UNL     1       1.083   2.223  19.215  0.00  0.00    +0.000 A 
ATOM      7  C   UNL     1       0.651   3.490  19.581  0.00  0.00    +0.000 A 
ATOM      8  C   UNL     1       1.556   4.545  19.681  0.00  0.00    +0.000 A 
ATOM      9  C   UNL     1       2.915   4.304  19.404  0.00  0.00    +0.000 A 
ATOM     10  S   UNL     1       4.198   5.444  19.476  0.00  0.00    +0.000 S 
ENDBRANCH   1   2
BRANCH   1  11
ATOM     11  O   UNL     1       7.216   5.479  19.846  0.00  0.00    +0.000 OA
ATOM     12  H   UNL     1       8.110   5.805  19.635  0.00  0.00    +0.000 HD
ENDBRANCH   1  11
BRANCH   1  13
ATOM     13  C   UNL     1       6.973   5.524  17.424  0.00  0.00    +0.000 C 
BRANCH  13  16
ATOM     14  C   UNL     1       5.803   5.283  15.260  0.00  0.00    +0.000 C 
ATOM     15  O   UNL     1       5.419   6.451  15.272  0.00  0.00    +0.000 OA
ATOM     16  N   UNL     1       6.590   4.757  16.257  0.00  0.00    +0.000 N 
ATOM     17  H   UNL     1       7.080   3.885  16.099  0.00  0.00    +0.000 HD
BRANCH  14  18
ATOM     18  C   UNL     1       5.413   4.299  14.148  0.00  0.00    +0.000 C 
BRANCH  18  19
ATOM     19  N   UNL     1       6.542   3.915  13.258  0.00  0.00    +0.000 NA
ATOM     20  C   UNL     1       7.511   5.019  13.205  0.00  0.00    +0.000 C 
BRANCH  19  22
ATOM     21  C   UNL     1       6.811   2.077  11.561  0.00  0.00    +0.000 C 
ATOM     22  C   UNL     1       6.152   3.420  11.917  0.00  0.00    +0.000 C 
ATOM     23  C   UNL     1       4.630   3.218  11.791  0.00  0.00    +0.000 C 
ENDBRANCH  19  22
ENDBRANCH  18  19
ENDBRANCH  14  18
ENDBRANCH  13  16
ENDBRANCH   1  13
TORSDOF 7
ENDMDL
MODEL 9
REMARK VINA RESULT:      -6.6      2.031      6.841
REMARK  Name = 
REMARK  10 active torsions:
REMARK  status: ('A' for Active; 'I' for Inactive)
REMARK    1  A    between atoms: C_1  and  C_2
REMARK    2  A    between atoms: C_2  and  C_3
REMARK    3  A    between atoms: C_2  and  N_4
REMARK    4  A    between atoms: N_4  and  C_5
REMARK    5  A    between atoms: N_4  and  C_6
REMARK    6  A    between atoms: C_6  and  C_7
REMARK    7  A    between atoms: N_9  and  C_10
REMARK    8  A    between atoms: C_10  and  C_11
REMARK    9  A    between atoms: C_11  and  O_12
REMARK   10  A    between atoms: C_11  and  C_13
REMARK                            x       y       z     vdW  Elec       q    Type
REMARK                         _______ _______ _______ _____ _____    ______ ____
ROOT
ATOM      1  C   UNL     1       6.729   5.949  17.022  0.00  0.00    +0.000 C 
ENDROOT
BRANCH   1   2
ATOM      2  C   UNL     1       6.504   5.229  15.725  0.00  0.00    +0.000 A 
ATOM      3  C   UNL     1       7.395   5.046  14.687  0.00  0.00    +0.000 A 
ATOM      4  C   UNL     1       6.824   4.362  13.561  0.00  0.00    +0.000 A 
ATOM      5  C   UNL     1       7.385   4.010  12.309  0.00  0.00    +0.000 A 
ATOM      6  C   UNL     1       6.611   3.356  11.346  0.00  0.00    +0.000 A 
ATOM      7  C   UNL     1       5.286   3.040  11.607  0.00  0.00    +0.000 A 
ATOM      8  C   UNL     1       4.707   3.369  12.831  0.00  0.00    +0.000 A 
ATOM      9  C   UNL     1       5.489   4.027  13.799  0.00  0.00    +0.000 A 
ATOM     10  S   UNL     1       4.992   4.512  15.369  0.00  0.00    +0.000 S 
ENDBRANCH   1   2
BRANCH   1  11
ATOM     11  O   UNL     1       7.747   6.937  16.809  0.00  0.00    +0.000 OA
ATOM     12  H   UNL     1       7.857   7.017  15.844  0.00  0.00    +0.000 HD
ENDBRANCH   1  11
BRANCH   1  13
ATOM     13  C   UNL     1       7.143   5.006  18.164  0.00  0.00    +0.000 C 
BRANCH  13  16
ATOM     14  C   UNL     1       5.016   4.407  19.272  0.00  0.00    +0.000 C 
ATOM     15  O   UNL     1       4.863   5.543  19.718  0.00  0.00    +0.000 OA
ATOM     16  N   UNL     1       6.087   4.067  18.480  0.00  0.00    +0.000 N 
ATOM     17  H   UNL     1       6.058   3.210  17.941  0.00  0.00    +0.000 HD
BRANCH  14  18
ATOM     18  C   UNL     1       4.045   3.260  19.585  0.00  0.00    +0.000 C 
BRANCH  18  19
ATOM     19  N   UNL     1       2.724   3.712  20.100  0.00  0.00    +0.000 NA
ATOM     20  C   UNL     1       2.463   3.064  21.394  0.00  0.00    +0.000 C 
BRANCH  19  22
ATOM     21  C   UNL     1       1.814   4.385  17.854  0.00  0.00    +0.000 C 
ATOM     22  C   UNL     1       1.596   3.584  19.149  0.00  0.00    +0.000 C 
ATOM     23  C   UNL     1       1.346   2.123  18.733  0.00  0.00    +0.000 C 
ENDBRANCH  19  22
ENDBRANCH  18  19
ENDBRANCH  14  18
ENDBRANCH  13  16
ENDBRANCH   1  13
TORSDOF 7
ENDMDL
