MODEL 1
REMARK VINA RESULT:      -6.9      0.000      0.000
REMARK  Name = 
REMARK  13 active torsions:
REMARK  status: ('A' for Active; 'I' for Inactive)
REMARK    1  A    between atoms: C_1  and  C_2
REMARK    2  A    between atoms: C_2  and  C_3
REMARK    3  A    between atoms: C_2  and  C_4
REMARK    4  A    between atoms: C_4  and  C_5
REMARK    5  A    between atoms: C_5  and  N_6
REMARK    6  A    between atoms: C_5  and  C_17
REMARK    7  A    between atoms: C_7  and  O_9
REMARK    8  A    between atoms: O_9  and  C_10
REMARK    9  A    between atoms: C_10  and  C_11
REMARK   10  A    between atoms: N_19  and  C_20
REMARK   11  A    between atoms: N_19  and  N_21
REMARK   12  A    between atoms: N_21  and  C_22
REMARK   13  A    between atoms: N_21  and  C_23
REMARK                            x       y       z     vdW  Elec       q    Type
REMARK                         _______ _______ _______ _____ _____    ______ ____
ROOT
ATOM      1  C   UNL     1       4.713   5.937  17.111  0.00  0.00    +0.000 C 
ENDROOT
BRANCH   1   2
ATOM      2  N   UNL     1       5.844   5.907  18.059  0.00  0.00    +0.000 N 
ATOM      3  C   UNL     1       6.094   4.964  19.005  0.00  0.00    +0.000 C 
ATOM      4  O   UNL     1       6.875   5.193  19.910  0.00  0.00    +0.000 OA
ATOM      5  H   UNL     1       6.283   6.799  18.281  0.00  0.00    +0.000 HD
BRANCH   3   6
ATOM      6  O   UNL     1       5.436   3.801  18.800  0.00  0.00    +0.000 OA
BRANCH   6   7
ATOM      7  C   UNL     1       4.879   3.204  19.979  0.00  0.00    +0.000 C 
BRANCH   7   8
ATOM      8  C   UNL     1       3.385   3.165  19.805  0.00  0.00    +0.000 A 
ATOM      9  C   UNL     1       2.806   3.131  18.530  0.00  0.00    +0.000 A 
ATOM     10  C   UNL     1       1.417   3.139  18.388  0.00  0.00    +0.000 A 
ATOM     11  C   UNL     1       0.600   3.184  19.516  0.00  0.00    +0.000 A 
ATOM     12  C   UNL     1       1.165   3.214  20.788  0.00  0.00    +0.000 A 
ATOM     13  C   UNL     1       2.553   3.206  20.933  0.00  0.00    +0.000 A 
ENDBRANCH   7   8
ENDBRANCH   6   7
ENDBRANCH   3   6
ENDBRANCH   1   2
BRANCH   1  14
ATOM     14  C   UNL     1       5.272   5.907  15.647  0.00  0.00    +0.000 C 
ATOM     15  O   UNL     1       5.251   6.938  14.967  0.00  0.00    +0.000 OA
ATOM     16  N   UNL     1       5.728   4.681  15.131  0.00  0.00    +0.000 N 
ATOM     17  C   UNL     1       5.604   3.371  15.780  0.00  0.00    +0.000 C 
BRANCH  16  18
ATOM     18  N   UNL     1       6.490   4.613  13.801  0.00  0.00    +0.000 N 
ATOM     19  C   UNL     1       7.824   5.250  13.659  0.00  0.00    +0.000 C 
BRANCH  18  20
ATOM     20  C   UNL     1       6.057   3.717  12.890  0.00  0.00    +0.000 C 
ATOM     21  N   UNL     1       5.688   2.930  12.124  0.00  0.00    +0.000 NA
ENDBRANCH  18  20
ENDBRANCH  16  18
ENDBRANCH   1  14
BRANCH   1  22
ATOM     22  C   UNL     1       3.918   7.228  17.426  0.00  0.00    +0.000 C 
BRANCH  22  24
ATOM     23  C   UNL     1       2.569   6.702  19.530  0.00  0.00    +0.000 C 
ATOM     24  C   UNL     1       2.519   7.126  18.066  0.00  0.00    +0.000 C 
ATOM     25  C   UNL     1       1.807   8.479  17.936  0.00  0.00    +0.000 C 
ENDBRANCH  22  24
ENDBRANCH   1  22
TORSDOF 9
ENDMDL
MODEL 2
REMARK VINA RESULT:      -6.8      0.677      1.547
REMARK  Name = 
REMARK  13 active torsions:
REMARK  status: ('A' for Active; 'I' for Inactive)
REMARK    1  A    between atoms: C_1  and  C_2
REMARK    2  A    between atoms: C_2  and  C_3
REMARK    3  A    between atoms: C_2  and  C_4
REMARK    4  A    between atoms: C_4  and  C_5
REMARK    5  A    between atoms: C_5  and  N_6
REMARK    6  A    between atoms: C_5  and  C_17
REMARK    7  A    between atoms: C_7  and  O_9
REMARK    8  A    between atoms: O_9  and  C_10
REMARK    9  A    between atoms: C_10  and  C_11
REMARK   10  A    between atoms: N_19  and  C_20
REMARK   11  A    between atoms: N_19  and  N_21
REMARK   12  A    between atoms: N_21  and  C_22
REMARK   13  A    between atoms: N_21  and  C_23
REMARK                            x       y       z     vdW  Elec       q    Type
REMARK                         _______ _______ _______ _____ _____    ______ ____
ROOT
ATOM      1  C   UNL     1       4.954   5.785  17.202  0.00  0.00    +0.000 C 
ENDROOT
BRANCH   1   2
ATOM      2  N   UNL     1       6.157   5.628  18.041  0.00  0.00    +0.000 N 
ATOM      3  C   UNL     1       6.197   5.330  19.367  0.00  0.00    +0.000 C 
ATOM      4  O   UNL     1       7.214   5.515  20.008  0.00  0.00    +0.000 OA
ATOM      5  H   UNL     1       7.002   6.103  17.730  0.00  0.00    +0.000 HD
BRANCH   3   6
ATOM      6  O   UNL     1       5.047   4.799  19.840  0.00  0.00    +0.000 OA
BRANCH   6   7
ATOM      7  C   UNL     1       4.847   3.414  19.527  0.00  0.00    +0.000 C 
BRANCH   7   8
ATOM      8  C   UNL     1       3.364   3.157  19.537  0.00  0.00    +0.000 A 
ATOM      9  C   UNL     1       2.633   3.184  20.731  0.00  0.00    +0.000 A 
ATOM     10  C   UNL     1       1.266   2.899  20.725  0.00  0.00    +0.000 A 
ATOM     11  C   UNL     1       0.623   2.585  19.530  0.00  0.00    +0.000 A 
ATOM     12  C   UNL     1       1.340   2.558  18.336  0.00  0.00    +0.000 A 
ATOM     13  C   UNL     1       2.706   2.842  18.339  0.00  0.00    +0.000 A 
ENDBRANCH   7   8
ENDBRANCH   6   7
ENDBRANCH   3   6
ENDBRANCH   1   2
BRANCH   1  14
ATOM     14  C   UNL     1       5.367   5.695  15.693  0.00  0.00    +0.000 C 
ATOM     15  O   UNL     1       5.310   6.706  14.986  0.00  0.00    +0.000 OA
ATOM     16  N   UNL     1       5.736   4.441  15.175  0.00  0.00    +0.000 N 
ATOM     17  C   UNL     1       5.637   3.155  15.874  0.00  0.00    +0.000 C 
BRANCH  16  18
ATOM     18  N   UNL     1       6.363   4.311  13.781  0.00  0.00    +0.000 N 
ATOM     19  C   UNL     1       5.616   3.665  12.672  0.00  0.00    +0.000 C 
BRANCH  18  20
ATOM     20  C   UNL     1       7.458   5.058  13.527  0.00  0.00    +0.000 C 
ATOM     21  N   UNL     1       8.393   5.697  13.285  0.00  0.00    +0.000 NA
ENDBRANCH  18  20
ENDBRANCH  16  18
ENDBRANCH   1  14
BRANCH   1  22
ATOM     22  C   UNL     1       4.340   7.156  17.579  0.00  0.00    +0.000 C 
BRANCH  22  24
ATOM     23  C   UNL     1       2.518   6.762  19.325  0.00  0.00    +0.000 C 
ATOM     24  C   UNL     1       2.839   7.254  17.918  0.00  0.00    +0.000 C 
ATOM     25  C   UNL     1       2.381   8.710  17.754  0.00  0.00    +0.000 C 
ENDBRANCH  22  24
ENDBRANCH   1  22
TORSDOF 9
ENDMDL
MODEL 3
REMARK VINA RESULT:      -6.7      0.425      1.199
REMARK  Name = 
REMARK  13 active torsions:
REMARK  status: ('A' for Active; 'I' for Inactive)
REMARK    1  A    between atoms: C_1  and  C_2
REMARK    2  A    between atoms: C_2  and  C_3
REMARK    3  A    between atoms: C_2  and  C_4
REMARK    4  A    between atoms: C_4  and  C_5
REMARK    5  A    between atoms: C_5  and  N_6
REMARK    6  A    between atoms: C_5  and  C_17
REMARK    7  A    between atoms: C_7  and  O_9
REMARK    8  A    between atoms: O_9  and  C_10
REMARK    9  A    between atoms: C_10  and  C_11
REMARK   10  A    between atoms: N_19  and  C_20
REMARK   11  A    between atoms: N_19  and  N_21
REMARK   12  A    between atoms: N_21  and  C_22
REMARK   13  A    between atoms: N_21  and  C_23
REMARK                            x       y       z     vdW  Elec       q    Type
REMARK                         _______ _______ _______ _____ _____    ______ ____
ROOT
ATOM      1  C   UNL     1       4.743   5.914  17.082  0.00  0.00    +0.000 C 
ENDROOT
BRANCH   1   2
ATOM      2  N   UNL     1       5.879   5.852  18.022  0.00  0.00    +0.000 N 
ATOM      3  C   UNL     1       6.095   4.917  18.985  0.00  0.00    +0.000 C 
ATOM      4  O   UNL     1       6.892   5.128  19.879  0.00  0.00    +0.000 OA
ATOM      5  H   UNL     1       6.360   6.727  18.224  0.00  0.00    +0.000 HD
BRANCH   3   6
ATOM      6  O   UNL     1       5.383   3.780  18.808  0.00  0.00    +0.000 OA
BRANCH   6   7
ATOM      7  C   UNL     1       4.870   3.193  20.012  0.00  0.00    +0.000 C 
BRANCH   7   8
ATOM      8  C   UNL     1       3.374   3.115  19.875  0.00  0.00    +0.000 A 
ATOM      9  C   UNL     1       2.529   3.751  20.794  0.00  0.00    +0.000 A 
ATOM     10  C   UNL     1       1.144   3.629  20.676  0.00  0.00    +0.000 A 
ATOM     11  C   UNL     1       0.594   2.872  19.644  0.00  0.00    +0.000 A 
ATOM     12  C   UNL     1       1.425   2.238  18.723  0.00  0.00    +0.000 A 
ATOM     13  C   UNL     1       2.810   2.357  18.839  0.00  0.00    +0.000 A 
ENDBRANCH   7   8
ENDBRANCH   6   7
ENDBRANCH   3   6
ENDBRANCH   1   2
BRANCH   1  14
ATOM     14  C   UNL     1       5.292   5.879  15.614  0.00  0.00    +0.000 C 
ATOM     15  O   UNL     1       5.275   6.911  14.935  0.00  0.00    +0.000 OA
ATOM     16  N   UNL     1       5.733   4.650  15.095  0.00  0.00    +0.000 N 
ATOM     17  C   UNL     1       5.602   3.341  15.744  0.00  0.00    +0.000 C 
BRANCH  16  18
ATOM     18  N   UNL     1       6.485   4.576  13.760  0.00  0.00    +0.000 N 
ATOM     19  C   UNL     1       7.824   5.200  13.609  0.00  0.00    +0.000 C 
BRANCH  18  20
ATOM     20  C   UNL     1       6.038   3.685  12.851  0.00  0.00    +0.000 C 
ATOM     21  N   UNL     1       5.650   2.903  12.088  0.00  0.00    +0.000 NA
ENDBRANCH  18  20
ENDBRANCH  16  18
ENDBRANCH   1  14
BRANCH   1  22
ATOM     22  C   UNL     1       3.982   7.221  17.411  0.00  0.00    +0.000 C 
BRANCH  22  24
ATOM     23  C   UNL     1       1.767   8.360  17.977  0.00  0.00    +0.000 C 
ATOM     24  C   UNL     1       2.673   7.159  18.224  0.00  0.00    +0.000 C 
ATOM     25  C   UNL     1       1.929   5.861  17.880  0.00  0.00    +0.000 C 
ENDBRANCH  22  24
ENDBRANCH   1  22
TORSDOF 9
ENDMDL
MODEL 4
REMARK VINA RESULT:      -6.6      2.474      6.691
REMARK  Name = 
REMARK  13 active torsions:
REMARK  status: ('A' for Active; 'I' for Inactive)
REMARK    1  A    between atoms: C_1  and  C_2
REMARK    2  A    between atoms: C_2  and  C_3
REMARK    3  A    between atoms: C_2  and  C_4
REMARK    4  A    between atoms: C_4  and  C_5
REMARK    5  A    between atoms: C_5  and  N_6
REMARK    6  A    between atoms: C_5  and  C_17
REMARK    7  A    between atoms: C_7  and  O_9
REMARK    8  A    between atoms: O_9  and  C_10
REMARK    9  A    between atoms: C_10  and  C_11
REMARK   10  A    between atoms: N_19  and  C_20
REMARK   11  A    between atoms: N_19  and  N_21
REMARK   12  A    between atoms: N_21  and  C_22
REMARK   13  A    between atoms: N_21  and  C_23
REMARK                            x       y       z     vdW  Elec       q    Type
REMARK                         _______ _______ _______ _____ _____    ______ ____
ROOT
ATOM      1  C   UNL     1       4.877   5.014  18.014  0.00  0.00    +0.000 C 
ENDROOT
BRANCH   1   2
ATOM      2  N   UNL     1       4.677   6.003  16.937  0.00  0.00    +0.000 N 
ATOM      3  C   UNL     1       5.238   5.989  15.699  0.00  0.00    +0.000 C 
ATOM      4  O   UNL     1       5.235   6.993  15.011  0.00  0.00    +0.000 OA
ATOM      5  H   UNL     1       4.390   6.939  17.217  0.00  0.00    +0.000 HD
BRANCH   3   6
ATOM      6  O   UNL     1       5.732   4.782  15.339  0.00  0.00    +0.000 OA
BRANCH   6   7
ATOM      7  C   UNL     1       6.730   4.819  14.310  0.00  0.00    +0.000 C 
BRANCH   7   8
ATOM      8  C   UNL     1       6.239   3.967  13.171  0.00  0.00    +0.000 A 
ATOM      9  C   UNL     1       4.881   3.931  12.828  0.00  0.00    +0.000 A 
ATOM     10  C   UNL     1       4.439   3.101  11.796  0.00  0.00    +0.000 A 
ATOM     11  C   UNL     1       5.346   2.302  11.105  0.00  0.00    +0.000 A 
ATOM     12  C   UNL     1       6.699   2.332  11.436  0.00  0.00    +0.000 A 
ATOM     13  C   UNL     1       7.144   3.160  12.467  0.00  0.00    +0.000 A 
ENDBRANCH   7   8
ENDBRANCH   6   7
ENDBRANCH   3   6
ENDBRANCH   1   2
BRANCH   1  14
ATOM     14  C   UNL     1       3.487   4.659  18.646  0.00  0.00    +0.000 C 
ATOM     15  O   UNL     1       2.579   5.496  18.627  0.00  0.00    +0.000 OA
ATOM     16  N   UNL     1       3.339   3.409  19.272  0.00  0.00    +0.000 N 
ATOM     17  C   UNL     1       4.409   2.438  19.527  0.00  0.00    +0.000 C 
BRANCH  16  18
ATOM     18  N   UNL     1       1.960   2.900  19.713  0.00  0.00    +0.000 N 
ATOM     19  C   UNL     1       1.010   2.334  18.722  0.00  0.00    +0.000 C 
BRANCH  18  20
ATOM     20  C   UNL     1       1.769   2.705  21.034  0.00  0.00    +0.000 C 
ATOM     21  N   UNL     1       1.626   2.552  22.174  0.00  0.00    +0.000 NA
ENDBRANCH  18  20
ENDBRANCH  16  18
ENDBRANCH   1  14
BRANCH   1  22
ATOM     22  C   UNL     1       5.850   5.668  19.025  0.00  0.00    +0.000 C 
BRANCH  22  24
ATOM     23  C   UNL     1       7.773   4.491  17.825  0.00  0.00    +0.000 C 
ATOM     24  C   UNL     1       7.368   5.626  18.760  0.00  0.00    +0.000 C 
ATOM     25  C   UNL     1       7.815   6.973  18.175  0.00  0.00    +0.000 C 
ENDBRANCH  22  24
ENDBRANCH   1  22
TORSDOF 9
ENDMDL
MODEL 5
REMARK VINA RESULT:      -6.4      1.937      3.571
REMARK  Name = 
REMARK  13 active torsions:
REMARK  status: ('A' for Active; 'I' for Inactive)
REMARK    1  A    between atoms: C_1  and  C_2
REMARK    2  A    between atoms: C_2  and  C_3
REMARK    3  A    between atoms: C_2  and  C_4
REMARK    4  A    between atoms: C_4  and  C_5
REMARK    5  A    between atoms: C_5  and  N_6
REMARK    6  A    between atoms: C_5  and  C_17
REMARK    7  A    between atoms: C_7  and  O_9
REMARK    8  A    between atoms: O_9  and  C_10
REMARK    9  A    between atoms: C_10  and  C_11
REMARK   10  A    between atoms: N_19  and  C_20
REMARK   11  A    between atoms: N_19  and  N_21
REMARK   12  A    between atoms: N_21  and  C_22
REMARK   13  A    between atoms: N_21  and  C_23
REMARK                            x       y       z     vdW  Elec       q    Type
REMARK                         _______ _______ _______ _____ _____    ______ ____
ROOT
ATOM      1  C   UNL     1       6.440   5.328  17.948  0.00  0.00    +0.000 C 
ENDROOT
BRANCH   1   2
ATOM      2  N   UNL     1       6.182   4.163  18.816  0.00  0.00    +0.000 N 
ATOM      3  C   UNL     1       5.013   3.483  18.949  0.00  0.00    +0.000 C 
ATOM      4  O   UNL     1       4.837   2.741  19.896  0.00  0.00    +0.000 OA
ATOM      5  H   UNL     1       6.783   4.054  19.632  0.00  0.00    +0.000 HD
BRANCH   3   6
ATOM      6  O   UNL     1       4.144   3.694  17.934  0.00  0.00    +0.000 OA
BRANCH   6   7
ATOM      7  C   UNL     1       2.764   3.746  18.320  0.00  0.00    +0.000 C 
BRANCH   7   8
ATOM      8  C   UNL     1       2.507   5.108  18.906  0.00  0.00    +0.000 A 
ATOM      9  C   UNL     1       2.024   5.255  20.212  0.00  0.00    +0.000 A 
ATOM     10  C   UNL     1       1.751   6.525  20.722  0.00  0.00    +0.000 A 
ATOM     11  C   UNL     1       1.955   7.654  19.931  0.00  0.00    +0.000 A 
ATOM     12  C   UNL     1       2.439   7.520  18.632  0.00  0.00    +0.000 A 
ATOM     13  C   UNL     1       2.713   6.251  18.120  0.00  0.00    +0.000 A 
ENDBRANCH   7   8
ENDBRANCH   6   7
ENDBRANCH   3   6
ENDBRANCH   1   2
BRANCH   1  14
ATOM     14  C   UNL     1       7.002   4.826  16.573  0.00  0.00    +0.000 C 
ATOM     15  O   UNL     1       8.036   4.151  16.550  0.00  0.00    +0.000 OA
ATOM     16  N   UNL     1       6.337   5.216  15.397  0.00  0.00    +0.000 N 
ATOM     17  C   UNL     1       5.233   6.178  15.308  0.00  0.00    +0.000 C 
BRANCH  16  18
ATOM     18  N   UNL     1       6.688   4.589  14.042  0.00  0.00    +0.000 N 
ATOM     19  C   UNL     1       5.820   3.544  13.443  0.00  0.00    +0.000 C 
BRANCH  18  20
ATOM     20  C   UNL     1       7.614   5.224  13.292  0.00  0.00    +0.000 C 
ATOM     21  N   UNL     1       8.392   5.786  12.644  0.00  0.00    +0.000 NA
ENDBRANCH  18  20
ENDBRANCH  16  18
ENDBRANCH   1  14
BRANCH   1  22
ATOM     22  C   UNL     1       7.439   6.228  18.715  0.00  0.00    +0.000 C 
BRANCH  22  24
ATOM     23  C   UNL     1       6.925   8.317  17.339  0.00  0.00    +0.000 C 
ATOM     24  C   UNL     1       8.001   7.494  18.040  0.00  0.00    +0.000 C 
ATOM     25  C   UNL     1       8.714   8.352  19.094  0.00  0.00    +0.000 C 
ENDBRANCH  22  24
ENDBRANCH   1  22
TORSDOF 9
ENDMDL
MODEL 6
REMARK VINA RESULT:      -6.4      2.429      6.697
REMARK  Name = 
REMARK  13 active torsions:
REMARK  status: ('A' for Active; 'I' for Inactive)
REMARK    1  A    between atoms: C_1  and  C_2
REMARK    2  A    between atoms: C_2  and  C_3
REMARK    3  A    between atoms: C_2  and  C_4
REMARK    4  A    between atoms: C_4  and  C_5
REMARK    5  A    between atoms: C_5  and  N_6
REMARK    6  A    between atoms: C_5  and  C_17
REMARK    7  A    between atoms: C_7  and  O_9
REMARK    8  A    between atoms: O_9  and  C_10
REMARK    9  A    between atoms: C_10  and  C_11
REMARK   10  A    between atoms: N_19  and  C_20
REMARK   11  A    between atoms: N_19  and  N_21
REMARK   12  A    between atoms: N_21  and  C_22
REMARK   13  A    between atoms: N_21  and  C_23
REMARK                            x       y       z     vdW  Elec       q    Type
REMARK                         _______ _______ _______ _____ _____    ______ ____
ROOT
ATOM      1  C   UNL     1       5.114   5.062  18.469  0.00  0.00    +0.000 C 
ENDROOT
BRANCH   1   2
ATOM      2  N   UNL     1       4.975   6.152  17.485  0.00  0.00    +0.000 N 
ATOM      3  C   UNL     1       4.939   6.033  16.131  0.00  0.00    +0.000 C 
ATOM      4  O   UNL     1       5.118   7.006  15.424  0.00  0.00    +0.000 OA
ATOM      5  H   UNL     1       5.272   7.080  17.780  0.00  0.00    +0.000 HD
BRANCH   3   6
ATOM      6  O   UNL     1       4.657   4.781  15.703  0.00  0.00    +0.000 OA
BRANCH   6   7
ATOM      7  C   UNL     1       5.796   3.927  15.538  0.00  0.00    +0.000 C 
BRANCH   7   8
ATOM      8  C   UNL     1       6.295   4.105  14.129  0.00  0.00    +0.000 A 
ATOM      9  C   UNL     1       5.727   3.394  13.065  0.00  0.00    +0.000 A 
ATOM     10  C   UNL     1       6.233   3.541  11.772  0.00  0.00    +0.000 A 
ATOM     11  C   UNL     1       7.309   4.393  11.535  0.00  0.00    +0.000 A 
ATOM     12  C   UNL     1       7.880   5.107  12.586  0.00  0.00    +0.000 A 
ATOM     13  C   UNL     1       7.376   4.963  13.879  0.00  0.00    +0.000 A 
ENDBRANCH   7   8
ENDBRANCH   6   7
ENDBRANCH   3   6
ENDBRANCH   1   2
BRANCH   1  14
ATOM     14  C   UNL     1       3.723   4.800  19.143  0.00  0.00    +0.000 C 
ATOM     15  O   UNL     1       3.000   5.758  19.435  0.00  0.00    +0.000 OA
ATOM     16  N   UNL     1       3.368   3.475  19.449  0.00  0.00    +0.000 N 
ATOM     17  C   UNL     1       4.237   2.299  19.333  0.00  0.00    +0.000 C 
BRANCH  16  18
ATOM     18  N   UNL     1       1.945   3.118  19.898  0.00  0.00    +0.000 N 
ATOM     19  C   UNL     1       0.886   2.826  18.899  0.00  0.00    +0.000 C 
BRANCH  18  20
ATOM     20  C   UNL     1       1.775   2.785  21.195  0.00  0.00    +0.000 C 
ATOM     21  N   UNL     1       1.644   2.480  22.305  0.00  0.00    +0.000 NA
ENDBRANCH  18  20
ENDBRANCH  16  18
ENDBRANCH   1  14
BRANCH   1  22
ATOM     22  C   UNL     1       6.195   5.524  19.477  0.00  0.00    +0.000 C 
BRANCH  22  24
ATOM     23  C   UNL     1       8.010   4.512  17.992  0.00  0.00    +0.000 C 
ATOM     24  C   UNL     1       7.674   5.562  19.046  0.00  0.00    +0.000 C 
ATOM     25  C   UNL     1       8.008   6.963  18.516  0.00  0.00    +0.000 C 
ENDBRANCH  22  24
ENDBRANCH   1  22
TORSDOF 9
ENDMDL
MODEL 7
REMARK VINA RESULT:      -6.1      2.873      6.671
REMARK  Name = 
REMARK  13 active torsions:
REMARK  status: ('A' for Active; 'I' for Inactive)
REMARK    1  A    between atoms: C_1  and  C_2
REMARK    2  A    between atoms: C_2  and  C_3
REMARK    3  A    between atoms: C_2  and  C_4
REMARK    4  A    between atoms: C_4  and  C_5
REMARK    5  A    between atoms: C_5  and  N_6
REMARK    6  A    between atoms: C_5  and  C_17
REMARK    7  A    between atoms: C_7  and  O_9
REMARK    8  A    between atoms: O_9  and  C_10
REMARK    9  A    between atoms: C_10  and  C_11
REMARK   10  A    between atoms: N_19  and  C_20
REMARK   11  A    between atoms: N_19  and  N_21
REMARK   12  A    between atoms: N_21  and  C_22
REMARK   13  A    between atoms: N_21  and  C_23
REMARK                            x       y       z     vdW  Elec       q    Type
REMARK                         _______ _______ _______ _____ _____    ______ ____
ROOT
ATOM      1  C   UNL     1       3.012   6.282  18.790  0.00  0.00    +0.000 C 
ENDROOT
BRANCH   1   2
ATOM      2  N   UNL     1       4.070   5.673  19.620  0.00  0.00    +0.000 N 
ATOM      3  C   UNL     1       5.337   5.365  19.235  0.00  0.00    +0.000 C 
ATOM      4  O   UNL     1       6.016   4.609  19.903  0.00  0.00    +0.000 OA
ATOM      5  H   UNL     1       3.768   5.119  20.419  0.00  0.00    +0.000 HD
BRANCH   3   6
ATOM      6  O   UNL     1       5.732   6.001  18.108  0.00  0.00    +0.000 OA
BRANCH   6   7
ATOM      7  C   UNL     1       6.960   5.524  17.542  0.00  0.00    +0.000 C 
BRANCH   7   8
ATOM      8  C   UNL     1       6.644   4.963  16.182  0.00  0.00    +0.000 A 
ATOM      9  C   UNL     1       7.442   5.266  15.072  0.00  0.00    +0.000 A 
ATOM     10  C   UNL     1       7.108   4.772  13.810  0.00  0.00    +0.000 A 
ATOM     11  C   UNL     1       5.976   3.977  13.648  0.00  0.00    +0.000 A 
ATOM     12  C   UNL     1       5.176   3.667  14.746  0.00  0.00    +0.000 A 
ATOM     13  C   UNL     1       5.508   4.159  16.008  0.00  0.00    +0.000 A 
ENDBRANCH   7   8
ENDBRANCH   6   7
ENDBRANCH   3   6
ENDBRANCH   1   2
BRANCH   1  14
ATOM     14  C   UNL     1       2.043   7.096  19.714  0.00  0.00    +0.000 C 
ATOM     15  O   UNL     1       1.576   6.562  20.725  0.00  0.00    +0.000 OA
ATOM     16  N   UNL     1       1.688   8.400  19.325  0.00  0.00    +0.000 N 
ATOM     17  C   UNL     1       2.022   9.042  18.049  0.00  0.00    +0.000 C 
BRANCH  16  18
ATOM     18  N   UNL     1       0.931   9.334  20.278  0.00  0.00    +0.000 N 
ATOM     19  C   UNL     1      -0.410   9.860  19.918  0.00  0.00    +0.000 C 
BRANCH  18  20
ATOM     20  C   UNL     1       1.379   9.410  21.549  0.00  0.00    +0.000 C 
ATOM     21  N   UNL     1       1.776   9.455  22.637  0.00  0.00    +0.000 NA
ENDBRANCH  18  20
ENDBRANCH  16  18
ENDBRANCH   1  14
BRANCH   1  22
ATOM     22  C   UNL     1       2.308   5.112  18.060  0.00  0.00    +0.000 C 
BRANCH  22  24
ATOM     23  C   UNL     1       0.957   3.382  19.367  0.00  0.00    +0.000 C 
ATOM     24  C   UNL     1       2.290   3.710  18.704  0.00  0.00    +0.000 C 
ATOM     25  C   UNL     1       2.615   2.661  17.632  0.00  0.00    +0.000 C 
ENDBRANCH  22  24
ENDBRANCH   1  22
TORSDOF 9
ENDMDL
MODEL 8
REMARK VINA RESULT:      -6.0      2.526      6.752
REMARK  Name = 
REMARK  13 active torsions:
REMARK  status: ('A' for Active; 'I' for Inactive)
REMARK    1  A    between atoms: C_1  and  C_2
REMARK    2  A    between atoms: C_2  and  C_3
REMARK    3  A    between atoms: C_2  and  C_4
REMARK    4  A    between atoms: C_4  and  C_5
REMARK    5  A    between atoms: C_5  and  N_6
REMARK    6  A    between atoms: C_5  and  C_17
REMARK    7  A    between atoms: C_7  and  O_9
REMARK    8  A    between atoms: O_9  and  C_10
REMARK    9  A    between atoms: C_10  and  C_11
REMARK   10  A    between atoms: N_19  and  C_20
REMARK   11  A    between atoms: N_19  and  N_21
REMARK   12  A    between atoms: N_21  and  C_22
REMARK   13  A    between atoms: N_21  and  C_23
REMARK                            x       y       z     vdW  Elec       q    Type
REMARK                         _______ _______ _______ _____ _____    ______ ____
ROOT
ATOM      1  C   UNL     1       4.797   4.786  18.112  0.00  0.00    +0.000 C 
ENDROOT
BRANCH   1   2
ATOM      2  N   UNL     1       4.581   5.863  17.127  0.00  0.00    +0.000 N 
ATOM      3  C   UNL     1       5.060   5.919  15.856  0.00  0.00    +0.000 C 
ATOM      4  O   UNL     1       5.066   6.972  15.247  0.00  0.00    +0.000 OA
ATOM      5  H   UNL     1       4.361   6.787  17.494  0.00  0.00    +0.000 HD
BRANCH   3   6
ATOM      6  O   UNL     1       5.467   4.722  15.375  0.00  0.00    +0.000 OA
BRANCH   6   7
ATOM      7  C   UNL     1       6.538   4.784  14.424  0.00  0.00    +0.000 C 
BRANCH   7   8
ATOM      8  C   UNL     1       6.161   3.908  13.260  0.00  0.00    +0.000 A 
ATOM      9  C   UNL     1       7.135   3.215  12.530  0.00  0.00    +0.000 A 
ATOM     10  C   UNL     1       6.769   2.443  11.426  0.00  0.00    +0.000 A 
ATOM     11  C   UNL     1       5.432   2.360  11.043  0.00  0.00    +0.000 A 
ATOM     12  C   UNL     1       4.455   3.042  11.764  0.00  0.00    +0.000 A 
ATOM     13  C   UNL     1       4.817   3.814  12.868  0.00  0.00    +0.000 A 
ENDBRANCH   7   8
ENDBRANCH   6   7
ENDBRANCH   3   6
ENDBRANCH   1   2
BRANCH   1  14
ATOM     14  C   UNL     1       3.471   4.552  18.914  0.00  0.00    +0.000 C 
ATOM     15  O   UNL     1       2.879   5.518  19.404  0.00  0.00    +0.000 OA
ATOM     16  N   UNL     1       3.029   3.230  19.100  0.00  0.00    +0.000 N 
ATOM     17  C   UNL     1       3.765   2.014  18.739  0.00  0.00    +0.000 C 
BRANCH  16  18
ATOM     18  N   UNL     1       1.637   2.932  19.673  0.00  0.00    +0.000 N 
ATOM     19  C   UNL     1       0.517   2.542  18.779  0.00  0.00    +0.000 C 
BRANCH  18  20
ATOM     20  C   UNL     1       1.549   2.741  21.006  0.00  0.00    +0.000 C 
ATOM     21  N   UNL     1       1.458   2.557  22.146  0.00  0.00    +0.000 NA
ENDBRANCH  18  20
ENDBRANCH  16  18
ENDBRANCH   1  14
BRANCH   1  22
ATOM     22  C   UNL     1       5.970   5.251  19.009  0.00  0.00    +0.000 C 
BRANCH  22  24
ATOM     23  C   UNL     1       8.239   6.378  19.342  0.00  0.00    +0.000 C 
ATOM     24  C   UNL     1       7.306   5.672  18.364  0.00  0.00    +0.000 C 
ATOM     25  C   UNL     1       7.997   4.430  17.783  0.00  0.00    +0.000 C 
ENDBRANCH  22  24
ENDBRANCH   1  22
TORSDOF 9
ENDMDL
MODEL 9
REMARK VINA RESULT:      -6.0      2.351      6.306
REMARK  Name = 
REMARK  13 active torsions:
REMARK  status: ('A' for Active; 'I' for Inactive)
REMARK    1  A    between atoms: C_1  and  C_2
REMARK    2  A    between atoms: C_2  and  C_3
REMARK    3  A    between atoms: C_2  and  C_4
REMARK    4  A    between atoms: C_4  and  C_5
REMARK    5  A    between atoms: C_5  and  N_6
REMARK    6  A    between atoms: C_5  and  C_17
REMARK    7  A    between atoms: C_7  and  O_9
REMARK    8  A    between atoms: O_9  and  C_10
REMARK    9  A    between atoms: C_10  and  C_11
REMARK   10  A    between atoms: N_19  and  C_20
REMARK   11  A    between atoms: N_19  and  N_21
REMARK   12  A    between atoms: N_21  and  C_22
REMARK   13  A    between atoms: N_21  and  C_23
REMARK                            x       y       z     vdW  Elec       q    Type
REMARK                         _______ _______ _______ _____ _____    ______ ____
ROOT
ATOM      1  C   UNL     1       4.674   4.009  18.618  0.00  0.00    +0.000 C 
ENDROOT
BRANCH   1   2
ATOM      2  N   UNL     1       6.139   4.142  18.503  0.00  0.00    +0.000 N 
ATOM      3  C   UNL     1       6.847   4.479  17.393  0.00  0.00    +0.000 C 
ATOM      4  O   UNL     1       8.044   4.272  17.340  0.00  0.00    +0.000 OA
ATOM      5  H   UNL     1       6.704   3.621  19.173  0.00  0.00    +0.000 HD
BRANCH   3   6
ATOM      6  O   UNL     1       6.101   5.074  16.434  0.00  0.00    +0.000 OA
BRANCH   6   7
ATOM      7  C   UNL     1       5.397   4.173  15.569  0.00  0.00    +0.000 C 
BRANCH   7   8
ATOM      8  C   UNL     1       6.054   4.237  14.216  0.00  0.00    +0.000 A 
ATOM      9  C   UNL     1       5.601   3.445  13.154  0.00  0.00    +0.000 A 
ATOM     10  C   UNL     1       6.252   3.486  11.920  0.00  0.00    +0.000 A 
ATOM     11  C   UNL     1       7.357   4.314  11.739  0.00  0.00    +0.000 A 
ATOM     12  C   UNL     1       7.814   5.109  12.788  0.00  0.00    +0.000 A 
ATOM     13  C   UNL     1       7.165   5.070  14.023  0.00  0.00    +0.000 A 
ENDBRANCH   7   8
ENDBRANCH   6   7
ENDBRANCH   3   6
ENDBRANCH   1   2
BRANCH   1  14
ATOM     14  C   UNL     1       4.080   5.352  19.166  0.00  0.00    +0.000 C 
ATOM     15  O   UNL     1       4.694   5.977  20.036  0.00  0.00    +0.000 OA
ATOM     16  N   UNL     1       2.827   5.772  18.687  0.00  0.00    +0.000 N 
ATOM     17  C   UNL     1       1.932   5.002  17.816  0.00  0.00    +0.000 C 
BRANCH  16  18
ATOM     18  N   UNL     1       2.286   7.172  19.002  0.00  0.00    +0.000 N 
ATOM     19  C   UNL     1       1.901   7.542  20.388  0.00  0.00    +0.000 C 
BRANCH  18  20
ATOM     20  C   UNL     1       2.459   8.125  18.062  0.00  0.00    +0.000 C 
ATOM     21  N   UNL     1       2.587   8.935  17.243  0.00  0.00    +0.000 NA
ENDBRANCH  18  20
ENDBRANCH  16  18
ENDBRANCH   1  14
BRANCH   1  22
ATOM     22  C   UNL     1       4.421   2.808  19.561  0.00  0.00    +0.000 C 
BRANCH  22  24
ATOM     23  C   UNL     1       1.954   2.339  20.029  0.00  0.00    +0.000 C 
ATOM     24  C   UNL     1       3.217   1.878  19.309  0.00  0.00    +0.000 C 
ATOM     25  C   UNL     1       2.958   1.791  17.798  0.00  0.00    +0.000 C 
ENDBRANCH  22  24
ENDBRANCH   1  22
TORSDOF 9
ENDMDL
