MODEL 1
REMARK VINA RESULT:      -8.3      0.000      0.000
REMARK  Name = 
REMARK  5 active torsions:
REMARK  status: ('A' for Active; 'I' for Inactive)
REMARK    1  A    between atoms: C_1  and  C_2
REMARK    2  A    between atoms: C_7  and  C_8
REMARK    3  A    between atoms: C_11  and  N_12
REMARK    4  A    between atoms: N_12  and  C_13
REMARK    5  A    between atoms: C_13  and  C_14
REMARK                            x       y       z     vdW  Elec       q    Type
REMARK                         _______ _______ _______ _____ _____    ______ ____
ROOT
ATOM      1  C   UNL     1       7.881   7.895  18.080  0.00  0.00    +0.000 A 
ATOM      2  C   UNL     1       8.266   6.825  18.896  0.00  0.00    +0.000 A 
ATOM      3  C   UNL     1       7.703   5.554  18.724  0.00  0.00    +0.000 A 
ATOM      4  C   UNL     1       6.723   5.323  17.754  0.00  0.00    +0.000 A 
ATOM      5  C   UNL     1       6.379   6.378  16.905  0.00  0.00    +0.000 A 
ATOM      6  C   UNL     1       6.943   7.651  17.071  0.00  0.00    +0.000 A 
ENDROOT
BRANCH   1  13
ATOM      7  C   UNL     1      10.083  14.746  18.318  0.00  0.00    +0.000 C 
ATOM      8  C   UNL     1       9.909  13.297  18.673  0.00  0.00    +0.000 A 
ATOM      9  C   UNL     1      10.543  12.784  19.818  0.00  0.00    +0.000 A 
ATOM     10  C   UNL     1      10.386  11.442  20.171  0.00  0.00    +0.000 A 
ATOM     11  C   UNL     1       9.581  10.724  19.308  0.00  0.00    +0.000 A 
ATOM     12  O   UNL     1       9.232   9.413  19.370  0.00  0.00    +0.000 OA
ATOM     13  C   UNL     1       8.426   9.238  18.268  0.00  0.00    +0.000 A 
ATOM     14  N   UNL     1       8.246  10.324  17.535  0.00  0.00    +0.000 NA
ATOM     15  C   UNL     1       8.978  11.274  18.191  0.00  0.00    +0.000 A 
ATOM     16  N   UNL     1       9.121  12.572  17.839  0.00  0.00    +0.000 NA
ENDBRANCH   1  13
BRANCH   4  17
ATOM     17  N   UNL     1       6.168   4.043  17.686  0.00  0.00    +0.000 N 
ATOM     18  H   UNL     1       6.895   3.332  17.626  0.00  0.00    +0.000 HD
BRANCH  17  19
ATOM     19  C   UNL     1       5.094   3.785  16.725  0.00  0.00    +0.000 C 
BRANCH  19  20
ATOM     20  C   UNL     1       3.766   3.576  17.430  0.00  0.00    +0.000 A 
ATOM     21  C   UNL     1       2.883   4.647  17.583  0.00  0.00    +0.000 A 
ATOM     22  C   UNL     1       1.623   4.415  18.125  0.00  0.00    +0.000 A 
ATOM     23  C   UNL     1       1.276   3.123  18.501  0.00  0.00    +0.000 A 
ATOM     24  C   UNL     1       2.213   2.118  18.332  0.00  0.00    +0.000 A 
ATOM     25  N   UNL     1       3.444   2.311  17.807  0.00  0.00    +0.000 NA
ENDBRANCH  19  20
ENDBRANCH  17  19
ENDBRANCH   4  17
TORSDOF 4
ENDMDL
MODEL 2
REMARK VINA RESULT:      -8.3      5.319      7.494
REMARK  Name = 
REMARK  5 active torsions:
REMARK  status: ('A' for Active; 'I' for Inactive)
REMARK    1  A    between atoms: C_1  and  C_2
REMARK    2  A    between atoms: C_7  and  C_8
REMARK    3  A    between atoms: C_11  and  N_12
REMARK    4  A    between atoms: N_12  and  C_13
REMARK    5  A    between atoms: C_13  and  C_14
REMARK                            x       y       z     vdW  Elec       q    Type
REMARK                         _______ _______ _______ _____ _____    ______ ____
ROOT
ATOM      1  C   UNL     1       2.787   6.924  18.548  0.00  0.00    +0.000 A 
ATOM      2  C   UNL     1       3.762   7.362  17.644  0.00  0.00    +0.000 A 
ATOM      3  C   UNL     1       4.554   6.444  16.944  0.00  0.00    +0.000 A 
ATOM      4  C   UNL     1       4.416   5.068  17.146  0.00  0.00    +0.000 A 
ATOM      5  C   UNL     1       3.406   4.630  18.008  0.00  0.00    +0.000 A 
ATOM      6  C   UNL     1       2.607   5.545  18.708  0.00  0.00    +0.000 A 
ENDROOT
BRANCH   1  13
ATOM      7  C   UNL     1      -1.047  11.048  23.035  0.00  0.00    +0.000 C 
ATOM      8  C   UNL     1      -0.377  10.550  21.786  0.00  0.00    +0.000 A 
ATOM      9  C   UNL     1      -0.459  11.310  20.606  0.00  0.00    +0.000 A 
ATOM     10  C   UNL     1       0.165  10.869  19.438  0.00  0.00    +0.000 A 
ATOM     11  C   UNL     1       0.832   9.667  19.575  0.00  0.00    +0.000 A 
ATOM     12  O   UNL     1       1.533   8.976  18.639  0.00  0.00    +0.000 OA
ATOM     13  C   UNL     1       1.976   7.864  19.319  0.00  0.00    +0.000 A 
ATOM     14  N   UNL     1       1.612   7.810  20.589  0.00  0.00    +0.000 NA
ATOM     15  C   UNL     1       0.884   8.954  20.760  0.00  0.00    +0.000 A 
ATOM     16  N   UNL     1       0.285   9.370  21.898  0.00  0.00    +0.000 NA
ENDBRANCH   1  13
BRANCH   4  17
ATOM     17  N   UNL     1       5.284   4.221  16.455  0.00  0.00    +0.000 N 
ATOM     18  H   UNL     1       5.315   3.298  16.884  0.00  0.00    +0.000 HD
BRANCH  17  19
ATOM     19  C   UNL     1       6.630   4.697  16.127  0.00  0.00    +0.000 C 
BRANCH  19  20
ATOM     20  C   UNL     1       6.910   4.569  14.641  0.00  0.00    +0.000 A 
ATOM     21  C   UNL     1       6.168   3.673  13.867  0.00  0.00    +0.000 A 
ATOM     22  C   UNL     1       6.356   3.652  12.489  0.00  0.00    +0.000 A 
ATOM     23  C   UNL     1       7.278   4.519  11.917  0.00  0.00    +0.000 A 
ATOM     24  C   UNL     1       7.986   5.366  12.755  0.00  0.00    +0.000 A 
ATOM     25  N   UNL     1       7.825   5.413  14.096  0.00  0.00    +0.000 NA
ENDBRANCH  19  20
ENDBRANCH  17  19
ENDBRANCH   4  17
TORSDOF 4
ENDMDL
MODEL 3
REMARK VINA RESULT:      -8.2      0.677      1.257
REMARK  Name = 
REMARK  5 active torsions:
REMARK  status: ('A' for Active; 'I' for Inactive)
REMARK    1  A    between atoms: C_1  and  C_2
REMARK    2  A    between atoms: C_7  and  C_8
REMARK    3  A    between atoms: C_11  and  N_12
REMARK    4  A    between atoms: N_12  and  C_13
REMARK    5  A    between atoms: C_13  and  C_14
REMARK                            x       y       z     vdW  Elec       q    Type
REMARK                         _______ _______ _______ _____ _____    ______ ____
ROOT
ATOM      1  C   UNL     1       7.835   7.923  18.070  0.00  0.00    +0.000 A 
ATOM      2  C   UNL     1       6.871   7.671  17.087  0.00  0.00    +0.000 A 
ATOM      3  C   UNL     1       6.355   6.382  16.904  0.00  0.00    +0.000 A 
ATOM      4  C   UNL     1       6.805   5.307  17.675  0.00  0.00    +0.000 A 
ATOM      5  C   UNL     1       7.727   5.569  18.692  0.00  0.00    +0.000 A 
ATOM      6  C   UNL     1       8.244   6.858  18.882  0.00  0.00    +0.000 A 
ENDROOT
BRANCH   1  13
ATOM      7  C   UNL     1      10.240  14.707  18.274  0.00  0.00    +0.000 C 
ATOM      8  C   UNL     1      10.018  13.268  18.640  0.00  0.00    +0.000 A 
ATOM      9  C   UNL     1      10.619  12.747  19.799  0.00  0.00    +0.000 A 
ATOM     10  C   UNL     1      10.416  11.415  20.163  0.00  0.00    +0.000 A 
ATOM     11  C   UNL     1       9.602  10.712  19.295  0.00  0.00    +0.000 A 
ATOM     12  O   UNL     1       9.212   9.413  19.365  0.00  0.00    +0.000 OA
ATOM     13  C   UNL     1       8.417   9.251  18.253  0.00  0.00    +0.000 A 
ATOM     14  N   UNL     1       8.281  10.335  17.507  0.00  0.00    +0.000 NA
ATOM     15  C   UNL     1       9.032  11.269  18.164  0.00  0.00    +0.000 A 
ATOM     16  N   UNL     1       9.219  12.558  17.802  0.00  0.00    +0.000 NA
ENDBRANCH   1  13
BRANCH   4  17
ATOM     17  N   UNL     1       6.285   4.043  17.391  0.00  0.00    +0.000 N 
ATOM     18  H   UNL     1       6.964   3.471  16.893  0.00  0.00    +0.000 HD
BRANCH  17  19
ATOM     19  C   UNL     1       4.958   3.942  16.778  0.00  0.00    +0.000 C 
BRANCH  19  20
ATOM     20  C   UNL     1       3.925   3.463  17.781  0.00  0.00    +0.000 A 
ATOM     21  C   UNL     1       2.601   3.271  17.379  0.00  0.00    +0.000 A 
ATOM     22  C   UNL     1       1.693   2.721  18.278  0.00  0.00    +0.000 A 
ATOM     23  C   UNL     1       2.125   2.379  19.553  0.00  0.00    +0.000 A 
ATOM     24  C   UNL     1       3.450   2.616  19.881  0.00  0.00    +0.000 A 
ATOM     25  N   UNL     1       4.357   3.146  19.030  0.00  0.00    +0.000 NA
ENDBRANCH  19  20
ENDBRANCH  17  19
ENDBRANCH   4  17
TORSDOF 4
ENDMDL
MODEL 4
REMARK VINA RESULT:      -8.2      5.375      7.489
REMARK  Name = 
REMARK  5 active torsions:
REMARK  status: ('A' for Active; 'I' for Inactive)
REMARK    1  A    between atoms: C_1  and  C_2
REMARK    2  A    between atoms: C_7  and  C_8
REMARK    3  A    between atoms: C_11  and  N_12
REMARK    4  A    between atoms: N_12  and  C_13
REMARK    5  A    between atoms: C_13  and  C_14
REMARK                            x       y       z     vdW  Elec       q    Type
REMARK                         _______ _______ _______ _____ _____    ______ ____
ROOT
ATOM      1  C   UNL     1       2.640   7.251  18.765  0.00  0.00    +0.000 A 
ATOM      2  C   UNL     1       3.398   7.662  17.662  0.00  0.00    +0.000 A 
ATOM      3  C   UNL     1       4.207   6.752  16.970  0.00  0.00    +0.000 A 
ATOM      4  C   UNL     1       4.304   5.417  17.375  0.00  0.00    +0.000 A 
ATOM      5  C   UNL     1       3.505   4.996  18.441  0.00  0.00    +0.000 A 
ATOM      6  C   UNL     1       2.691   5.902  19.135  0.00  0.00    +0.000 A 
ENDROOT
BRANCH   1  13
ATOM      7  C   UNL     1      -1.508  12.312  21.770  0.00  0.00    +0.000 C 
ATOM      8  C   UNL     1      -0.665  11.079  21.606  0.00  0.00    +0.000 A 
ATOM      9  C   UNL     1      -0.473  10.221  22.702  0.00  0.00    +0.000 A 
ATOM     10  C   UNL     1       0.299   9.065  22.567  0.00  0.00    +0.000 A 
ATOM     11  C   UNL     1       0.819   8.881  21.301  0.00  0.00    +0.000 A 
ATOM     12  O   UNL     1       1.601   7.867  20.847  0.00  0.00    +0.000 OA
ATOM     13  C   UNL     1       1.820   8.191  19.526  0.00  0.00    +0.000 A 
ATOM     14  N   UNL     1       1.241   9.311  19.128  0.00  0.00    +0.000 NA
ATOM     15  C   UNL     1       0.602   9.755  20.251  0.00  0.00    +0.000 A 
ATOM     16  N   UNL     1      -0.144  10.877  20.368  0.00  0.00    +0.000 NA
ENDBRANCH   1  13
BRANCH   4  17
ATOM     17  N   UNL     1       5.178   4.588  16.669  0.00  0.00    +0.000 N 
ATOM     18  H   UNL     1       5.285   3.689  17.134  0.00  0.00    +0.000 HD
BRANCH  17  19
ATOM     19  C   UNL     1       6.473   5.121  16.242  0.00  0.00    +0.000 C 
BRANCH  19  20
ATOM     20  C   UNL     1       6.761   4.771  14.793  0.00  0.00    +0.000 A 
ATOM     21  C   UNL     1       5.969   3.826  14.136  0.00  0.00    +0.000 A 
ATOM     22  C   UNL     1       6.169   3.602  12.777  0.00  0.00    +0.000 A 
ATOM     23  C   UNL     1       7.153   4.321  12.110  0.00  0.00    +0.000 A 
ATOM     24  C   UNL     1       7.907   5.228  12.837  0.00  0.00    +0.000 A 
ATOM     25  N   UNL     1       7.735   5.470  14.156  0.00  0.00    +0.000 NA
ENDBRANCH  19  20
ENDBRANCH  17  19
ENDBRANCH   4  17
TORSDOF 4
ENDMDL
MODEL 5
REMARK VINA RESULT:      -8.2      0.959      1.638
REMARK  Name = 
REMARK  5 active torsions:
REMARK  status: ('A' for Active; 'I' for Inactive)
REMARK    1  A    between atoms: C_1  and  C_2
REMARK    2  A    between atoms: C_7  and  C_8
REMARK    3  A    between atoms: C_11  and  N_12
REMARK    4  A    between atoms: N_12  and  C_13
REMARK    5  A    between atoms: C_13  and  C_14
REMARK                            x       y       z     vdW  Elec       q    Type
REMARK                         _______ _______ _______ _____ _____    ______ ____
ROOT
ATOM      1  C   UNL     1       7.890   7.883  18.144  0.00  0.00    +0.000 A 
ATOM      2  C   UNL     1       6.961   7.672  17.119  0.00  0.00    +0.000 A 
ATOM      3  C   UNL     1       6.446   6.393  16.871  0.00  0.00    +0.000 A 
ATOM      4  C   UNL     1       6.864   5.288  17.618  0.00  0.00    +0.000 A 
ATOM      5  C   UNL     1       7.751   5.509  18.675  0.00  0.00    +0.000 A 
ATOM      6  C   UNL     1       8.266   6.788  18.930  0.00  0.00    +0.000 A 
ENDROOT
BRANCH   1  13
ATOM      7  C   UNL     1      11.241  13.986  19.983  0.00  0.00    +0.000 C 
ATOM      8  C   UNL     1      10.335  13.021  19.271  0.00  0.00    +0.000 A 
ATOM      9  C   UNL     1       9.548  13.474  18.198  0.00  0.00    +0.000 A 
ATOM     10  C   UNL     1       8.708  12.592  17.517  0.00  0.00    +0.000 A 
ATOM     11  C   UNL     1       8.742  11.297  17.998  0.00  0.00    +0.000 A 
ATOM     12  O   UNL     1       8.052  10.212  17.559  0.00  0.00    +0.000 OA
ATOM     13  C   UNL     1       8.471   9.200  18.395  0.00  0.00    +0.000 A 
ATOM     14  N   UNL     1       9.357   9.566  19.306  0.00  0.00    +0.000 NA
ATOM     15  C   UNL     1       9.535  10.898  19.059  0.00  0.00    +0.000 A 
ATOM     16  N   UNL     1      10.354  11.743  19.727  0.00  0.00    +0.000 NA
ENDBRANCH   1  13
BRANCH   4  17
ATOM     17  N   UNL     1       6.349   4.038  17.270  0.00  0.00    +0.000 N 
ATOM     18  H   UNL     1       7.082   3.425  16.917  0.00  0.00    +0.000 HD
BRANCH  17  19
ATOM     19  C   UNL     1       5.153   3.973  16.427  0.00  0.00    +0.000 C 
BRANCH  19  20
ATOM     20  C   UNL     1       3.908   3.722  17.258  0.00  0.00    +0.000 A 
ATOM     21  C   UNL     1       3.048   4.780  17.559  0.00  0.00    +0.000 A 
ATOM     22  C   UNL     1       1.853   4.514  18.220  0.00  0.00    +0.000 A 
ATOM     23  C   UNL     1       1.547   3.204  18.566  0.00  0.00    +0.000 A 
ATOM     24  C   UNL     1       2.461   2.213  18.247  0.00  0.00    +0.000 A 
ATOM     25  N   UNL     1       3.628   2.438  17.603  0.00  0.00    +0.000 NA
ENDBRANCH  19  20
ENDBRANCH  17  19
ENDBRANCH   4  17
TORSDOF 4
ENDMDL
MODEL 6
REMARK VINA RESULT:      -8.1      5.303      7.448
REMARK  Name = 
REMARK  5 active torsions:
REMARK  status: ('A' for Active; 'I' for Inactive)
REMARK    1  A    between atoms: C_1  and  C_2
REMARK    2  A    between atoms: C_7  and  C_8
REMARK    3  A    between atoms: C_11  and  N_12
REMARK    4  A    between atoms: N_12  and  C_13
REMARK    5  A    between atoms: C_13  and  C_14
REMARK                            x       y       z     vdW  Elec       q    Type
REMARK                         _______ _______ _______ _____ _____    ______ ____
ROOT
ATOM      1  C   UNL     1       2.717   7.212  18.627  0.00  0.00    +0.000 A 
ATOM      2  C   UNL     1       2.612   5.830  18.823  0.00  0.00    +0.000 A 
ATOM      3  C   UNL     1       3.404   4.940  18.087  0.00  0.00    +0.000 A 
ATOM      4  C   UNL     1       4.299   5.400  17.118  0.00  0.00    +0.000 A 
ATOM      5  C   UNL     1       4.442   6.781  16.960  0.00  0.00    +0.000 A 
ATOM      6  C   UNL     1       3.655   7.677  17.697  0.00  0.00    +0.000 A 
ENDROOT
BRANCH   1  13
ATOM      7  C   UNL     1      -1.576  12.259  21.446  0.00  0.00    +0.000 C 
ATOM      8  C   UNL     1      -0.691  11.051  21.328  0.00  0.00    +0.000 A 
ATOM      9  C   UNL     1      -0.455  10.252  22.461  0.00  0.00    +0.000 A 
ATOM     10  C   UNL     1       0.355   9.120  22.371  0.00  0.00    +0.000 A 
ATOM     11  C   UNL     1       0.868   8.894  21.108  0.00  0.00    +0.000 A 
ATOM     12  O   UNL     1       1.681   7.888  20.691  0.00  0.00    +0.000 OA
ATOM     13  C   UNL     1       1.873   8.157  19.354  0.00  0.00    +0.000 A 
ATOM     14  N   UNL     1       1.249   9.236  18.911  0.00  0.00    +0.000 NA
ATOM     15  C   UNL     1       0.608   9.710  20.021  0.00  0.00    +0.000 A 
ATOM     16  N   UNL     1      -0.177  10.809  20.095  0.00  0.00    +0.000 NA
ENDBRANCH   1  13
BRANCH   4  17
ATOM     17  N   UNL     1       5.008   4.446  16.385  0.00  0.00    +0.000 N 
ATOM     18  H   UNL     1       4.818   3.506  16.728  0.00  0.00    +0.000 HD
BRANCH  17  19
ATOM     19  C   UNL     1       6.441   4.647  16.156  0.00  0.00    +0.000 C 
BRANCH  19  20
ATOM     20  C   UNL     1       6.782   4.534  14.682  0.00  0.00    +0.000 A 
ATOM     21  C   UNL     1       6.065   3.654  13.867  0.00  0.00    +0.000 A 
ATOM     22  C   UNL     1       6.310   3.647  12.498  0.00  0.00    +0.000 A 
ATOM     23  C   UNL     1       7.263   4.513  11.976  0.00  0.00    +0.000 A 
ATOM     24  C   UNL     1       7.943   5.343  12.852  0.00  0.00    +0.000 A 
ATOM     25  N   UNL     1       7.726   5.375  14.186  0.00  0.00    +0.000 NA
ENDBRANCH  19  20
ENDBRANCH  17  19
ENDBRANCH   4  17
TORSDOF 4
ENDMDL
MODEL 7
REMARK VINA RESULT:      -8.1      1.105      1.105
REMARK  Name = 
REMARK  5 active torsions:
REMARK  status: ('A' for Active; 'I' for Inactive)
REMARK    1  A    between atoms: C_1  and  C_2
REMARK    2  A    between atoms: C_7  and  C_8
REMARK    3  A    between atoms: C_11  and  N_12
REMARK    4  A    between atoms: N_12  and  C_13
REMARK    5  A    between atoms: C_13  and  C_14
REMARK                            x       y       z     vdW  Elec       q    Type
REMARK                         _______ _______ _______ _____ _____    ______ ____
ROOT
ATOM      1  C   UNL     1       7.821   7.869  18.080  0.00  0.00    +0.000 A 
ATOM      2  C   UNL     1       8.230   6.800  18.886  0.00  0.00    +0.000 A 
ATOM      3  C   UNL     1       7.648   5.534  18.747  0.00  0.00    +0.000 A 
ATOM      4  C   UNL     1       6.624   5.307  17.823  0.00  0.00    +0.000 A 
ATOM      5  C   UNL     1       6.254   6.359  16.982  0.00  0.00    +0.000 A 
ATOM      6  C   UNL     1       6.837   7.628  17.114  0.00  0.00    +0.000 A 
ENDROOT
BRANCH   1  13
ATOM      7  C   UNL     1      10.091  14.702  18.178  0.00  0.00    +0.000 C 
ATOM      8  C   UNL     1       9.924  13.255  18.547  0.00  0.00    +0.000 A 
ATOM      9  C   UNL     1      10.613  12.739  19.658  0.00  0.00    +0.000 A 
ATOM     10  C   UNL     1      10.464  11.400  20.023  0.00  0.00    +0.000 A 
ATOM     11  C   UNL     1       9.608  10.687  19.206  0.00  0.00    +0.000 A 
ATOM     12  O   UNL     1       9.251   9.378  19.291  0.00  0.00    +0.000 OA
ATOM     13  C   UNL     1       8.386   9.207  18.234  0.00  0.00    +0.000 A 
ATOM     14  N   UNL     1       8.177  10.294  17.508  0.00  0.00    +0.000 NA
ATOM     15  C   UNL     1       8.951  11.238  18.121  0.00  0.00    +0.000 A 
ATOM     16  N   UNL     1       9.086  12.534  17.758  0.00  0.00    +0.000 NA
ENDBRANCH   1  13
BRANCH   4  17
ATOM     17  N   UNL     1       6.055   4.032  17.788  0.00  0.00    +0.000 N 
ATOM     18  H   UNL     1       6.599   3.404  17.200  0.00  0.00    +0.000 HD
BRANCH  17  19
ATOM     19  C   UNL     1       4.622   3.902  17.517  0.00  0.00    +0.000 C 
BRANCH  19  20
ATOM     20  C   UNL     1       3.809   4.015  18.794  0.00  0.00    +0.000 A 
ATOM     21  C   UNL     1       3.090   5.183  19.059  0.00  0.00    +0.000 A 
ATOM     22  C   UNL     1       2.257   5.227  20.173  0.00  0.00    +0.000 A 
ATOM     23  C   UNL     1       2.165   4.109  20.994  0.00  0.00    +0.000 A 
ATOM     24  C   UNL     1       2.923   2.996  20.672  0.00  0.00    +0.000 A 
ATOM     25  N   UNL     1       3.738   2.921  19.596  0.00  0.00    +0.000 NA
ENDBRANCH  19  20
ENDBRANCH  17  19
ENDBRANCH   4  17
TORSDOF 4
ENDMDL
MODEL 8
REMARK VINA RESULT:      -7.9      5.267      7.579
REMARK  Name = 
REMARK  5 active torsions:
REMARK  status: ('A' for Active; 'I' for Inactive)
REMARK    1  A    between atoms: C_1  and  C_2
REMARK    2  A    between atoms: C_7  and  C_8
REMARK    3  A    between atoms: C_11  and  N_12
REMARK    4  A    between atoms: N_12  and  C_13
REMARK    5  A    between atoms: C_13  and  C_14
REMARK                            x       y       z     vdW  Elec       q    Type
REMARK                         _______ _______ _______ _____ _____    ______ ____
ROOT
ATOM      1  C   UNL     1       2.114   7.276  19.656  0.00  0.00    +0.000 A 
ATOM      2  C   UNL     1       2.421   6.100  20.349  0.00  0.00    +0.000 A 
ATOM      3  C   UNL     1       3.152   5.076  19.733  0.00  0.00    +0.000 A 
ATOM      4  C   UNL     1       3.572   5.185  18.405  0.00  0.00    +0.000 A 
ATOM      5  C   UNL     1       3.312   6.382  17.731  0.00  0.00    +0.000 A 
ATOM      6  C   UNL     1       2.584   7.412  18.344  0.00  0.00    +0.000 A 
ENDROOT
BRANCH   1  13
ATOM      7  C   UNL     1      -1.861  12.863  21.856  0.00  0.00    +0.000 C 
ATOM      8  C   UNL     1      -1.083  11.578  21.875  0.00  0.00    +0.000 A 
ATOM      9  C   UNL     1      -0.984  10.846  23.071  0.00  0.00    +0.000 A 
ATOM     10  C   UNL     1      -0.275   9.645  23.108  0.00  0.00    +0.000 A 
ATOM     11  C   UNL     1       0.286   9.286  21.897  0.00  0.00    +0.000 A 
ATOM     12  O   UNL     1       1.028   8.186  21.601  0.00  0.00    +0.000 OA
ATOM     13  C   UNL     1       1.318   8.340  20.264  0.00  0.00    +0.000 A 
ATOM     14  N   UNL     1       0.821   9.434  19.711  0.00  0.00    +0.000 NA
ATOM     15  C   UNL     1       0.162  10.040  20.745  0.00  0.00    +0.000 A 
ATOM     16  N   UNL     1      -0.524  11.205  20.696  0.00  0.00    +0.000 NA
ENDBRANCH   1  13
BRANCH   4  17
ATOM     17  N   UNL     1       4.244   4.097  17.846  0.00  0.00    +0.000 N 
ATOM     18  H   UNL     1       4.532   3.436  18.565  0.00  0.00    +0.000 HD
BRANCH  17  19
ATOM     19  C   UNL     1       5.325   4.344  16.890  0.00  0.00    +0.000 C 
BRANCH  19  20
ATOM     20  C   UNL     1       6.400   5.229  17.494  0.00  0.00    +0.000 A 
ATOM     21  C   UNL     1       6.695   6.463  16.909  0.00  0.00    +0.000 A 
ATOM     22  C   UNL     1       7.597   7.313  17.540  0.00  0.00    +0.000 A 
ATOM     23  C   UNL     1       8.184   6.912  18.734  0.00  0.00    +0.000 A 
ATOM     24  C   UNL     1       7.852   5.667  19.241  0.00  0.00    +0.000 A 
ATOM     25  N   UNL     1       6.977   4.819  18.653  0.00  0.00    +0.000 NA
ENDBRANCH  19  20
ENDBRANCH  17  19
ENDBRANCH   4  17
TORSDOF 4
ENDMDL
MODEL 9
REMARK VINA RESULT:      -7.9      5.258      7.555
REMARK  Name = 
REMARK  5 active torsions:
REMARK  status: ('A' for Active; 'I' for Inactive)
REMARK    1  A    between atoms: C_1  and  C_2
REMARK    2  A    between atoms: C_7  and  C_8
REMARK    3  A    between atoms: C_11  and  N_12
REMARK    4  A    between atoms: N_12  and  C_13
REMARK    5  A    between atoms: C_13  and  C_14
REMARK                            x       y       z     vdW  Elec       q    Type
REMARK                         _______ _______ _______ _____ _____    ______ ____
ROOT
ATOM      1  C   UNL     1       2.037   7.189  19.716  0.00  0.00    +0.000 A 
ATOM      2  C   UNL     1       2.528   7.237  18.406  0.00  0.00    +0.000 A 
ATOM      3  C   UNL     1       3.233   6.154  17.865  0.00  0.00    +0.000 A 
ATOM      4  C   UNL     1       3.491   5.008  18.623  0.00  0.00    +0.000 A 
ATOM      5  C   UNL     1       2.954   4.940  19.911  0.00  0.00    +0.000 A 
ATOM      6  C   UNL     1       2.244   6.019  20.456  0.00  0.00    +0.000 A 
ENDROOT
BRANCH   1  13
ATOM      7  C   UNL     1      -1.332  13.167  21.897  0.00  0.00    +0.000 C 
ATOM      8  C   UNL     1      -0.756  11.780  21.900  0.00  0.00    +0.000 A 
ATOM      9  C   UNL     1      -0.912  10.968  23.037  0.00  0.00    +0.000 A 
ATOM     10  C   UNL     1      -0.393   9.672  23.056  0.00  0.00    +0.000 A 
ATOM     11  C   UNL     1       0.255   9.308  21.892  0.00  0.00    +0.000 A 
ATOM     12  O   UNL     1       0.861   8.129  21.593  0.00  0.00    +0.000 OA
ATOM     13  C   UNL     1       1.334   8.321  20.314  0.00  0.00    +0.000 A 
ATOM     14  N   UNL     1       1.071   9.511  19.799  0.00  0.00    +0.000 NA
ATOM     15  C   UNL     1       0.384  10.144  20.797  0.00  0.00    +0.000 A 
ATOM     16  N   UNL     1      -0.115  11.400  20.765  0.00  0.00    +0.000 NA
ENDBRANCH   1  13
BRANCH   4  17
ATOM     17  N   UNL     1       4.251   3.998  18.031  0.00  0.00    +0.000 N 
ATOM     18  H   UNL     1       4.671   3.395  18.737  0.00  0.00    +0.000 HD
BRANCH  17  19
ATOM     19  C   UNL     1       5.222   4.354  16.994  0.00  0.00    +0.000 C 
BRANCH  19  20
ATOM     20  C   UNL     1       6.321   5.240  17.552  0.00  0.00    +0.000 A 
ATOM     21  C   UNL     1       6.600   6.467  16.946  0.00  0.00    +0.000 A 
ATOM     22  C   UNL     1       7.527   7.319  17.537  0.00  0.00    +0.000 A 
ATOM     23  C   UNL     1       8.155   6.925  18.713  0.00  0.00    +0.000 A 
ATOM     24  C   UNL     1       7.836   5.685  19.242  0.00  0.00    +0.000 A 
ATOM     25  N   UNL     1       6.938   4.837  18.693  0.00  0.00    +0.000 NA
ENDBRANCH  19  20
ENDBRANCH  17  19
ENDBRANCH   4  17
TORSDOF 4
ENDMDL
