MODEL 1
REMARK VINA RESULT:      -7.6      0.000      0.000
REMARK  Name = 
REMARK  10 active torsions:
REMARK  status: ('A' for Active; 'I' for Inactive)
REMARK    1  A    between atoms: C_1  and  C_2
REMARK    2  A    between atoms: C_2  and  C_3
REMARK    3  A    between atoms: C_3  and  C_4
REMARK    4  A    between atoms: C_4  and  C_5
REMARK    5  A    between atoms: C_5  and  N_6
REMARK    6  A    between atoms: C_7  and  C_8
REMARK    7  A    between atoms: C_11  and  O_12
REMARK    8  A    between atoms: O_12  and  C_13
REMARK    9  A    between atoms: C_14  and  O_15
REMARK   10  A    between atoms: O_15  and  C_16
REMARK                            x       y       z     vdW  Elec       q    Type
REMARK                         _______ _______ _______ _____ _____    ______ ____
ROOT
ATOM      1  N   UNL     1       2.995   4.705  18.579  0.00  0.00    +0.000 N 
ATOM      2  C   UNL     1       4.245   4.176  18.271  0.00  0.00    +0.000 A 
ATOM      3  N   UNL     1       4.509   3.160  19.077  0.00  0.00    +0.000 NA
ATOM      4  C   UNL     1       3.466   3.078  19.962  0.00  0.00    +0.000 A 
ATOM      5  C   UNL     1       3.262   2.184  21.025  0.00  0.00    +0.000 A 
ATOM      6  C   UNL     1       2.110   2.317  21.812  0.00  0.00    +0.000 A 
ATOM      7  C   UNL     1       1.173   3.315  21.540  0.00  0.00    +0.000 A 
ATOM      8  C   UNL     1       1.355   4.202  20.478  0.00  0.00    +0.000 A 
ATOM      9  C   UNL     1       2.514   4.052  19.699  0.00  0.00    +0.000 A 
ENDROOT
BRANCH   2  10
ATOM     10  C   UNL     1       5.123   4.583  17.159  0.00  0.00    +0.000 A 
ATOM     11  C   UNL     1       5.115   3.929  15.924  0.00  0.00    +0.000 A 
ATOM     12  C   UNL     1       6.072   4.218  14.950  0.00  0.00    +0.000 A 
ATOM     13  C   UNL     1       7.015   5.225  15.162  0.00  0.00    +0.000 A 
ATOM     14  C   UNL     1       6.967   5.974  16.355  0.00  0.00    +0.000 A 
ATOM     15  C   UNL     1       6.025   5.644  17.341  0.00  0.00    +0.000 A 
BRANCH  13  16
ATOM     16  O   UNL     1       8.003   5.552  14.267  0.00  0.00    +0.000 OA
ATOM     17  C   UNL     1       7.790   5.207  12.905  0.00  0.00    +0.000 C 
ENDBRANCH  13  16
BRANCH  14  18
ATOM     18  O   UNL     1       7.896   6.979  16.467  0.00  0.00    +0.000 OA
ATOM     19  C   UNL     1       7.747   7.899  17.538  0.00  0.00    +0.000 C 
ENDBRANCH  14  18
ENDBRANCH   2  10
BRANCH   1  20
ATOM     20  C   UNL     1       2.251   5.721  17.856  0.00  0.00    +0.000 C 
BRANCH  20  21
ATOM     21  C   UNL     1       2.822   7.141  17.926  0.00  0.00    +0.000 C 
BRANCH  21  22
ATOM     22  C   UNL     1       1.927   8.104  18.705  0.00  0.00    +0.000 C 
BRANCH  22  24
ATOM     23  C   UNL     1       0.661  10.266  18.507  0.00  0.00    +0.000 C 
ATOM     24  C   UNL     1       1.832   9.450  17.990  0.00  0.00    +0.000 C 
ENDBRANCH  22  24
ENDBRANCH  21  22
ENDBRANCH  20  21
ENDBRANCH   1  20
TORSDOF 7
ENDMDL
MODEL 2
REMARK VINA RESULT:      -7.4      1.915      4.709
REMARK  Name = 
REMARK  10 active torsions:
REMARK  status: ('A' for Active; 'I' for Inactive)
REMARK    1  A    between atoms: C_1  and  C_2
REMARK    2  A    between atoms: C_2  and  C_3
REMARK    3  A    between atoms: C_3  and  C_4
REMARK    4  A    between atoms: C_4  and  C_5
REMARK    5  A    between atoms: C_5  and  N_6
REMARK    6  A    between atoms: C_7  and  C_8
REMARK    7  A    between atoms: C_11  and  O_12
REMARK    8  A    between atoms: O_12  and  C_13
REMARK    9  A    between atoms: C_14  and  O_15
REMARK   10  A    between atoms: O_15  and  C_16
REMARK                            x       y       z     vdW  Elec       q    Type
REMARK                         _______ _______ _______ _____ _____    ______ ____
ROOT
ATOM      1  N   UNL     1       2.006   6.947  20.004  0.00  0.00    +0.000 N 
ATOM      2  C   UNL     1       2.539   7.269  18.760  0.00  0.00    +0.000 A 
ATOM      3  N   UNL     1       2.186   8.502  18.429  0.00  0.00    +0.000 NA
ATOM      4  C   UNL     1       1.357   8.953  19.422  0.00  0.00    +0.000 A 
ATOM      5  C   UNL     1       0.702  10.189  19.549  0.00  0.00    +0.000 A 
ATOM      6  C   UNL     1      -0.121  10.409  20.662  0.00  0.00    +0.000 A 
ATOM      7  C   UNL     1      -0.282   9.422  21.636  0.00  0.00    +0.000 A 
ATOM      8  C   UNL     1       0.374   8.194  21.531  0.00  0.00    +0.000 A 
ATOM      9  C   UNL     1       1.197   7.992  20.411  0.00  0.00    +0.000 A 
ENDROOT
BRANCH   2  10
ATOM     10  C   UNL     1       3.450   6.439  17.951  0.00  0.00    +0.000 A 
ATOM     11  C   UNL     1       3.132   5.131  17.575  0.00  0.00    +0.000 A 
ATOM     12  C   UNL     1       4.077   4.308  16.960  0.00  0.00    +0.000 A 
ATOM     13  C   UNL     1       5.342   4.802  16.640  0.00  0.00    +0.000 A 
ATOM     14  C   UNL     1       5.643   6.152  16.908  0.00  0.00    +0.000 A 
ATOM     15  C   UNL     1       4.697   6.955  17.562  0.00  0.00    +0.000 A 
BRANCH  13  16
ATOM     16  O   UNL     1       6.335   4.052  16.060  0.00  0.00    +0.000 OA
ATOM     17  C   UNL     1       6.258   3.842  14.657  0.00  0.00    +0.000 C 
ENDBRANCH  13  16
BRANCH  14  18
ATOM     18  O   UNL     1       6.890   6.575  16.518  0.00  0.00    +0.000 OA
ATOM     19  C   UNL     1       7.580   7.475  17.373  0.00  0.00    +0.000 C 
ENDBRANCH  14  18
ENDBRANCH   2  10
BRANCH   1  20
ATOM     20  C   UNL     1       2.263   5.767  20.810  0.00  0.00    +0.000 C 
BRANCH  20  21
ATOM     21  C   UNL     1       1.305   4.592  20.594  0.00  0.00    +0.000 C 
BRANCH  21  22
ATOM     22  C   UNL     1       1.902   3.251  21.020  0.00  0.00    +0.000 C 
BRANCH  22  24
ATOM     23  C   UNL     1       0.773   2.668  18.851  0.00  0.00    +0.000 C 
ATOM     24  C   UNL     1       1.784   2.226  19.894  0.00  0.00    +0.000 C 
ENDBRANCH  22  24
ENDBRANCH  21  22
ENDBRANCH  20  21
ENDBRANCH   1  20
TORSDOF 7
ENDMDL
MODEL 3
REMARK VINA RESULT:      -7.3      2.639      6.770
REMARK  Name = 
REMARK  10 active torsions:
REMARK  status: ('A' for Active; 'I' for Inactive)
REMARK    1  A    between atoms: C_1  and  C_2
REMARK    2  A    between atoms: C_2  and  C_3
REMARK    3  A    between atoms: C_3  and  C_4
REMARK    4  A    between atoms: C_4  and  C_5
REMARK    5  A    between atoms: C_5  and  N_6
REMARK    6  A    between atoms: C_7  and  C_8
REMARK    7  A    between atoms: C_11  and  O_12
REMARK    8  A    between atoms: O_12  and  C_13
REMARK    9  A    between atoms: C_14  and  O_15
REMARK   10  A    between atoms: O_15  and  C_16
REMARK                            x       y       z     vdW  Elec       q    Type
REMARK                         _______ _______ _______ _____ _____    ______ ____
ROOT
ATOM      1  N   UNL     1       6.474   5.110  16.137  0.00  0.00    +0.000 N 
ATOM      2  C   UNL     1       5.246   4.519  16.418  0.00  0.00    +0.000 A 
ATOM      3  N   UNL     1       4.803   3.881  15.346  0.00  0.00    +0.000 NA
ATOM      4  C   UNL     1       5.705   4.123  14.344  0.00  0.00    +0.000 A 
ATOM      5  C   UNL     1       5.698   3.688  13.009  0.00  0.00    +0.000 A 
ATOM      6  C   UNL     1       6.737   4.092  12.159  0.00  0.00    +0.000 A 
ATOM      7  C   UNL     1       7.769   4.905  12.630  0.00  0.00    +0.000 A 
ATOM      8  C   UNL     1       7.797   5.333  13.958  0.00  0.00    +0.000 A 
ATOM      9  C   UNL     1       6.750   4.917  14.796  0.00  0.00    +0.000 A 
ENDROOT
BRANCH   2  10
ATOM     10  C   UNL     1       4.561   4.491  17.723  0.00  0.00    +0.000 A 
ATOM     11  C   UNL     1       4.601   3.377  18.564  0.00  0.00    +0.000 A 
ATOM     12  C   UNL     1       3.806   3.310  19.710  0.00  0.00    +0.000 A 
ATOM     13  C   UNL     1       3.007   4.392  20.080  0.00  0.00    +0.000 A 
ATOM     14  C   UNL     1       3.039   5.569  19.306  0.00  0.00    +0.000 A 
ATOM     15  C   UNL     1       3.812   5.606  18.136  0.00  0.00    +0.000 A 
BRANCH  13  16
ATOM     16  O   UNL     1       2.178   4.395  21.174  0.00  0.00    +0.000 OA
ATOM     17  C   UNL     1       1.757   3.134  21.677  0.00  0.00    +0.000 C 
ENDBRANCH  13  16
BRANCH  14  18
ATOM     18  O   UNL     1       2.263   6.606  19.763  0.00  0.00    +0.000 OA
ATOM     19  C   UNL     1       2.217   7.790  18.981  0.00  0.00    +0.000 C 
ENDBRANCH  14  18
ENDBRANCH   2  10
BRANCH   1  20
ATOM     20  C   UNL     1       7.379   5.773  17.059  0.00  0.00    +0.000 C 
BRANCH  20  21
ATOM     21  C   UNL     1       7.117   7.264  17.294  0.00  0.00    +0.000 C 
BRANCH  21  22
ATOM     22  C   UNL     1       8.143   7.910  18.223  0.00  0.00    +0.000 C 
BRANCH  22  24
ATOM     23  C   UNL     1       9.110  10.100  18.986  0.00  0.00    +0.000 C 
ATOM     24  C   UNL     1       8.272   9.403  17.929  0.00  0.00    +0.000 C 
ENDBRANCH  22  24
ENDBRANCH  21  22
ENDBRANCH  20  21
ENDBRANCH   1  20
TORSDOF 7
ENDMDL
MODEL 4
REMARK VINA RESULT:      -7.2      3.107      6.961
REMARK  Name = 
REMARK  10 active torsions:
REMARK  status: ('A' for Active; 'I' for Inactive)
REMARK    1  A    between atoms: C_1  and  C_2
REMARK    2  A    between atoms: C_2  and  C_3
REMARK    3  A    between atoms: C_3  and  C_4
REMARK    4  A    between atoms: C_4  and  C_5
REMARK    5  A    between atoms: C_5  and  N_6
REMARK    6  A    between atoms: C_7  and  C_8
REMARK    7  A    between atoms: C_11  and  O_12
REMARK    8  A    between atoms: O_12  and  C_13
REMARK    9  A    between atoms: C_14  and  O_15
REMARK   10  A    between atoms: O_15  and  C_16
REMARK                            x       y       z     vdW  Elec       q    Type
REMARK                         _______ _______ _______ _____ _____    ______ ____
ROOT
ATOM      1  N   UNL     1       3.593   5.330  18.010  0.00  0.00    +0.000 N 
ATOM      2  C   UNL     1       3.432   6.712  17.991  0.00  0.00    +0.000 A 
ATOM      3  N   UNL     1       4.106   7.226  16.974  0.00  0.00    +0.000 NA
ATOM      4  C   UNL     1       4.770   6.186  16.378  0.00  0.00    +0.000 A 
ATOM      5  C   UNL     1       5.631   6.192  15.268  0.00  0.00    +0.000 A 
ATOM      6  C   UNL     1       6.213   4.987  14.856  0.00  0.00    +0.000 A 
ATOM      7  C   UNL     1       5.938   3.795  15.527  0.00  0.00    +0.000 A 
ATOM      8  C   UNL     1       5.073   3.771  16.623  0.00  0.00    +0.000 A 
ATOM      9  C   UNL     1       4.496   4.987  17.021  0.00  0.00    +0.000 A 
ENDROOT
BRANCH   2  10
ATOM     10  C   UNL     1       2.567   7.510  18.879  0.00  0.00    +0.000 A 
ATOM     11  C   UNL     1       2.235   7.091  20.170  0.00  0.00    +0.000 A 
ATOM     12  C   UNL     1       1.280   7.774  20.925  0.00  0.00    +0.000 A 
ATOM     13  C   UNL     1       0.689   8.938  20.433  0.00  0.00    +0.000 A 
ATOM     14  C   UNL     1       1.096   9.440  19.180  0.00  0.00    +0.000 A 
ATOM     15  C   UNL     1       2.027   8.721  18.416  0.00  0.00    +0.000 A 
BRANCH  13  16
ATOM     16  O   UNL     1      -0.275   9.652  21.100  0.00  0.00    +0.000 OA
ATOM     17  C   UNL     1      -0.008  10.003  22.452  0.00  0.00    +0.000 C 
ENDBRANCH  13  16
BRANCH  14  18
ATOM     18  O   UNL     1       0.505  10.616  18.788  0.00  0.00    +0.000 OA
ATOM     19  C   UNL     1       1.324  11.774  18.714  0.00  0.00    +0.000 C 
ENDBRANCH  14  18
ENDBRANCH   2  10
BRANCH   1  20
ATOM     20  C   UNL     1       2.915   4.362  18.853  0.00  0.00    +0.000 C 
BRANCH  20  21
ATOM     21  C   UNL     1       1.666   3.712  18.249  0.00  0.00    +0.000 C 
BRANCH  21  22
ATOM     22  C   UNL     1       0.797   3.012  19.292  0.00  0.00    +0.000 C 
BRANCH  22  24
ATOM     23  C   UNL     1       1.560   2.556  21.643  0.00  0.00    +0.000 C 
ATOM     24  C   UNL     1       1.035   3.605  20.680  0.00  0.00    +0.000 C 
ENDBRANCH  22  24
ENDBRANCH  21  22
ENDBRANCH  20  21
ENDBRANCH   1  20
TORSDOF 7
ENDMDL
MODEL 5
REMARK VINA RESULT:      -7.1      3.224      6.822
REMARK  Name = 
REMARK  10 active torsions:
REMARK  status: ('A' for Active; 'I' for Inactive)
REMARK    1  A    between atoms: C_1  and  C_2
REMARK    2  A    between atoms: C_2  and  C_3
REMARK    3  A    between atoms: C_3  and  C_4
REMARK    4  A    between atoms: C_4  and  C_5
REMARK    5  A    between atoms: C_5  and  N_6
REMARK    6  A    between atoms: C_7  and  C_8
REMARK    7  A    between atoms: C_11  and  O_12
REMARK    8  A    between atoms: O_12  and  C_13
REMARK    9  A    between atoms: C_14  and  O_15
REMARK   10  A    between atoms: O_15  and  C_16
REMARK                            x       y       z     vdW  Elec       q    Type
REMARK                         _______ _______ _______ _____ _____    ______ ____
ROOT
ATOM      1  N   UNL     1       3.106   5.541  17.598  0.00  0.00    +0.000 N 
ATOM      2  C   UNL     1       3.305   6.881  17.912  0.00  0.00    +0.000 A 
ATOM      3  N   UNL     1       4.516   7.254  17.530  0.00  0.00    +0.000 NA
ATOM      4  C   UNL     1       5.135   6.135  17.039  0.00  0.00    +0.000 A 
ATOM      5  C   UNL     1       6.430   5.984  16.518  0.00  0.00    +0.000 A 
ATOM      6  C   UNL     1       6.846   4.715  16.092  0.00  0.00    +0.000 A 
ATOM      7  C   UNL     1       5.987   3.619  16.173  0.00  0.00    +0.000 A 
ATOM      8  C   UNL     1       4.691   3.756  16.675  0.00  0.00    +0.000 A 
ATOM      9  C   UNL     1       4.291   5.035  17.095  0.00  0.00    +0.000 A 
ENDROOT
BRANCH   2  10
ATOM     10  C   UNL     1       2.310   7.808  18.483  0.00  0.00    +0.000 A 
ATOM     11  C   UNL     1       1.715   8.822  17.729  0.00  0.00    +0.000 A 
ATOM     12  C   UNL     1       0.910   9.790  18.332  0.00  0.00    +0.000 A 
ATOM     13  C   UNL     1       0.623   9.722  19.695  0.00  0.00    +0.000 A 
ATOM     14  C   UNL     1       1.122   8.643  20.451  0.00  0.00    +0.000 A 
ATOM     15  C   UNL     1       1.961   7.699  19.840  0.00  0.00    +0.000 A 
BRANCH  13  16
ATOM     16  O   UNL     1      -0.136  10.648  20.368  0.00  0.00    +0.000 OA
ATOM     17  C   UNL     1       0.291  12.003  20.314  0.00  0.00    +0.000 C 
ENDBRANCH  13  16
BRANCH  14  18
ATOM     18  O   UNL     1       0.754   8.620  21.775  0.00  0.00    +0.000 OA
ATOM     19  C   UNL     1       1.645   9.197  22.717  0.00  0.00    +0.000 C 
ENDBRANCH  14  18
ENDBRANCH   2  10
BRANCH   1  20
ATOM     20  C   UNL     1       1.880   4.770  17.699  0.00  0.00    +0.000 C 
BRANCH  20  21
ATOM     21  C   UNL     1       1.859   3.692  18.788  0.00  0.00    +0.000 C 
BRANCH  21  22
ATOM     22  C   UNL     1       1.108   4.130  20.044  0.00  0.00    +0.000 C 
BRANCH  22  24
ATOM     23  C   UNL     1       2.117   2.642  21.801  0.00  0.00    +0.000 C 
ATOM     24  C   UNL     1       2.019   4.061  21.269  0.00  0.00    +0.000 C 
ENDBRANCH  22  24
ENDBRANCH  21  22
ENDBRANCH  20  21
ENDBRANCH   1  20
TORSDOF 7
ENDMDL
MODEL 6
REMARK VINA RESULT:      -6.9      3.404      7.380
REMARK  Name = 
REMARK  10 active torsions:
REMARK  status: ('A' for Active; 'I' for Inactive)
REMARK    1  A    between atoms: C_1  and  C_2
REMARK    2  A    between atoms: C_2  and  C_3
REMARK    3  A    between atoms: C_3  and  C_4
REMARK    4  A    between atoms: C_4  and  C_5
REMARK    5  A    between atoms: C_5  and  N_6
REMARK    6  A    between atoms: C_7  and  C_8
REMARK    7  A    between atoms: C_11  and  O_12
REMARK    8  A    between atoms: O_12  and  C_13
REMARK    9  A    between atoms: C_14  and  O_15
REMARK   10  A    between atoms: O_15  and  C_16
REMARK                            x       y       z     vdW  Elec       q    Type
REMARK                         _______ _______ _______ _____ _____    ______ ____
ROOT
ATOM      1  N   UNL     1       3.078   5.683  18.305  0.00  0.00    +0.000 N 
ATOM      2  C   UNL     1       3.008   7.073  18.342  0.00  0.00    +0.000 A 
ATOM      3  N   UNL     1       3.760   7.583  17.380  0.00  0.00    +0.000 NA
ATOM      4  C   UNL     1       4.382   6.528  16.766  0.00  0.00    +0.000 A 
ATOM      5  C   UNL     1       5.291   6.523  15.696  0.00  0.00    +0.000 A 
ATOM      6  C   UNL     1       5.812   5.300  15.254  0.00  0.00    +0.000 A 
ATOM      7  C   UNL     1       5.430   4.102  15.859  0.00  0.00    +0.000 A 
ATOM      8  C   UNL     1       4.515   4.089  16.914  0.00  0.00    +0.000 A 
ATOM      9  C   UNL     1       4.001   5.323  17.342  0.00  0.00    +0.000 A 
ENDROOT
BRANCH   2  10
ATOM     10  C   UNL     1       2.157   7.888  19.229  0.00  0.00    +0.000 A 
ATOM     11  C   UNL     1       1.944   7.558  20.570  0.00  0.00    +0.000 A 
ATOM     12  C   UNL     1       1.002   8.243  21.339  0.00  0.00    +0.000 A 
ATOM     13  C   UNL     1       0.303   9.325  20.803  0.00  0.00    +0.000 A 
ATOM     14  C   UNL     1       0.586   9.745  19.488  0.00  0.00    +0.000 A 
ATOM     15  C   UNL     1       1.507   9.021  18.714  0.00  0.00    +0.000 A 
BRANCH  13  16
ATOM     16  O   UNL     1      -0.657  10.032  21.483  0.00  0.00    +0.000 OA
ATOM     17  C   UNL     1      -0.537  10.100  22.898  0.00  0.00    +0.000 C 
ENDBRANCH  13  16
BRANCH  14  18
ATOM     18  O   UNL     1      -0.107  10.847  19.050  0.00  0.00    +0.000 OA
ATOM     19  C   UNL     1      -1.155  10.638  18.114  0.00  0.00    +0.000 C 
ENDBRANCH  14  18
ENDBRANCH   2  10
BRANCH   1  20
ATOM     20  C   UNL     1       2.300   4.728  19.074  0.00  0.00    +0.000 C 
BRANCH  20  21
ATOM     21  C   UNL     1       1.237   3.951  18.291  0.00  0.00    +0.000 C 
BRANCH  21  22
ATOM     22  C   UNL     1       1.311   2.443  18.522  0.00  0.00    +0.000 C 
BRANCH  22  24
ATOM     23  C   UNL     1       3.540   1.284  18.571  0.00  0.00    +0.000 C 
ATOM     24  C   UNL     1       2.530   2.086  19.371  0.00  0.00    +0.000 C 
ENDBRANCH  22  24
ENDBRANCH  21  22
ENDBRANCH  20  21
ENDBRANCH   1  20
TORSDOF 7
ENDMDL
MODEL 7
REMARK VINA RESULT:      -6.9      2.130      5.230
REMARK  Name = 
REMARK  10 active torsions:
REMARK  status: ('A' for Active; 'I' for Inactive)
REMARK    1  A    between atoms: C_1  and  C_2
REMARK    2  A    between atoms: C_2  and  C_3
REMARK    3  A    between atoms: C_3  and  C_4
REMARK    4  A    between atoms: C_4  and  C_5
REMARK    5  A    between atoms: C_5  and  N_6
REMARK    6  A    between atoms: C_7  and  C_8
REMARK    7  A    between atoms: C_11  and  O_12
REMARK    8  A    between atoms: O_12  and  C_13
REMARK    9  A    between atoms: C_14  and  O_15
REMARK   10  A    between atoms: O_15  and  C_16
REMARK                            x       y       z     vdW  Elec       q    Type
REMARK                         _______ _______ _______ _____ _____    ______ ____
ROOT
ATOM      1  N   UNL     1       2.281   7.454  19.442  0.00  0.00    +0.000 N 
ATOM      2  C   UNL     1       2.785   7.508  18.146  0.00  0.00    +0.000 A 
ATOM      3  N   UNL     1       2.390   8.626  17.559  0.00  0.00    +0.000 NA
ATOM      4  C   UNL     1       1.563   9.264  18.445  0.00  0.00    +0.000 A 
ATOM      5  C   UNL     1       0.872  10.479  18.310  0.00  0.00    +0.000 A 
ATOM      6  C   UNL     1       0.059  10.917  19.364  0.00  0.00    +0.000 A 
ATOM      7  C   UNL     1      -0.057  10.167  20.535  0.00  0.00    +0.000 A 
ATOM      8  C   UNL     1       0.635   8.964  20.690  0.00  0.00    +0.000 A 
ATOM      9  C   UNL     1       1.447   8.542  19.625  0.00  0.00    +0.000 A 
ENDROOT
BRANCH   2  10
ATOM     10  C   UNL     1       3.709   6.543  17.521  0.00  0.00    +0.000 A 
ATOM     11  C   UNL     1       4.740   6.942  16.667  0.00  0.00    +0.000 A 
ATOM     12  C   UNL     1       5.488   6.004  15.954  0.00  0.00    +0.000 A 
ATOM     13  C   UNL     1       5.271   4.638  16.138  0.00  0.00    +0.000 A 
ATOM     14  C   UNL     1       4.313   4.214  17.081  0.00  0.00    +0.000 A 
ATOM     15  C   UNL     1       3.541   5.169  17.760  0.00  0.00    +0.000 A 
BRANCH  13  16
ATOM     16  O   UNL     1       5.945   3.654  15.458  0.00  0.00    +0.000 OA
ATOM     17  C   UNL     1       6.244   3.896  14.090  0.00  0.00    +0.000 C 
ENDBRANCH  13  16
BRANCH  14  18
ATOM     18  O   UNL     1       4.193   2.855  17.241  0.00  0.00    +0.000 OA
ATOM     19  C   UNL     1       2.920   2.344  17.607  0.00  0.00    +0.000 C 
ENDBRANCH  14  18
ENDBRANCH   2  10
BRANCH   1  20
ATOM     20  C   UNL     1       2.586   6.489  20.482  0.00  0.00    +0.000 C 
BRANCH  20  21
ATOM     21  C   UNL     1       1.656   5.274  20.556  0.00  0.00    +0.000 C 
BRANCH  21  22
ATOM     22  C   UNL     1       2.217   4.147  21.422  0.00  0.00    +0.000 C 
BRANCH  22  24
ATOM     23  C   UNL     1       0.496   2.993  20.000  0.00  0.00    +0.000 C 
ATOM     24  C   UNL     1       1.505   2.830  21.123  0.00  0.00    +0.000 C 
ENDBRANCH  22  24
ENDBRANCH  21  22
ENDBRANCH  20  21
ENDBRANCH   1  20
TORSDOF 7
ENDMDL
MODEL 8
REMARK VINA RESULT:      -6.9      3.097      7.021
REMARK  Name = 
REMARK  10 active torsions:
REMARK  status: ('A' for Active; 'I' for Inactive)
REMARK    1  A    between atoms: C_1  and  C_2
REMARK    2  A    between atoms: C_2  and  C_3
REMARK    3  A    between atoms: C_3  and  C_4
REMARK    4  A    between atoms: C_4  and  C_5
REMARK    5  A    between atoms: C_5  and  N_6
REMARK    6  A    between atoms: C_7  and  C_8
REMARK    7  A    between atoms: C_11  and  O_12
REMARK    8  A    between atoms: O_12  and  C_13
REMARK    9  A    between atoms: C_14  and  O_15
REMARK   10  A    between atoms: O_15  and  C_16
REMARK                            x       y       z     vdW  Elec       q    Type
REMARK                         _______ _______ _______ _____ _____    ______ ____
ROOT
ATOM      1  N   UNL     1       3.040   5.490  17.706  0.00  0.00    +0.000 N 
ATOM      2  C   UNL     1       3.322   6.764  18.188  0.00  0.00    +0.000 A 
ATOM      3  N   UNL     1       4.511   7.152  17.756  0.00  0.00    +0.000 NA
ATOM      4  C   UNL     1       5.039   6.097  17.058  0.00  0.00    +0.000 A 
ATOM      5  C   UNL     1       6.278   5.984  16.408  0.00  0.00    +0.000 A 
ATOM      6  C   UNL     1       6.602   4.779  15.771  0.00  0.00    +0.000 A 
ATOM      7  C   UNL     1       5.707   3.708  15.773  0.00  0.00    +0.000 A 
ATOM      8  C   UNL     1       4.465   3.810  16.403  0.00  0.00    +0.000 A 
ATOM      9  C   UNL     1       4.156   5.027  17.033  0.00  0.00    +0.000 A 
ENDROOT
BRANCH   2  10
ATOM     10  C   UNL     1       2.419   7.628  18.971  0.00  0.00    +0.000 A 
ATOM     11  C   UNL     1       2.156   7.402  20.324  0.00  0.00    +0.000 A 
ATOM     12  C   UNL     1       1.169   8.124  20.997  0.00  0.00    +0.000 A 
ATOM     13  C   UNL     1       0.473   9.144  20.347  0.00  0.00    +0.000 A 
ATOM     14  C   UNL     1       0.804   9.464  19.015  0.00  0.00    +0.000 A 
ATOM     15  C   UNL     1       1.770   8.702  18.340  0.00  0.00    +0.000 A 
BRANCH  13  16
ATOM     16  O   UNL     1      -0.528   9.882  20.929  0.00  0.00    +0.000 OA
ATOM     17  C   UNL     1      -0.235  10.517  22.167  0.00  0.00    +0.000 C 
ENDBRANCH  13  16
BRANCH  14  18
ATOM     18  O   UNL     1       0.109  10.512  18.463  0.00  0.00    +0.000 OA
ATOM     19  C   UNL     1      -1.058  10.208  17.713  0.00  0.00    +0.000 C 
ENDBRANCH  14  18
ENDBRANCH   2  10
BRANCH   1  20
ATOM     20  C   UNL     1       1.795   4.750  17.806  0.00  0.00    +0.000 C 
BRANCH  20  21
ATOM     21  C   UNL     1       1.548   4.041  19.142  0.00  0.00    +0.000 C 
BRANCH  21  22
ATOM     22  C   UNL     1       2.780   3.301  19.659  0.00  0.00    +0.000 C 
BRANCH  22  24
ATOM     23  C   UNL     1       1.361   2.685  21.640  0.00  0.00    +0.000 C 
ATOM     24  C   UNL     1       2.727   3.161  21.179  0.00  0.00    +0.000 C 
ENDBRANCH  22  24
ENDBRANCH  21  22
ENDBRANCH  20  21
ENDBRANCH   1  20
TORSDOF 7
ENDMDL
MODEL 9
REMARK VINA RESULT:      -6.9      3.611      7.541
REMARK  Name = 
REMARK  10 active torsions:
REMARK  status: ('A' for Active; 'I' for Inactive)
REMARK    1  A    between atoms: C_1  and  C_2
REMARK    2  A    between atoms: C_2  and  C_3
REMARK    3  A    between atoms: C_3  and  C_4
REMARK    4  A    between atoms: C_4  and  C_5
REMARK    5  A    between atoms: C_5  and  N_6
REMARK    6  A    between atoms: C_7  and  C_8
REMARK    7  A    between atoms: C_11  and  O_12
REMARK    8  A    between atoms: O_12  and  C_13
REMARK    9  A    between atoms: C_14  and  O_15
REMARK   10  A    between atoms: O_15  and  C_16
REMARK                            x       y       z     vdW  Elec       q    Type
REMARK                         _______ _______ _______ _____ _____    ______ ____
ROOT
ATOM      1  N   UNL     1       2.921   6.089  19.425  0.00  0.00    +0.000 N 
ATOM      2  C   UNL     1       2.619   7.402  19.077  0.00  0.00    +0.000 A 
ATOM      3  N   UNL     1       3.169   7.692  17.909  0.00  0.00    +0.000 NA
ATOM      4  C   UNL     1       3.897   6.593  17.534  0.00  0.00    +0.000 A 
ATOM      5  C   UNL     1       4.679   6.386  16.386  0.00  0.00    +0.000 A 
ATOM      6  C   UNL     1       5.354   5.167  16.236  0.00  0.00    +0.000 A 
ATOM      7  C   UNL     1       5.246   4.169  17.205  0.00  0.00    +0.000 A 
ATOM      8  C   UNL     1       4.461   4.354  18.345  0.00  0.00    +0.000 A 
ATOM      9  C   UNL     1       3.789   5.581  18.477  0.00  0.00    +0.000 A 
ENDROOT
BRANCH   2  10
ATOM     10  C   UNL     1       1.736   8.326  19.812  0.00  0.00    +0.000 A 
ATOM     11  C   UNL     1       1.465   8.175  21.175  0.00  0.00    +0.000 A 
ATOM     12  C   UNL     1       0.496   8.955  21.807  0.00  0.00    +0.000 A 
ATOM     13  C   UNL     1      -0.174   9.958  21.105  0.00  0.00    +0.000 A 
ATOM     14  C   UNL     1       0.167  10.202  19.760  0.00  0.00    +0.000 A 
ATOM     15  C   UNL     1       1.115   9.383  19.127  0.00  0.00    +0.000 A 
BRANCH  13  16
ATOM     16  O   UNL     1      -1.157  10.748  21.646  0.00  0.00    +0.000 OA
ATOM     17  C   UNL     1      -1.153  10.921  23.057  0.00  0.00    +0.000 C 
ENDBRANCH  13  16
BRANCH  14  18
ATOM     18  O   UNL     1      -0.501  11.237  19.153  0.00  0.00    +0.000 OA
ATOM     19  C   UNL     1      -1.407  10.916  18.108  0.00  0.00    +0.000 C 
ENDBRANCH  14  18
ENDBRANCH   2  10
BRANCH   1  20
ATOM     20  C   UNL     1       2.402   5.317  20.539  0.00  0.00    +0.000 C 
BRANCH  20  21
ATOM     21  C   UNL     1       1.078   4.588  20.285  0.00  0.00    +0.000 C 
BRANCH  21  22
ATOM     22  C   UNL     1       1.074   3.158  20.823  0.00  0.00    +0.000 C 
BRANCH  22  24
ATOM     23  C   UNL     1       1.339   2.357  18.456  0.00  0.00    +0.000 C 
ATOM     24  C   UNL     1       1.836   2.225  19.884  0.00  0.00    +0.000 C 
ENDBRANCH  22  24
ENDBRANCH  21  22
ENDBRANCH  20  21
ENDBRANCH   1  20
TORSDOF 7
ENDMDL
