MODEL 1
REMARK VINA RESULT:      -7.0      0.000      0.000
REMARK  Name = 
REMARK  6 active torsions:
REMARK  status: ('A' for Active; 'I' for Inactive)
REMARK    1  A    between atoms: C_2  and  C_4
REMARK    2  A    between atoms: C_4  and  N_5
REMARK    3  A    between atoms: C_6  and  C_8
REMARK    4  A    between atoms: C_9  and  C_10
REMARK    5  A    between atoms: C_11  and  C_12
REMARK    6  A    between atoms: C_19  and  C_20
REMARK                            x       y       z     vdW  Elec       q    Type
REMARK                         _______ _______ _______ _____ _____    ______ ____
ROOT
ATOM      1  C   UNL     1       0.886  10.034  20.336  0.00  0.00    +0.000 C 
ATOM      2  C   UNL     1       0.162  10.520  21.380  0.00  0.00    +0.000 C 
ATOM      3  N   UNL     1      -0.161  11.860  21.407  0.00  0.00    +0.000 N 
ATOM      4  C   UNL     1      -0.474  12.816  22.310  0.00  0.00    +0.000 C 
ATOM      5  O   UNL     1      -0.645  12.938  23.500  0.00  0.00    +0.000 OA
ATOM      6  C   UNL     1      -0.390  13.841  21.254  0.00  0.00    +0.000 C 
ATOM      7  C   UNL     1      -0.399  15.178  21.250  0.00  0.00    +0.000 C 
ATOM      8  C   UNL     1      -0.234  12.733  20.250  0.00  0.00    +0.000 C 
ATOM      9  S   UNL     1       1.349  12.582  19.426  0.00  0.00    +0.000 S 
ATOM     10  O   UNL     1       2.476  12.859  20.319  0.00  0.00    +0.000 OA
ATOM     11  O   UNL     1       1.329  13.194  18.117  0.00  0.00    +0.000 OA
ATOM     12  C   UNL     1       1.320  10.841  19.130  0.00  0.00    +0.000 C 
ENDROOT
BRANCH   7  13
ATOM     13  C   UNL     1      -0.261  15.997  20.045  0.00  0.00    +0.000 A 
ATOM     14  C   UNL     1      -1.369  16.606  19.466  0.00  0.00    +0.000 A 
ATOM     15  C   UNL     1      -1.175  17.415  18.348  0.00  0.00    +0.000 A 
ATOM     16  C   UNL     1       0.109  17.582  17.843  0.00  0.00    +0.000 A 
ATOM     17  C   UNL     1       1.152  16.934  18.483  0.00  0.00    +0.000 A 
ATOM     18  N   UNL     1       0.995  16.141  19.565  0.00  0.00    +0.000 NA
ENDBRANCH   7  13
BRANCH   2  19
ATOM     19  C   UNL     1      -0.263   9.565  22.587  0.00  0.00    +0.000 C 
ATOM     20  O   UNL     1       0.221   9.854  23.712  0.00  0.00    +0.000 OA
ATOM     21  O   UNL     1      -1.057   8.623  22.285  0.00  0.00    +0.000 OA
ENDBRANCH   2  19
BRANCH   1  23
ATOM     22  C   UNL     1       2.039   8.225  19.115  0.00  0.00    +0.000 C 
ATOM     23  C   UNL     1       1.442   8.684  20.225  0.00  0.00    +0.000 C 
BRANCH  22  25
ATOM     24  N   UNL     1       2.556   6.207  20.260  0.00  0.00    +0.000 N 
ATOM     25  C   UNL     1       2.420   6.795  19.023  0.00  0.00    +0.000 C 
ATOM     26  O   UNL     1       2.626   6.247  17.958  0.00  0.00    +0.000 OA
ATOM     27  H   UNL     1       2.221   6.709  21.071  0.00  0.00    +0.000 HD
BRANCH  24  28
ATOM     28  C   UNL     1       2.945   4.786  20.367  0.00  0.00    +0.000 C 
BRANCH  28  30
ATOM     29  O   UNL     1       2.247   3.163  21.988  0.00  0.00    +0.000 OA
ATOM     30  C   UNL     1       1.881   3.860  20.987  0.00  0.00    +0.000 C 
ATOM     31  O   UNL     1       0.714   3.763  20.472  0.00  0.00    +0.000 OA
ENDBRANCH  28  30
ENDBRANCH  24  28
ENDBRANCH  22  25
ENDBRANCH   1  23
TORSDOF 6
ENDMDL
MODEL 2
REMARK VINA RESULT:      -6.8      2.941      4.021
REMARK  Name = 
REMARK  6 active torsions:
REMARK  status: ('A' for Active; 'I' for Inactive)
REMARK    1  A    between atoms: C_2  and  C_4
REMARK    2  A    between atoms: C_4  and  N_5
REMARK    3  A    between atoms: C_6  and  C_8
REMARK    4  A    between atoms: C_9  and  C_10
REMARK    5  A    between atoms: C_11  and  C_12
REMARK    6  A    between atoms: C_19  and  C_20
REMARK                            x       y       z     vdW  Elec       q    Type
REMARK                         _______ _______ _______ _____ _____    ______ ____
ROOT
ATOM      1  C   UNL     1      -0.267  10.883  18.897  0.00  0.00    +0.000 C 
ATOM      2  C   UNL     1      -1.559  11.228  18.650  0.00  0.00    +0.000 C 
ATOM      3  N   UNL     1      -2.175  12.153  19.465  0.00  0.00    +0.000 N 
ATOM      4  C   UNL     1      -3.422  12.499  19.857  0.00  0.00    +0.000 C 
ATOM      5  O   UNL     1      -4.571  12.182  19.656  0.00  0.00    +0.000 OA
ATOM      6  C   UNL     1      -2.853  13.420  20.856  0.00  0.00    +0.000 C 
ATOM      7  C   UNL     1      -3.364  14.125  21.871  0.00  0.00    +0.000 C 
ATOM      8  C   UNL     1      -1.497  13.155  20.267  0.00  0.00    +0.000 C 
ATOM      9  S   UNL     1      -0.320  12.255  21.274  0.00  0.00    +0.000 S 
ATOM     10  O   UNL     1      -0.948  11.185  22.052  0.00  0.00    +0.000 OA
ATOM     11  O   UNL     1       0.608  13.147  21.934  0.00  0.00    +0.000 OA
ATOM     12  C   UNL     1       0.604  11.496  19.973  0.00  0.00    +0.000 C 
ENDROOT
BRANCH   7  13
ATOM     13  C   UNL     1      -2.570  14.962  22.772  0.00  0.00    +0.000 A 
ATOM     14  C   UNL     1      -2.407  16.321  22.523  0.00  0.00    +0.000 A 
ATOM     15  C   UNL     1      -1.682  17.082  23.438  0.00  0.00    +0.000 A 
ATOM     16  C   UNL     1      -1.142  16.464  24.561  0.00  0.00    +0.000 A 
ATOM     17  C   UNL     1      -1.353  15.106  24.725  0.00  0.00    +0.000 A 
ATOM     18  N   UNL     1      -2.047  14.342  23.854  0.00  0.00    +0.000 NA
ENDBRANCH   7  13
BRANCH   2  19
ATOM     19  C   UNL     1      -2.372  10.532  17.465  0.00  0.00    +0.000 C 
ATOM     20  O   UNL     1      -3.011   9.493  17.775  0.00  0.00    +0.000 OA
ATOM     21  O   UNL     1      -2.299  11.109  16.339  0.00  0.00    +0.000 OA
ENDBRANCH   2  19
BRANCH   1  23
ATOM     22  C   UNL     1       1.396   9.059  18.862  0.00  0.00    +0.000 C 
ATOM     23  C   UNL     1       0.484   9.817  18.233  0.00  0.00    +0.000 C 
BRANCH  22  25
ATOM     24  N   UNL     1       2.294   6.868  18.654  0.00  0.00    +0.000 N 
ATOM     25  C   UNL     1       2.234   8.118  18.081  0.00  0.00    +0.000 C 
ATOM     26  O   UNL     1       2.827   8.461  17.077  0.00  0.00    +0.000 OA
ATOM     27  H   UNL     1       1.651   6.650  19.402  0.00  0.00    +0.000 HD
BRANCH  24  28
ATOM     28  C   UNL     1       3.097   5.802  18.021  0.00  0.00    +0.000 C 
BRANCH  28  30
ATOM     29  O   UNL     1       3.067   3.433  18.397  0.00  0.00    +0.000 OA
ATOM     30  C   UNL     1       2.410   4.424  17.942  0.00  0.00    +0.000 C 
ATOM     31  O   UNL     1       1.265   4.292  17.386  0.00  0.00    +0.000 OA
ENDBRANCH  28  30
ENDBRANCH  24  28
ENDBRANCH  22  25
ENDBRANCH   1  23
TORSDOF 6
ENDMDL
MODEL 3
REMARK VINA RESULT:      -6.8      2.991      4.108
REMARK  Name = 
REMARK  6 active torsions:
REMARK  status: ('A' for Active; 'I' for Inactive)
REMARK    1  A    between atoms: C_2  and  C_4
REMARK    2  A    between atoms: C_4  and  N_5
REMARK    3  A    between atoms: C_6  and  C_8
REMARK    4  A    between atoms: C_9  and  C_10
REMARK    5  A    between atoms: C_11  and  C_12
REMARK    6  A    between atoms: C_19  and  C_20
REMARK                            x       y       z     vdW  Elec       q    Type
REMARK                         _______ _______ _______ _____ _____    ______ ____
ROOT
ATOM      1  C   UNL     1      -0.254  10.784  18.838  0.00  0.00    +0.000 C 
ATOM      2  C   UNL     1      -1.543  11.128  18.571  0.00  0.00    +0.000 C 
ATOM      3  N   UNL     1      -2.177  12.041  19.385  0.00  0.00    +0.000 N 
ATOM      4  C   UNL     1      -3.433  12.377  19.757  0.00  0.00    +0.000 C 
ATOM      5  O   UNL     1      -4.576  12.059  19.531  0.00  0.00    +0.000 OA
ATOM      6  C   UNL     1      -2.886  13.289  20.778  0.00  0.00    +0.000 C 
ATOM      7  C   UNL     1      -3.418  13.980  21.791  0.00  0.00    +0.000 C 
ATOM      8  C   UNL     1      -1.517  13.035  20.210  0.00  0.00    +0.000 C 
ATOM      9  S   UNL     1      -0.356  12.128  21.229  0.00  0.00    +0.000 S 
ATOM     10  O   UNL     1      -0.994  11.047  21.983  0.00  0.00    +0.000 OA
ATOM     11  O   UNL     1       0.556  13.016  21.916  0.00  0.00    +0.000 OA
ATOM     12  C   UNL     1       0.594  11.388  19.937  0.00  0.00    +0.000 C 
ENDROOT
BRANCH   7  13
ATOM     13  C   UNL     1      -2.644  14.809  22.716  0.00  0.00    +0.000 A 
ATOM     14  C   UNL     1      -2.138  14.278  23.898  0.00  0.00    +0.000 A 
ATOM     15  C   UNL     1      -1.368  15.098  24.720  0.00  0.00    +0.000 A 
ATOM     16  C   UNL     1      -1.133  16.415  24.341  0.00  0.00    +0.000 A 
ATOM     17  C   UNL     1      -1.679  16.858  23.148  0.00  0.00    +0.000 A 
ATOM     18  N   UNL     1      -2.434  16.089  22.333  0.00  0.00    +0.000 NA
ENDBRANCH   7  13
BRANCH   2  19
ATOM     19  C   UNL     1      -2.331  10.442  17.363  0.00  0.00    +0.000 C 
ATOM     20  O   UNL     1      -2.217  11.005  16.243  0.00  0.00    +0.000 OA
ATOM     21  O   UNL     1      -2.980   9.393  17.659  0.00  0.00    +0.000 OA
ENDBRANCH   2  19
BRANCH   1  23
ATOM     22  C   UNL     1       1.410   8.961  18.814  0.00  0.00    +0.000 C 
ATOM     23  C   UNL     1       0.513   9.728  18.176  0.00  0.00    +0.000 C 
BRANCH  22  25
ATOM     24  N   UNL     1       2.360   6.790  18.624  0.00  0.00    +0.000 N 
ATOM     25  C   UNL     1       2.268   8.033  18.039  0.00  0.00    +0.000 C 
ATOM     26  O   UNL     1       2.847   8.379  17.029  0.00  0.00    +0.000 OA
ATOM     27  H   UNL     1       1.726   6.565  19.378  0.00  0.00    +0.000 HD
BRANCH  24  28
ATOM     28  C   UNL     1       3.185   5.737  17.999  0.00  0.00    +0.000 C 
BRANCH  28  30
ATOM     29  O   UNL     1       1.181   4.530  17.468  0.00  0.00    +0.000 OA
ATOM     30  C   UNL     1       2.436   4.433  17.659  0.00  0.00    +0.000 C 
ATOM     31  O   UNL     1       3.050   3.310  17.636  0.00  0.00    +0.000 OA
ENDBRANCH  28  30
ENDBRANCH  24  28
ENDBRANCH  22  25
ENDBRANCH   1  23
TORSDOF 6
ENDMDL
MODEL 4
REMARK VINA RESULT:      -6.8      1.237      1.429
REMARK  Name = 
REMARK  6 active torsions:
REMARK  status: ('A' for Active; 'I' for Inactive)
REMARK    1  A    between atoms: C_2  and  C_4
REMARK    2  A    between atoms: C_4  and  N_5
REMARK    3  A    between atoms: C_6  and  C_8
REMARK    4  A    between atoms: C_9  and  C_10
REMARK    5  A    between atoms: C_11  and  C_12
REMARK    6  A    between atoms: C_19  and  C_20
REMARK                            x       y       z     vdW  Elec       q    Type
REMARK                         _______ _______ _______ _____ _____    ______ ____
ROOT
ATOM      1  C   UNL     1       0.688  10.604  20.795  0.00  0.00    +0.000 C 
ATOM      2  C   UNL     1      -0.020  11.290  21.733  0.00  0.00    +0.000 C 
ATOM      3  N   UNL     1      -0.209  12.646  21.572  0.00  0.00    +0.000 N 
ATOM      4  C   UNL     1      -0.457  13.739  22.329  0.00  0.00    +0.000 C 
ATOM      5  O   UNL     1      -0.655  14.033  23.484  0.00  0.00    +0.000 OA
ATOM      6  C   UNL     1      -0.235  14.602  21.155  0.00  0.00    +0.000 C 
ATOM      7  C   UNL     1      -0.111  15.922  20.979  0.00  0.00    +0.000 C 
ATOM      8  C   UNL     1      -0.155  13.361  20.311  0.00  0.00    +0.000 C 
ATOM      9  S   UNL     1       1.433  12.954  19.589  0.00  0.00    +0.000 S 
ATOM     10  O   UNL     1       2.550  13.240  20.491  0.00  0.00    +0.000 OA
ATOM     11  O   UNL     1       1.518  13.387  18.212  0.00  0.00    +0.000 OA
ATOM     12  C   UNL     1       1.240  11.200  19.518  0.00  0.00    +0.000 C 
ENDROOT
BRANCH   7  13
ATOM     13  C   UNL     1       0.149  16.557  19.686  0.00  0.00    +0.000 A 
ATOM     14  C   UNL     1      -0.900  16.964  18.868  0.00  0.00    +0.000 A 
ATOM     15  C   UNL     1      -0.597  17.608  17.670  0.00  0.00    +0.000 A 
ATOM     16  C   UNL     1       0.734  17.817  17.326  0.00  0.00    +0.000 A 
ATOM     17  C   UNL     1       1.712  17.374  18.201  0.00  0.00    +0.000 A 
ATOM     18  N   UNL     1       1.450  16.744  19.367  0.00  0.00    +0.000 NA
ENDBRANCH   7  13
BRANCH   2  19
ATOM     19  C   UNL     1      -0.580  10.548  23.031  0.00  0.00    +0.000 C 
ATOM     20  O   UNL     1       0.241   9.813  23.639  0.00  0.00    +0.000 OA
ATOM     21  O   UNL     1      -1.791  10.789  23.319  0.00  0.00    +0.000 OA
ENDBRANCH   2  19
BRANCH   1  23
ATOM     22  C   UNL     1       1.642   8.531  19.854  0.00  0.00    +0.000 C 
ATOM     23  C   UNL     1       1.110   9.206  20.885  0.00  0.00    +0.000 C 
BRANCH  22  25
ATOM     24  N   UNL     1       2.518   6.552  18.871  0.00  0.00    +0.000 N 
ATOM     25  C   UNL     1       1.883   7.073  19.975  0.00  0.00    +0.000 C 
ATOM     26  O   UNL     1       1.506   6.433  20.937  0.00  0.00    +0.000 OA
ATOM     27  H   UNL     1       2.916   7.192  18.197  0.00  0.00    +0.000 HD
BRANCH  24  28
ATOM     28  C   UNL     1       2.829   5.110  18.808  0.00  0.00    +0.000 C 
BRANCH  28  30
ATOM     29  O   UNL     1       1.225   3.409  19.343  0.00  0.00    +0.000 OA
ATOM     30  C   UNL     1       1.643   4.199  18.436  0.00  0.00    +0.000 C 
ATOM     31  O   UNL     1       1.155   4.205  17.253  0.00  0.00    +0.000 OA
ENDBRANCH  28  30
ENDBRANCH  24  28
ENDBRANCH  22  25
ENDBRANCH   1  23
TORSDOF 6
ENDMDL
MODEL 5
REMARK VINA RESULT:      -6.7      3.196      4.388
REMARK  Name = 
REMARK  6 active torsions:
REMARK  status: ('A' for Active; 'I' for Inactive)
REMARK    1  A    between atoms: C_2  and  C_4
REMARK    2  A    between atoms: C_4  and  N_5
REMARK    3  A    between atoms: C_6  and  C_8
REMARK    4  A    between atoms: C_9  and  C_10
REMARK    5  A    between atoms: C_11  and  C_12
REMARK    6  A    between atoms: C_19  and  C_20
REMARK                            x       y       z     vdW  Elec       q    Type
REMARK                         _______ _______ _______ _____ _____    ______ ____
ROOT
ATOM      1  C   UNL     1      -0.549  11.171  19.184  0.00  0.00    +0.000 C 
ATOM      2  C   UNL     1      -1.847  11.446  18.884  0.00  0.00    +0.000 C 
ATOM      3  N   UNL     1      -2.571  12.264  19.724  0.00  0.00    +0.000 N 
ATOM      4  C   UNL     1      -3.860  12.495  20.063  0.00  0.00    +0.000 C 
ATOM      5  O   UNL     1      -4.970  12.118  19.771  0.00  0.00    +0.000 OA
ATOM      6  C   UNL     1      -3.414  13.374  21.158  0.00  0.00    +0.000 C 
ATOM      7  C   UNL     1      -4.030  13.965  22.188  0.00  0.00    +0.000 C 
ATOM      8  C   UNL     1      -2.011  13.245  20.635  0.00  0.00    +0.000 C 
ATOM      9  S   UNL     1      -0.831  12.353  21.645  0.00  0.00    +0.000 S 
ATOM     10  O   UNL     1      -1.424  11.189  22.305  0.00  0.00    +0.000 OA
ATOM     11  O   UNL     1      -0.008  13.253  22.422  0.00  0.00    +0.000 OA
ATOM     12  C   UNL     1       0.215  11.758  20.352  0.00  0.00    +0.000 C 
ENDROOT
BRANCH   7  13
ATOM     13  C   UNL     1      -3.349  14.783  23.192  0.00  0.00    +0.000 A 
ATOM     14  C   UNL     1      -3.196  14.328  24.498  0.00  0.00    +0.000 A 
ATOM     15  C   UNL     1      -2.497  15.126  25.403  0.00  0.00    +0.000 A 
ATOM     16  C   UNL     1      -1.983  16.346  24.979  0.00  0.00    +0.000 A 
ATOM     17  C   UNL     1      -2.186  16.719  23.661  0.00  0.00    +0.000 A 
ATOM     18  N   UNL     1      -2.862  15.970  22.763  0.00  0.00    +0.000 NA
ENDBRANCH   7  13
BRANCH   2  19
ATOM     19  C   UNL     1      -2.541  10.788  17.606  0.00  0.00    +0.000 C 
ATOM     20  O   UNL     1      -2.396  11.410  16.521  0.00  0.00    +0.000 OA
ATOM     21  O   UNL     1      -3.156   9.699  17.817  0.00  0.00    +0.000 OA
ENDBRANCH   2  19
BRANCH   1  23
ATOM     22  C   UNL     1       1.086   9.321  19.136  0.00  0.00    +0.000 C 
ATOM     23  C   UNL     1       0.312  10.210  18.493  0.00  0.00    +0.000 C 
BRANCH  22  25
ATOM     24  N   UNL     1       2.395   7.341  19.026  0.00  0.00    +0.000 N 
ATOM     25  C   UNL     1       2.055   8.502  18.370  0.00  0.00    +0.000 C 
ATOM     26  O   UNL     1       2.514   8.869  17.306  0.00  0.00    +0.000 OA
ATOM     27  H   UNL     1       1.849   7.064  19.830  0.00  0.00    +0.000 HD
BRANCH  24  28
ATOM     28  C   UNL     1       3.362   6.403  18.420  0.00  0.00    +0.000 C 
BRANCH  28  30
ATOM     29  O   UNL     1       3.249   4.797  20.197  0.00  0.00    +0.000 OA
ATOM     30  C   UNL     1       4.025   5.419  19.403  0.00  0.00    +0.000 C 
ATOM     31  O   UNL     1       5.298   5.291  19.446  0.00  0.00    +0.000 OA
ENDBRANCH  28  30
ENDBRANCH  24  28
ENDBRANCH  22  25
ENDBRANCH   1  23
TORSDOF 6
ENDMDL
MODEL 6
REMARK VINA RESULT:      -6.7      3.217      4.404
REMARK  Name = 
REMARK  6 active torsions:
REMARK  status: ('A' for Active; 'I' for Inactive)
REMARK    1  A    between atoms: C_2  and  C_4
REMARK    2  A    between atoms: C_4  and  N_5
REMARK    3  A    between atoms: C_6  and  C_8
REMARK    4  A    between atoms: C_9  and  C_10
REMARK    5  A    between atoms: C_11  and  C_12
REMARK    6  A    between atoms: C_19  and  C_20
REMARK                            x       y       z     vdW  Elec       q    Type
REMARK                         _______ _______ _______ _____ _____    ______ ____
ROOT
ATOM      1  C   UNL     1      -0.688  11.065  19.192  0.00  0.00    +0.000 C 
ATOM      2  C   UNL     1      -1.970  11.385  18.871  0.00  0.00    +0.000 C 
ATOM      3  N   UNL     1      -2.670  12.248  19.686  0.00  0.00    +0.000 N 
ATOM      4  C   UNL     1      -3.953  12.536  20.005  0.00  0.00    +0.000 C 
ATOM      5  O   UNL     1      -5.074  12.198  19.707  0.00  0.00    +0.000 OA
ATOM      6  C   UNL     1      -3.485  13.420  21.088  0.00  0.00    +0.000 C 
ATOM      7  C   UNL     1      -4.088  14.055  22.098  0.00  0.00    +0.000 C 
ATOM      8  C   UNL     1      -2.083  13.225  20.584  0.00  0.00    +0.000 C 
ATOM      9  S   UNL     1      -0.950  12.307  21.626  0.00  0.00    +0.000 S 
ATOM     10  O   UNL     1      -1.596  11.181  22.302  0.00  0.00    +0.000 OA
ATOM     11  O   UNL     1      -0.101  13.189  22.394  0.00  0.00    +0.000 OA
ATOM     12  C   UNL     1       0.086  11.645  20.358  0.00  0.00    +0.000 C 
ENDROOT
BRANCH   7  13
ATOM     13  C   UNL     1      -3.386  14.866  23.094  0.00  0.00    +0.000 A 
ATOM     14  C   UNL     1      -2.918  16.137  22.777  0.00  0.00    +0.000 A 
ATOM     15  C   UNL     1      -2.299  16.886  23.776  0.00  0.00    +0.000 A 
ATOM     16  C   UNL     1      -2.164  16.344  25.049  0.00  0.00    +0.000 A 
ATOM     17  C   UNL     1      -2.658  15.070  25.272  0.00  0.00    +0.000 A 
ATOM     18  N   UNL     1      -3.258  14.318  24.324  0.00  0.00    +0.000 NA
ENDBRANCH   7  13
BRANCH   2  19
ATOM     19  C   UNL     1      -2.676  10.729  17.598  0.00  0.00    +0.000 C 
ATOM     20  O   UNL     1      -2.510  11.334  16.507  0.00  0.00    +0.000 OA
ATOM     21  O   UNL     1      -3.318   9.659  17.820  0.00  0.00    +0.000 OA
ENDBRANCH   2  19
BRANCH   1  23
ATOM     22  C   UNL     1       1.152   9.419  19.143  0.00  0.00    +0.000 C 
ATOM     23  C   UNL     1       0.142  10.057  18.531  0.00  0.00    +0.000 C 
BRANCH  22  25
ATOM     24  N   UNL     1       2.405   7.402  19.043  0.00  0.00    +0.000 N 
ATOM     25  C   UNL     1       2.051   8.541  18.357  0.00  0.00    +0.000 C 
ATOM     26  O   UNL     1       2.449   8.848  17.250  0.00  0.00    +0.000 OA
ATOM     27  H   UNL     1       1.905   7.176  19.892  0.00  0.00    +0.000 HD
BRANCH  24  28
ATOM     28  C   UNL     1       3.309   6.413  18.421  0.00  0.00    +0.000 C 
BRANCH  28  30
ATOM     29  O   UNL     1       5.222   5.325  19.374  0.00  0.00    +0.000 OA
ATOM     30  C   UNL     1       3.952   5.408  19.396  0.00  0.00    +0.000 C 
ATOM     31  O   UNL     1       3.228   4.659  20.139  0.00  0.00    +0.000 OA
ENDBRANCH  28  30
ENDBRANCH  24  28
ENDBRANCH  22  25
ENDBRANCH   1  23
TORSDOF 6
ENDMDL
MODEL 7
REMARK VINA RESULT:      -6.6      3.754      9.015
REMARK  Name = 
REMARK  6 active torsions:
REMARK  status: ('A' for Active; 'I' for Inactive)
REMARK    1  A    between atoms: C_2  and  C_4
REMARK    2  A    between atoms: C_4  and  N_5
REMARK    3  A    between atoms: C_6  and  C_8
REMARK    4  A    between atoms: C_9  and  C_10
REMARK    5  A    between atoms: C_11  and  C_12
REMARK    6  A    between atoms: C_19  and  C_20
REMARK                            x       y       z     vdW  Elec       q    Type
REMARK                         _______ _______ _______ _____ _____    ______ ____
ROOT
ATOM      1  C   UNL     1       1.382   8.988  19.216  0.00  0.00    +0.000 C 
ATOM      2  C   UNL     1       1.465   8.104  20.247  0.00  0.00    +0.000 C 
ATOM      3  N   UNL     1       2.302   7.016  20.133  0.00  0.00    +0.000 N 
ATOM      4  C   UNL     1       2.429   5.768  20.639  0.00  0.00    +0.000 C 
ATOM      5  O   UNL     1       1.892   5.041  21.440  0.00  0.00    +0.000 OA
ATOM      6  C   UNL     1       3.495   5.481  19.663  0.00  0.00    +0.000 C 
ATOM      7  C   UNL     1       4.148   4.373  19.294  0.00  0.00    +0.000 C 
ATOM      8  C   UNL     1       3.456   6.928  19.258  0.00  0.00    +0.000 C 
ATOM      9  S   UNL     1       2.851   7.310  17.616  0.00  0.00    +0.000 S 
ATOM     10  O   UNL     1       1.729   6.459  17.218  0.00  0.00    +0.000 OA
ATOM     11  O   UNL     1       3.937   7.516  16.683  0.00  0.00    +0.000 OA
ATOM     12  C   UNL     1       2.208   8.921  17.948  0.00  0.00    +0.000 C 
ENDROOT
BRANCH   7  13
ATOM     13  C   UNL     1       5.168   4.331  18.246  0.00  0.00    +0.000 A 
ATOM     14  C   UNL     1       4.823   4.059  16.926  0.00  0.00    +0.000 A 
ATOM     15  C   UNL     1       5.827   4.079  15.959  0.00  0.00    +0.000 A 
ATOM     16  C   UNL     1       7.134   4.362  16.340  0.00  0.00    +0.000 A 
ATOM     17  C   UNL     1       7.384   4.618  17.677  0.00  0.00    +0.000 A 
ATOM     18  N   UNL     1       6.434   4.601  18.637  0.00  0.00    +0.000 NA
ENDBRANCH   7  13
BRANCH   2  19
ATOM     19  C   UNL     1       0.563   8.293  21.551  0.00  0.00    +0.000 C 
ATOM     20  O   UNL     1       1.085   8.949  22.489  0.00  0.00    +0.000 OA
ATOM     21  O   UNL     1      -0.592   7.771  21.497  0.00  0.00    +0.000 OA
ENDBRANCH   2  19
BRANCH   1  23
ATOM     22  C   UNL     1      -0.805   9.968  18.626  0.00  0.00    +0.000 C 
ATOM     23  C   UNL     1       0.440  10.103  19.107  0.00  0.00    +0.000 C 
BRANCH  22  25
ATOM     24  N   UNL     1      -2.981  10.921  18.534  0.00  0.00    +0.000 N 
ATOM     25  C   UNL     1      -1.636  11.173  18.388  0.00  0.00    +0.000 C 
ATOM     26  O   UNL     1      -1.151  12.237  18.056  0.00  0.00    +0.000 OA
ATOM     27  H   UNL     1      -3.264  10.046  18.952  0.00  0.00    +0.000 HD
BRANCH  24  28
ATOM     28  C   UNL     1      -3.964  12.003  18.321  0.00  0.00    +0.000 C 
BRANCH  28  30
ATOM     29  O   UNL     1      -4.377  11.138  16.122  0.00  0.00    +0.000 OA
ATOM     30  C   UNL     1      -4.848  11.847  17.069  0.00  0.00    +0.000 C 
ATOM     31  O   UNL     1      -5.969  12.458  16.976  0.00  0.00    +0.000 OA
ENDBRANCH  28  30
ENDBRANCH  24  28
ENDBRANCH  22  25
ENDBRANCH   1  23
TORSDOF 6
ENDMDL
MODEL 8
REMARK VINA RESULT:      -6.6      2.979      8.710
REMARK  Name = 
REMARK  6 active torsions:
REMARK  status: ('A' for Active; 'I' for Inactive)
REMARK    1  A    between atoms: C_2  and  C_4
REMARK    2  A    between atoms: C_4  and  N_5
REMARK    3  A    between atoms: C_6  and  C_8
REMARK    4  A    between atoms: C_9  and  C_10
REMARK    5  A    between atoms: C_11  and  C_12
REMARK    6  A    between atoms: C_19  and  C_20
REMARK                            x       y       z     vdW  Elec       q    Type
REMARK                         _______ _______ _______ _____ _____    ______ ____
ROOT
ATOM      1  C   UNL     1      -0.659  11.069  20.660  0.00  0.00    +0.000 C 
ATOM      2  C   UNL     1       0.029  11.343  19.519  0.00  0.00    +0.000 C 
ATOM      3  N   UNL     1       0.813  10.360  18.956  0.00  0.00    +0.000 N 
ATOM      4  C   UNL     1       1.893  10.253  18.149  0.00  0.00    +0.000 C 
ATOM      5  O   UNL     1       2.651  10.959  17.526  0.00  0.00    +0.000 OA
ATOM      6  C   UNL     1       1.951   8.805  18.419  0.00  0.00    +0.000 C 
ATOM      7  C   UNL     1       2.840   7.843  18.152  0.00  0.00    +0.000 C 
ATOM      8  C   UNL     1       0.645   8.932  19.150  0.00  0.00    +0.000 C 
ATOM      9  S   UNL     1       0.663   8.678  20.923  0.00  0.00    +0.000 S 
ATOM     10  O   UNL     1       1.858   9.235  21.559  0.00  0.00    +0.000 OA
ATOM     11  O   UNL     1       0.245   7.339  21.274  0.00  0.00    +0.000 OA
ATOM     12  C   UNL     1      -0.700   9.720  21.346  0.00  0.00    +0.000 C 
ENDROOT
BRANCH   7  13
ATOM     13  C   UNL     1       2.690   6.447  18.567  0.00  0.00    +0.000 A 
ATOM     14  C   UNL     1       1.970   5.546  17.790  0.00  0.00    +0.000 A 
ATOM     15  C   UNL     1       1.898   4.218  18.207  0.00  0.00    +0.000 A 
ATOM     16  C   UNL     1       2.537   3.837  19.380  0.00  0.00    +0.000 A 
ATOM     17  C   UNL     1       3.229   4.804  20.091  0.00  0.00    +0.000 A 
ATOM     18  N   UNL     1       3.313   6.098  19.715  0.00  0.00    +0.000 NA
ENDBRANCH   7  13
BRANCH   2  19
ATOM     19  C   UNL     1      -0.025  12.800  18.870  0.00  0.00    +0.000 C 
ATOM     20  O   UNL     1       0.837  13.619  19.283  0.00  0.00    +0.000 OA
ATOM     21  O   UNL     1      -0.925  12.975  17.994  0.00  0.00    +0.000 OA
ENDBRANCH   2  19
BRANCH   1  23
ATOM     22  C   UNL     1      -1.892  11.749  22.688  0.00  0.00    +0.000 C 
ATOM     23  C   UNL     1      -1.409  12.031  21.469  0.00  0.00    +0.000 C 
BRANCH  22  25
ATOM     24  N   UNL     1      -4.114  12.373  23.255  0.00  0.00    +0.000 N 
ATOM     25  C   UNL     1      -2.786  12.717  23.367  0.00  0.00    +0.000 C 
ATOM     26  O   UNL     1      -2.362  13.716  23.913  0.00  0.00    +0.000 OA
ATOM     27  H   UNL     1      -4.346  11.452  22.910  0.00  0.00    +0.000 HD
BRANCH  24  28
ATOM     28  C   UNL     1      -5.154  13.230  23.860  0.00  0.00    +0.000 C 
BRANCH  28  30
ATOM     29  O   UNL     1      -7.435  13.090  24.590  0.00  0.00    +0.000 OA
ATOM     30  C   UNL     1      -6.599  12.714  23.707  0.00  0.00    +0.000 C 
ATOM     31  O   UNL     1      -6.910  11.901  22.769  0.00  0.00    +0.000 OA
ENDBRANCH  28  30
ENDBRANCH  24  28
ENDBRANCH  22  25
ENDBRANCH   1  23
TORSDOF 6
ENDMDL
MODEL 9
REMARK VINA RESULT:      -6.6      1.370      1.643
REMARK  Name = 
REMARK  6 active torsions:
REMARK  status: ('A' for Active; 'I' for Inactive)
REMARK    1  A    between atoms: C_2  and  C_4
REMARK    2  A    between atoms: C_4  and  N_5
REMARK    3  A    between atoms: C_6  and  C_8
REMARK    4  A    between atoms: C_9  and  C_10
REMARK    5  A    between atoms: C_11  and  C_12
REMARK    6  A    between atoms: C_19  and  C_20
REMARK                            x       y       z     vdW  Elec       q    Type
REMARK                         _______ _______ _______ _____ _____    ______ ____
ROOT
ATOM      1  C   UNL     1       0.412  10.655  20.693  0.00  0.00    +0.000 C 
ATOM      2  C   UNL     1      -0.188  11.367  21.685  0.00  0.00    +0.000 C 
ATOM      3  N   UNL     1      -0.308  12.733  21.552  0.00  0.00    +0.000 N 
ATOM      4  C   UNL     1      -0.439  13.827  22.336  0.00  0.00    +0.000 C 
ATOM      5  O   UNL     1      -0.540  14.115  23.505  0.00  0.00    +0.000 OA
ATOM      6  C   UNL     1      -0.250  14.693  21.159  0.00  0.00    +0.000 C 
ATOM      7  C   UNL     1      -0.062  16.006  20.989  0.00  0.00    +0.000 C 
ATOM      8  C   UNL     1      -0.301  13.462  20.298  0.00  0.00    +0.000 C 
ATOM      9  S   UNL     1       1.207  12.976  19.463  0.00  0.00    +0.000 S 
ATOM     10  O   UNL     1       2.399  13.184  20.287  0.00  0.00    +0.000 OA
ATOM     11  O   UNL     1       1.222  13.423  18.088  0.00  0.00    +0.000 OA
ATOM     12  C   UNL     1       0.909  11.237  19.386  0.00  0.00    +0.000 C 
ENDROOT
BRANCH   7  13
ATOM     13  C   UNL     1       0.145  16.644  19.688  0.00  0.00    +0.000 A 
ATOM     14  C   UNL     1      -0.933  17.116  18.946  0.00  0.00    +0.000 A 
ATOM     15  C   UNL     1      -0.677  17.759  17.736  0.00  0.00    +0.000 A 
ATOM     16  C   UNL     1       0.638  17.904  17.307  0.00  0.00    +0.000 A 
ATOM     17  C   UNL     1       1.647  17.401  18.111  0.00  0.00    +0.000 A 
ATOM     18  N   UNL     1       1.430  16.769  19.285  0.00  0.00    +0.000 NA
ENDBRANCH   7  13
BRANCH   2  19
ATOM     19  C   UNL     1      -0.699  10.639  23.011  0.00  0.00    +0.000 C 
ATOM     20  O   UNL     1      -1.899  10.850  23.326  0.00  0.00    +0.000 OA
ATOM     21  O   UNL     1       0.157   9.912  23.600  0.00  0.00    +0.000 OA
ENDBRANCH   2  19
BRANCH   1  23
ATOM     22  C   UNL     1       1.730   8.689  19.989  0.00  0.00    +0.000 C 
ATOM     23  C   UNL     1       0.758   9.233  20.738  0.00  0.00    +0.000 C 
BRANCH  22  25
ATOM     24  N   UNL     1       2.502   6.777  18.808  0.00  0.00    +0.000 N 
ATOM     25  C   UNL     1       1.901   7.217  19.965  0.00  0.00    +0.000 C 
ATOM     26  O   UNL     1       1.502   6.504  20.865  0.00  0.00    +0.000 OA
ATOM     27  H   UNL     1       2.925   7.460  18.195  0.00  0.00    +0.000 HD
BRANCH  24  28
ATOM     28  C   UNL     1       2.743   5.335  18.600  0.00  0.00    +0.000 C 
BRANCH  28  30
ATOM     29  O   UNL     1       3.836   3.626  19.881  0.00  0.00    +0.000 OA
ATOM     30  C   UNL     1       3.976   4.765  19.329  0.00  0.00    +0.000 C 
ATOM     31  O   UNL     1       5.059   5.442  19.417  0.00  0.00    +0.000 OA
ENDBRANCH  28  30
ENDBRANCH  24  28
ENDBRANCH  22  25
ENDBRANCH   1  23
TORSDOF 6
ENDMDL
