MODEL 1
REMARK VINA RESULT:      -8.3      0.000      0.000
REMARK  Name = 
REMARK  4 active torsions:
REMARK  status: ('A' for Active; 'I' for Inactive)
REMARK    1  A    between atoms: C_1  and  C_2
REMARK    2  A    between atoms: C_2  and  S_3
REMARK    3  A    between atoms: S_3  and  C_4
REMARK    4  A    between atoms: C_11  and  O_12
REMARK                            x       y       z     vdW  Elec       q    Type
REMARK                         _______ _______ _______ _____ _____    ______ ____
ROOT
ATOM      1  C   UNL     1       6.155   4.143  16.376  0.00  0.00    +0.000 A 
ATOM      2  N   UNL     1       5.444   4.258  15.259  0.00  0.00    +0.000 NA
ATOM      3  N   UNL     1       4.656   5.361  15.495  0.00  0.00    +0.000 NA
ATOM      4  C   UNL     1       4.744   5.607  16.776  0.00  0.00    +0.000 A 
ATOM      5  N   UNL     1       4.225   6.569  17.509  0.00  0.00    +0.000 NA
ATOM      6  C   UNL     1       3.515   6.141  18.499  0.00  0.00    +0.000 A 
ATOM      7  C   UNL     1       3.496   4.737  19.100  0.00  0.00    +0.000 A 
ATOM      8  C   UNL     1       4.478   3.948  18.495  0.00  0.00    +0.000 A 
ATOM      9  N   UNL     1       5.238   4.490  17.391  0.00  0.00    +0.000 N 
ATOM     10  C   UNL     1       2.411   4.529  20.231  0.00  0.00    +0.000 C 
ATOM     11  C   UNL     1       1.007   4.146  19.635  0.00  0.00    +0.000 C 
ATOM     12  C   UNL     1       0.576   2.820  20.247  0.00  0.00    +0.000 C 
ATOM     13  C   UNL     1       1.257   2.780  21.590  0.00  0.00    +0.000 C 
ATOM     14  C   UNL     1       2.630   3.418  21.322  0.00  0.00    +0.000 C 
ATOM     15  C   UNL     1       2.226   5.881  21.039  0.00  0.00    +0.000 C 
ATOM     16  C   UNL     1       1.951   7.076  20.165  0.00  0.00    +0.000 A 
ATOM     17  C   UNL     1       1.123   8.144  20.509  0.00  0.00    +0.000 A 
ATOM     18  C   UNL     1       0.938   9.231  19.620  0.00  0.00    +0.000 A 
ATOM     19  C   UNL     1       1.547   9.268  18.379  0.00  0.00    +0.000 A 
ATOM     20  C   UNL     1       2.355   8.216  18.040  0.00  0.00    +0.000 A 
ATOM     21  C   UNL     1       2.578   7.157  18.944  0.00  0.00    +0.000 A 
ENDROOT
BRANCH   8  22
ATOM     22  O   UNL     1       4.645   2.606  18.782  0.00  0.00    +0.000 OA
ATOM     23  H   UNL     1       3.784   2.213  18.930  0.00  0.00    +0.000 HD
ENDBRANCH   8  22
BRANCH   1  24
ATOM     24  S   UNL     1       7.755   5.037  16.358  0.00  0.00    +0.000 S 
BRANCH  24  26
ATOM     25  C   UNL     1       7.728   7.773  17.645  0.00  0.00    +0.000 C 
ATOM     26  C   UNL     1       7.712   6.245  17.814  0.00  0.00    +0.000 C 
ENDBRANCH  24  26
ENDBRANCH   1  24
TORSDOF 3
ENDMDL
MODEL 2
REMARK VINA RESULT:      -6.9      1.105      1.416
REMARK  Name = 
REMARK  4 active torsions:
REMARK  status: ('A' for Active; 'I' for Inactive)
REMARK    1  A    between atoms: C_1  and  C_2
REMARK    2  A    between atoms: C_2  and  S_3
REMARK    3  A    between atoms: S_3  and  C_4
REMARK    4  A    between atoms: C_11  and  O_12
REMARK                            x       y       z     vdW  Elec       q    Type
REMARK                         _______ _______ _______ _____ _____    ______ ____
ROOT
ATOM      1  C   UNL     1       5.994   3.933  15.951  0.00  0.00    +0.000 A 
ATOM      2  N   UNL     1       5.215   4.078  14.884  0.00  0.00    +0.000 NA
ATOM      3  N   UNL     1       4.483   5.206  15.174  0.00  0.00    +0.000 NA
ATOM      4  C   UNL     1       4.664   5.443  16.447  0.00  0.00    +0.000 A 
ATOM      5  N   UNL     1       4.228   6.418  17.215  0.00  0.00    +0.000 NA
ATOM      6  C   UNL     1       3.570   6.010  18.248  0.00  0.00    +0.000 A 
ATOM      7  C   UNL     1       3.542   4.605  18.846  0.00  0.00    +0.000 A 
ATOM      8  C   UNL     1       4.453   3.785  18.175  0.00  0.00    +0.000 A 
ATOM      9  N   UNL     1       5.158   4.306  17.025  0.00  0.00    +0.000 N 
ATOM     10  C   UNL     1       2.526   4.429  20.045  0.00  0.00    +0.000 C 
ATOM     11  C   UNL     1       1.073   4.098  19.542  0.00  0.00    +0.000 C 
ATOM     12  C   UNL     1       0.638   2.784  20.177  0.00  0.00    +0.000 C 
ATOM     13  C   UNL     1       1.404   2.714  21.472  0.00  0.00    +0.000 C 
ATOM     14  C   UNL     1       2.778   3.305  21.116  0.00  0.00    +0.000 C 
ATOM     15  C   UNL     1       2.442   5.782  20.867  0.00  0.00    +0.000 C 
ATOM     16  C   UNL     1       2.153   6.990  20.016  0.00  0.00    +0.000 A 
ATOM     17  C   UNL     1       1.387   8.084  20.417  0.00  0.00    +0.000 A 
ATOM     18  C   UNL     1       1.182   9.182  19.545  0.00  0.00    +0.000 A 
ATOM     19  C   UNL     1       1.709   9.204  18.267  0.00  0.00    +0.000 A 
ATOM     20  C   UNL     1       2.456   8.127  17.873  0.00  0.00    +0.000 A 
ATOM     21  C   UNL     1       2.700   7.056  18.757  0.00  0.00    +0.000 A 
ENDROOT
BRANCH   8  22
ATOM     22  O   UNL     1       4.592   2.436  18.447  0.00  0.00    +0.000 OA
ATOM     23  H   UNL     1       4.451   1.944  17.638  0.00  0.00    +0.000 HD
ENDBRANCH   8  22
BRANCH   1  24
ATOM     24  S   UNL     1       7.619   4.770  15.831  0.00  0.00    +0.000 S 
BRANCH  24  26
ATOM     25  C   UNL     1       7.536   4.652  12.810  0.00  0.00    +0.000 C 
ATOM     26  C   UNL     1       7.725   5.491  14.085  0.00  0.00    +0.000 C 
ENDBRANCH  24  26
ENDBRANCH   1  24
TORSDOF 3
ENDMDL
MODEL 3
REMARK VINA RESULT:      -6.9      3.081      6.351
REMARK  Name = 
REMARK  4 active torsions:
REMARK  status: ('A' for Active; 'I' for Inactive)
REMARK    1  A    between atoms: C_1  and  C_2
REMARK    2  A    between atoms: C_2  and  S_3
REMARK    3  A    between atoms: S_3  and  C_4
REMARK    4  A    between atoms: C_11  and  O_12
REMARK                            x       y       z     vdW  Elec       q    Type
REMARK                         _______ _______ _______ _____ _____    ______ ____
ROOT
ATOM      1  C   UNL     1       2.143   3.858  19.311  0.00  0.00    +0.000 A 
ATOM      2  N   UNL     1       1.228   4.494  18.587  0.00  0.00    +0.000 NA
ATOM      3  N   UNL     1       1.692   4.363  17.298  0.00  0.00    +0.000 NA
ATOM      4  C   UNL     1       2.928   3.948  17.395  0.00  0.00    +0.000 A 
ATOM      5  N   UNL     1       3.806   3.626  16.469  0.00  0.00    +0.000 NA
ATOM      6  C   UNL     1       4.913   4.287  16.551  0.00  0.00    +0.000 A 
ATOM      7  C   UNL     1       5.435   5.097  17.736  0.00  0.00    +0.000 A 
ATOM      8  C   UNL     1       4.581   4.939  18.832  0.00  0.00    +0.000 A 
ATOM      9  N   UNL     1       3.358   4.184  18.671  0.00  0.00    +0.000 N 
ATOM     10  C   UNL     1       6.775   5.884  17.447  0.00  0.00    +0.000 C 
ATOM     11  C   UNL     1       6.502   7.284  16.783  0.00  0.00    +0.000 C 
ATOM     12  C   UNL     1       7.134   8.357  17.661  0.00  0.00    +0.000 C 
ATOM     13  C   UNL     1       8.279   7.661  18.350  0.00  0.00    +0.000 C 
ATOM     14  C   UNL     1       7.730   6.254  18.639  0.00  0.00    +0.000 C 
ATOM     15  C   UNL     1       7.666   5.050  16.435  0.00  0.00    +0.000 C 
ATOM     16  C   UNL     1       6.938   4.637  15.184  0.00  0.00    +0.000 A 
ATOM     17  C   UNL     1       7.515   4.541  13.918  0.00  0.00    +0.000 A 
ATOM     18  C   UNL     1       6.746   4.130  12.802  0.00  0.00    +0.000 A 
ATOM     19  C   UNL     1       5.401   3.829  12.916  0.00  0.00    +0.000 A 
ATOM     20  C   UNL     1       4.834   3.929  14.158  0.00  0.00    +0.000 A 
ATOM     21  C   UNL     1       5.611   4.292  15.278  0.00  0.00    +0.000 A 
ENDROOT
BRANCH   8  22
ATOM     22  O   UNL     1       4.758   5.615  20.025  0.00  0.00    +0.000 OA
ATOM     23  H   UNL     1       5.131   6.477  19.838  0.00  0.00    +0.000 HD
ENDBRANCH   8  22
BRANCH   1  24
ATOM     24  S   UNL     1       1.798   2.079  19.585  0.00  0.00    +0.000 S 
BRANCH  24  26
ATOM     25  C   UNL     1       4.709   1.460  20.118  0.00  0.00    +0.000 C 
ATOM     26  C   UNL     1       3.432   1.166  19.314  0.00  0.00    +0.000 C 
ENDBRANCH  24  26
ENDBRANCH   1  24
TORSDOF 3
ENDMDL
MODEL 4
REMARK VINA RESULT:      -6.8      6.966     10.132
REMARK  Name = 
REMARK  4 active torsions:
REMARK  status: ('A' for Active; 'I' for Inactive)
REMARK    1  A    between atoms: C_1  and  C_2
REMARK    2  A    between atoms: C_2  and  S_3
REMARK    3  A    between atoms: S_3  and  C_4
REMARK    4  A    between atoms: C_11  and  O_12
REMARK                            x       y       z     vdW  Elec       q    Type
REMARK                         _______ _______ _______ _____ _____    ______ ____
ROOT
ATOM      1  C   UNL     1      -2.756  13.530  22.929  0.00  0.00    +0.000 A 
ATOM      2  N   UNL     1      -3.335  12.574  23.647  0.00  0.00    +0.000 NA
ATOM      3  N   UNL     1      -2.455  11.521  23.546  0.00  0.00    +0.000 NA
ATOM      4  C   UNL     1      -1.627  11.828  22.581  0.00  0.00    +0.000 A 
ATOM      5  N   UNL     1      -0.577  11.191  22.109  0.00  0.00    +0.000 NA
ATOM      6  C   UNL     1      -0.639  10.956  20.840  0.00  0.00    +0.000 A 
ATOM      7  C   UNL     1      -1.565  11.603  19.813  0.00  0.00    +0.000 A 
ATOM      8  C   UNL     1      -2.307  12.622  20.416  0.00  0.00    +0.000 A 
ATOM      9  N   UNL     1      -2.189  12.832  21.842  0.00  0.00    +0.000 N 
ATOM     10  C   UNL     1      -1.457  10.986  18.361  0.00  0.00    +0.000 C 
ATOM     11  C   UNL     1      -2.373   9.718  18.191  0.00  0.00    +0.000 C 
ATOM     12  C   UNL     1      -3.319   9.969  17.024  0.00  0.00    +0.000 C 
ATOM     13  C   UNL     1      -2.578  10.928  16.130  0.00  0.00    +0.000 C 
ATOM     14  C   UNL     1      -1.852  11.860  17.115  0.00  0.00    +0.000 C 
ATOM     15  C   UNL     1       0.037  10.525  18.095  0.00  0.00    +0.000 C 
ATOM     16  C   UNL     1       0.593   9.625  19.166  0.00  0.00    +0.000 A 
ATOM     17  C   UNL     1       1.485   8.577  18.945  0.00  0.00    +0.000 A 
ATOM     18  C   UNL     1       1.962   7.792  20.023  0.00  0.00    +0.000 A 
ATOM     19  C   UNL     1       1.550   8.017  21.324  0.00  0.00    +0.000 A 
ATOM     20  C   UNL     1       0.669   9.043  21.540  0.00  0.00    +0.000 A 
ATOM     21  C   UNL     1       0.232   9.854  20.472  0.00  0.00    +0.000 A 
ENDROOT
BRANCH   8  22
ATOM     22  O   UNL     1      -3.286  13.335  19.749  0.00  0.00    +0.000 OA
ATOM     23  H   UNL     1      -2.924  14.180  19.482  0.00  0.00    +0.000 HD
ENDBRANCH   8  22
BRANCH   1  24
ATOM     24  S   UNL     1      -1.645  14.633  23.881  0.00  0.00    +0.000 S 
BRANCH  24  26
ATOM     25  C   UNL     1      -3.950  16.294  24.917  0.00  0.00    +0.000 C 
ATOM     26  C   UNL     1      -2.708  15.440  25.222  0.00  0.00    +0.000 C 
ENDBRANCH  24  26
ENDBRANCH   1  24
TORSDOF 3
ENDMDL
MODEL 5
REMARK VINA RESULT:      -6.7      9.060     11.451
REMARK  Name = 
REMARK  4 active torsions:
REMARK  status: ('A' for Active; 'I' for Inactive)
REMARK    1  A    between atoms: C_1  and  C_2
REMARK    2  A    between atoms: C_2  and  S_3
REMARK    3  A    between atoms: S_3  and  C_4
REMARK    4  A    between atoms: C_11  and  O_12
REMARK                            x       y       z     vdW  Elec       q    Type
REMARK                         _______ _______ _______ _____ _____    ______ ____
ROOT
ATOM      1  C   UNL     1      -5.397  14.213  21.982  0.00  0.00    +0.000 A 
ATOM      2  N   UNL     1      -5.746  15.139  21.095  0.00  0.00    +0.000 NA
ATOM      3  N   UNL     1      -5.696  14.467  19.895  0.00  0.00    +0.000 NA
ATOM      4  C   UNL     1      -5.061  13.348  20.129  0.00  0.00    +0.000 A 
ATOM      5  N   UNL     1      -4.782  12.332  19.340  0.00  0.00    +0.000 NA
ATOM      6  C   UNL     1      -3.523  12.051  19.284  0.00  0.00    +0.000 A 
ATOM      7  C   UNL     1      -2.419  12.498  20.240  0.00  0.00    +0.000 A 
ATOM      8  C   UNL     1      -2.976  13.196  21.315  0.00  0.00    +0.000 A 
ATOM      9  N   UNL     1      -4.394  13.476  21.316  0.00  0.00    +0.000 N 
ATOM     10  C   UNL     1      -0.963  12.068  19.799  0.00  0.00    +0.000 C 
ATOM     11  C   UNL     1      -0.325  13.097  18.795  0.00  0.00    +0.000 C 
ATOM     12  C   UNL     1       0.988  13.590  19.390  0.00  0.00    +0.000 C 
ATOM     13  C   UNL     1       1.459  12.459  20.265  0.00  0.00    +0.000 C 
ATOM     14  C   UNL     1       0.163  11.912  20.885  0.00  0.00    +0.000 C 
ATOM     15  C   UNL     1      -1.030  10.668  19.057  0.00  0.00    +0.000 C 
ATOM     16  C   UNL     1      -2.028  10.626  17.931  0.00  0.00    +0.000 A 
ATOM     17  C   UNL     1      -1.868   9.906  16.748  0.00  0.00    +0.000 A 
ATOM     18  C   UNL     1      -2.874   9.920  15.750  0.00  0.00    +0.000 A 
ATOM     19  C   UNL     1      -4.034  10.658  15.898  0.00  0.00    +0.000 A 
ATOM     20  C   UNL     1      -4.188  11.369  17.057  0.00  0.00    +0.000 A 
ATOM     21  C   UNL     1      -3.208  11.316  18.071  0.00  0.00    +0.000 A 
ENDROOT
BRANCH   8  22
ATOM     22  O   UNL     1      -2.211  13.789  22.303  0.00  0.00    +0.000 OA
ATOM     23  H   UNL     1      -2.784  14.033  23.030  0.00  0.00    +0.000 HD
ENDBRANCH   8  22
BRANCH   1  24
ATOM     24  S   UNL     1      -6.797  13.264  22.687  0.00  0.00    +0.000 S 
BRANCH  24  26
ATOM     25  C   UNL     1      -4.746  12.280  24.679  0.00  0.00    +0.000 C 
ATOM     26  C   UNL     1      -6.214  12.611  24.364  0.00  0.00    +0.000 C 
ENDBRANCH  24  26
ENDBRANCH   1  24
TORSDOF 3
ENDMDL
MODEL 6
REMARK VINA RESULT:      -6.5      7.176      8.806
REMARK  Name = 
REMARK  4 active torsions:
REMARK  status: ('A' for Active; 'I' for Inactive)
REMARK    1  A    between atoms: C_1  and  C_2
REMARK    2  A    between atoms: C_2  and  S_3
REMARK    3  A    between atoms: S_3  and  C_4
REMARK    4  A    between atoms: C_11  and  O_12
REMARK                            x       y       z     vdW  Elec       q    Type
REMARK                         _______ _______ _______ _____ _____    ______ ____
ROOT
ATOM      1  C   UNL     1       4.142  14.951  18.072  0.00  0.00    +0.000 A 
ATOM      2  N   UNL     1       3.558  16.115  17.810  0.00  0.00    +0.000 NA
ATOM      3  N   UNL     1       2.742  16.315  18.900  0.00  0.00    +0.000 NA
ATOM      4  C   UNL     1       2.687  15.171  19.531  0.00  0.00    +0.000 A 
ATOM      5  N   UNL     1       2.085  14.829  20.650  0.00  0.00    +0.000 NA
ATOM      6  C   UNL     1       1.272  13.834  20.519  0.00  0.00    +0.000 A 
ATOM      7  C   UNL     1       1.196  12.833  19.368  0.00  0.00    +0.000 A 
ATOM      8  C   UNL     1       2.242  13.060  18.470  0.00  0.00    +0.000 A 
ATOM      9  N   UNL     1       3.116  14.193  18.677  0.00  0.00    +0.000 N 
ATOM     10  C   UNL     1      -0.007  11.812  19.474  0.00  0.00    +0.000 C 
ATOM     11  C   UNL     1      -1.334  12.402  18.872  0.00  0.00    +0.000 C 
ATOM     12  C   UNL     1      -1.823  11.457  17.781  0.00  0.00    +0.000 C 
ATOM     13  C   UNL     1      -1.293  10.105  18.182  0.00  0.00    +0.000 C 
ATOM     14  C   UNL     1       0.098  10.414  18.760  0.00  0.00    +0.000 C 
ATOM     15  C   UNL     1      -0.287  11.486  21.000  0.00  0.00    +0.000 C 
ATOM     16  C   UNL     1      -0.470  12.709  21.857  0.00  0.00    +0.000 A 
ATOM     17  C   UNL     1      -1.337  12.800  22.946  0.00  0.00    +0.000 A 
ATOM     18  C   UNL     1      -1.430  13.995  23.700  0.00  0.00    +0.000 A 
ATOM     19  C   UNL     1      -0.687  15.117  23.378  0.00  0.00    +0.000 A 
ATOM     20  C   UNL     1       0.158  15.029  22.306  0.00  0.00    +0.000 A 
ATOM     21  C   UNL     1       0.286  13.824  21.585  0.00  0.00    +0.000 A 
ENDROOT
BRANCH   8  22
ATOM     22  O   UNL     1       2.384  12.356  17.288  0.00  0.00    +0.000 OA
ATOM     23  H   UNL     1       3.271  12.492  16.954  0.00  0.00    +0.000 HD
ENDBRANCH   8  22
BRANCH   1  24
ATOM     24  S   UNL     1       5.728  15.079  18.979  0.00  0.00    +0.000 S 
BRANCH  24  26
ATOM     25  C   UNL     1       7.428  13.193  17.336  0.00  0.00    +0.000 C 
ATOM     26  C   UNL     1       7.092  14.637  17.745  0.00  0.00    +0.000 C 
ENDBRANCH  24  26
ENDBRANCH   1  24
TORSDOF 3
ENDMDL
MODEL 7
REMARK VINA RESULT:      -6.5      9.202     11.126
REMARK  Name = 
REMARK  4 active torsions:
REMARK  status: ('A' for Active; 'I' for Inactive)
REMARK    1  A    between atoms: C_1  and  C_2
REMARK    2  A    between atoms: C_2  and  S_3
REMARK    3  A    between atoms: S_3  and  C_4
REMARK    4  A    between atoms: C_11  and  O_12
REMARK                            x       y       z     vdW  Elec       q    Type
REMARK                         _______ _______ _______ _____ _____    ______ ____
ROOT
ATOM      1  C   UNL     1       7.785  11.641  24.118  0.00  0.00    +0.000 A 
ATOM      2  N   UNL     1       8.479  12.457  24.904  0.00  0.00    +0.000 NA
ATOM      3  N   UNL     1       8.363  13.678  24.278  0.00  0.00    +0.000 NA
ATOM      4  C   UNL     1       7.894  13.433  23.083  0.00  0.00    +0.000 A 
ATOM      5  N   UNL     1       7.560  14.245  22.103  0.00  0.00    +0.000 NA
ATOM      6  C   UNL     1       8.171  13.997  20.993  0.00  0.00    +0.000 A 
ATOM      7  C   UNL     1       8.926  12.728  20.602  0.00  0.00    +0.000 A 
ATOM      8  C   UNL     1       8.775  11.759  21.599  0.00  0.00    +0.000 A 
ATOM      9  N   UNL     1       8.077  12.104  22.817  0.00  0.00    +0.000 N 
ATOM     10  C   UNL     1       9.663  12.813  19.206  0.00  0.00    +0.000 C 
ATOM     11  C   UNL     1      11.090  13.461  19.334  0.00  0.00    +0.000 C 
ATOM     12  C   UNL     1      12.112  12.474  18.784  0.00  0.00    +0.000 C 
ATOM     13  C   UNL     1      11.350  11.663  17.768  0.00  0.00    +0.000 C 
ATOM     14  C   UNL     1       9.960  11.494  18.404  0.00  0.00    +0.000 C 
ATOM     15  C   UNL     1       8.820  13.725  18.221  0.00  0.00    +0.000 C 
ATOM     16  C   UNL     1       8.471  15.074  18.792  0.00  0.00    +0.000 A 
ATOM     17  C   UNL     1       8.385  16.255  18.056  0.00  0.00    +0.000 A 
ATOM     18  C   UNL     1       8.037  17.475  18.685  0.00  0.00    +0.000 A 
ATOM     19  C   UNL     1       7.791  17.549  20.044  0.00  0.00    +0.000 A 
ATOM     20  C   UNL     1       7.881  16.390  20.766  0.00  0.00    +0.000 A 
ATOM     21  C   UNL     1       8.181  15.166  20.132  0.00  0.00    +0.000 A 
ENDROOT
BRANCH   8  22
ATOM     22  O   UNL     1       9.411  10.532  21.556  0.00  0.00    +0.000 OA
ATOM     23  H   UNL     1       9.142  10.020  22.320  0.00  0.00    +0.000 HD
ENDBRANCH   8  22
BRANCH   1  24
ATOM     24  S   UNL     1       6.017  11.472  24.565  0.00  0.00    +0.000 S 
BRANCH  24  26
ATOM     25  C   UNL     1       5.149  13.036  27.003  0.00  0.00    +0.000 C 
ATOM     26  C   UNL     1       5.893  11.824  26.419  0.00  0.00    +0.000 C 
ENDBRANCH  24  26
ENDBRANCH   1  24
TORSDOF 3
ENDMDL
MODEL 8
REMARK VINA RESULT:      -6.4      7.940     11.138
REMARK  Name = 
REMARK  4 active torsions:
REMARK  status: ('A' for Active; 'I' for Inactive)
REMARK    1  A    between atoms: C_1  and  C_2
REMARK    2  A    between atoms: C_2  and  S_3
REMARK    3  A    between atoms: S_3  and  C_4
REMARK    4  A    between atoms: C_11  and  O_12
REMARK                            x       y       z     vdW  Elec       q    Type
REMARK                         _______ _______ _______ _____ _____    ______ ____
ROOT
ATOM      1  C   UNL     1      -4.624  14.099  22.591  0.00  0.00    +0.000 A 
ATOM      2  N   UNL     1      -5.230  13.160  23.309  0.00  0.00    +0.000 NA
ATOM      3  N   UNL     1      -4.218  12.270  23.590  0.00  0.00    +0.000 NA
ATOM      4  C   UNL     1      -3.224  12.585  22.800  0.00  0.00    +0.000 A 
ATOM      5  N   UNL     1      -2.013  12.083  22.694  0.00  0.00    +0.000 NA
ATOM      6  C   UNL     1      -1.723  11.677  21.502  0.00  0.00    +0.000 A 
ATOM      7  C   UNL     1      -2.440  12.014  20.197  0.00  0.00    +0.000 A 
ATOM      8  C   UNL     1      -3.440  12.961  20.436  0.00  0.00    +0.000 A 
ATOM      9  N   UNL     1      -3.713  13.373  21.795  0.00  0.00    +0.000 N 
ATOM     10  C   UNL     1      -1.888  11.241  18.933  0.00  0.00    +0.000 C 
ATOM     11  C   UNL     1      -2.552   9.824  18.776  0.00  0.00    +0.000 C 
ATOM     12  C   UNL     1      -3.201   9.753  17.399  0.00  0.00    +0.000 C 
ATOM     13  C   UNL     1      -2.395  10.700  16.549  0.00  0.00    +0.000 C 
ATOM     14  C   UNL     1      -2.073  11.863  17.501  0.00  0.00    +0.000 C 
ATOM     15  C   UNL     1      -0.328  11.013  19.096  0.00  0.00    +0.000 C 
ATOM     16  C   UNL     1       0.058  10.369  20.401  0.00  0.00    +0.000 A 
ATOM     17  C   UNL     1       1.111   9.471  20.568  0.00  0.00    +0.000 A 
ATOM     18  C   UNL     1       1.403   8.927  21.843  0.00  0.00    +0.000 A 
ATOM     19  C   UNL     1       0.651   9.247  22.960  0.00  0.00    +0.000 A 
ATOM     20  C   UNL     1      -0.385  10.125  22.793  0.00  0.00    +0.000 A 
ATOM     21  C   UNL     1      -0.646  10.703  21.533  0.00  0.00    +0.000 A 
ENDROOT
BRANCH   8  22
ATOM     22  O   UNL     1      -4.308  13.401  19.453  0.00  0.00    +0.000 OA
ATOM     23  H   UNL     1      -5.202  13.364  19.793  0.00  0.00    +0.000 HD
ENDBRANCH   8  22
BRANCH   1  24
ATOM     24  S   UNL     1      -3.947  15.492  23.571  0.00  0.00    +0.000 S 
BRANCH  24  26
ATOM     25  C   UNL     1      -6.755  16.612  23.539  0.00  0.00    +0.000 C 
ATOM     26  C   UNL     1      -5.432  16.412  24.296  0.00  0.00    +0.000 C 
ENDBRANCH  24  26
ENDBRANCH   1  24
TORSDOF 3
ENDMDL
MODEL 9
REMARK VINA RESULT:      -6.4      7.490     10.437
REMARK  Name = 
REMARK  4 active torsions:
REMARK  status: ('A' for Active; 'I' for Inactive)
REMARK    1  A    between atoms: C_1  and  C_2
REMARK    2  A    between atoms: C_2  and  S_3
REMARK    3  A    between atoms: S_3  and  C_4
REMARK    4  A    between atoms: C_11  and  O_12
REMARK                            x       y       z     vdW  Elec       q    Type
REMARK                         _______ _______ _______ _____ _____    ______ ____
ROOT
ATOM      1  C   UNL     1      -4.086  13.913  22.690  0.00  0.00    +0.000 A 
ATOM      2  N   UNL     1      -4.655  12.962  23.423  0.00  0.00    +0.000 NA
ATOM      3  N   UNL     1      -3.660  12.021  23.555  0.00  0.00    +0.000 NA
ATOM      4  C   UNL     1      -2.740  12.337  22.682  0.00  0.00    +0.000 A 
ATOM      5  N   UNL     1      -1.569  11.793  22.426  0.00  0.00    +0.000 NA
ATOM      6  C   UNL     1      -1.420  11.438  21.193  0.00  0.00    +0.000 A 
ATOM      7  C   UNL     1      -2.252  11.868  19.987  0.00  0.00    +0.000 A 
ATOM      8  C   UNL     1      -3.180  12.840  20.373  0.00  0.00    +0.000 A 
ATOM      9  N   UNL     1      -3.294  13.193  21.770  0.00  0.00    +0.000 N 
ATOM     10  C   UNL     1      -1.868  11.139  18.638  0.00  0.00    +0.000 C 
ATOM     11  C   UNL     1      -2.606   9.758  18.485  0.00  0.00    +0.000 C 
ATOM     12  C   UNL     1      -3.394   9.783  17.182  0.00  0.00    +0.000 C 
ATOM     13  C   UNL     1      -2.639  10.739  16.297  0.00  0.00    +0.000 C 
ATOM     14  C   UNL     1      -2.170  11.840  17.264  0.00  0.00    +0.000 C 
ATOM     15  C   UNL     1      -0.310  10.843  18.626  0.00  0.00    +0.000 C 
ATOM     16  C   UNL     1       0.179  10.119  19.853  0.00  0.00    +0.000 A 
ATOM     17  C   UNL     1       1.202   9.172  19.867  0.00  0.00    +0.000 A 
ATOM     18  C   UNL     1       1.600   8.554  21.078  0.00  0.00    +0.000 A 
ATOM     19  C   UNL     1       0.981   8.846  22.280  0.00  0.00    +0.000 A 
ATOM     20  C   UNL     1      -0.028   9.771  22.264  0.00  0.00    +0.000 A 
ATOM     21  C   UNL     1      -0.390  10.422  21.066  0.00  0.00    +0.000 A 
ENDROOT
BRANCH   8  22
ATOM     22  O   UNL     1      -4.123  13.363  19.507  0.00  0.00    +0.000 OA
ATOM     23  H   UNL     1      -3.720  13.481  18.647  0.00  0.00    +0.000 HD
ENDBRANCH   8  22
BRANCH   1  24
ATOM     24  S   UNL     1      -3.251  15.226  23.657  0.00  0.00    +0.000 S 
BRANCH  24  26
ATOM     25  C   UNL     1      -1.337  16.037  21.461  0.00  0.00    +0.000 C 
ATOM     26  C   UNL     1      -2.492  16.420  22.401  0.00  0.00    +0.000 C 
ENDBRANCH  24  26
ENDBRANCH   1  24
TORSDOF 3
ENDMDL
