MODEL 1
REMARK VINA RESULT:      -7.3      0.000      0.000
REMARK  Name = 
REMARK  4 active torsions:
REMARK  status: ('A' for Active; 'I' for Inactive)
REMARK    1  A    between atoms: C_2  and  C_3
REMARK    2  A    between atoms: C_2  and  C_4
REMARK    3  A    between atoms: C_7  and  C_8
REMARK    4  A    between atoms: C_12  and  C_13
REMARK                            x       y       z     vdW  Elec       q    Type
REMARK                         _______ _______ _______ _____ _____    ______ ____
ROOT
ATOM      1  C   UNL     1       2.669   3.578  17.454  0.00  0.00    +0.000 C 
ATOM      2  C   UNL     1       1.832   2.309  17.805  0.00  0.00    +0.000 C 
ATOM      3  C   UNL     1       1.446   2.141  19.254  0.00  0.00    +0.000 C 
ATOM      4  C   UNL     1       1.552   3.096  20.196  0.00  0.00    +0.000 C 
ATOM      5  C   UNL     1       1.119   2.870  21.616  0.00  0.00    +0.000 C 
ATOM      6  C   UNL     1       2.052   4.393  19.821  0.00  0.00    +0.000 C 
ATOM      7  C   UNL     1       2.295   5.478  20.554  0.00  0.00    +0.000 C 
ATOM      8  O   UNL     1       2.749   6.590  19.863  0.00  0.00    +0.000 OA
ATOM      9  C   UNL     1       3.062   6.074  18.528  0.00  0.00    +0.000 C 
ATOM     10  C   UNL     1       2.281   4.744  18.393  0.00  0.00    +0.000 C 
ENDROOT
BRANCH   9  11
ATOM     11  C   UNL     1       4.559   6.176  18.336  0.00  0.00    +0.000 A 
ATOM     12  C   UNL     1       5.422   5.607  19.290  0.00  0.00    +0.000 A 
ATOM     13  C   UNL     1       6.811   5.657  19.128  0.00  0.00    +0.000 A 
ATOM     14  C   UNL     1       7.364   6.282  18.013  0.00  0.00    +0.000 A 
ATOM     15  C   UNL     1       6.525   6.838  17.052  0.00  0.00    +0.000 A 
ATOM     16  C   UNL     1       5.142   6.765  17.208  0.00  0.00    +0.000 A 
ATOM     17  F   UNL     1       4.383   7.301  16.241  0.00  0.00    +0.000 F 
ENDBRANCH   9  11
BRANCH   1  19
ATOM     18  C   UNL     1       4.845   3.573  16.165  0.00  0.00    +0.000 C 
ATOM     19  C   UNL     1       4.135   3.217  17.248  0.00  0.00    +0.000 C 
ATOM     20  C   UNL     1       4.799   2.495  18.393  0.00  0.00    +0.000 C 
ENDBRANCH   1  19
TORSDOF 2
ENDMDL
MODEL 2
REMARK VINA RESULT:      -7.2      1.574      2.309
REMARK  Name = 
REMARK  4 active torsions:
REMARK  status: ('A' for Active; 'I' for Inactive)
REMARK    1  A    between atoms: C_2  and  C_3
REMARK    2  A    between atoms: C_2  and  C_4
REMARK    3  A    between atoms: C_7  and  C_8
REMARK    4  A    between atoms: C_12  and  C_13
REMARK                            x       y       z     vdW  Elec       q    Type
REMARK                         _______ _______ _______ _____ _____    ______ ____
ROOT
ATOM      1  C   UNL     1       2.365   3.737  18.381  0.00  0.00    +0.000 C 
ATOM      2  C   UNL     1       1.261   3.489  19.454  0.00  0.00    +0.000 C 
ATOM      3  C   UNL     1       1.022   4.607  20.440  0.00  0.00    +0.000 C 
ATOM      4  C   UNL     1       1.501   5.859  20.318  0.00  0.00    +0.000 C 
ATOM      5  C   UNL     1       1.199   6.932  21.323  0.00  0.00    +0.000 C 
ATOM      6  C   UNL     1       2.289   6.194  19.161  0.00  0.00    +0.000 C 
ATOM      7  C   UNL     1       2.909   7.324  18.826  0.00  0.00    +0.000 C 
ATOM      8  O   UNL     1       3.564   7.321  17.605  0.00  0.00    +0.000 OA
ATOM      9  C   UNL     1       3.558   5.912  17.203  0.00  0.00    +0.000 C 
ATOM     10  C   UNL     1       2.431   5.240  18.026  0.00  0.00    +0.000 C 
ENDROOT
BRANCH   9  11
ATOM     11  C   UNL     1       4.990   5.425  17.214  0.00  0.00    +0.000 A 
ATOM     12  C   UNL     1       5.830   5.764  18.291  0.00  0.00    +0.000 A 
ATOM     13  C   UNL     1       7.152   5.306  18.348  0.00  0.00    +0.000 A 
ATOM     14  C   UNL     1       7.660   4.506  17.327  0.00  0.00    +0.000 A 
ATOM     15  C   UNL     1       6.839   4.150  16.262  0.00  0.00    +0.000 A 
ATOM     16  C   UNL     1       5.517   4.591  16.222  0.00  0.00    +0.000 A 
ATOM     17  F   UNL     1       4.767   4.201  15.181  0.00  0.00    +0.000 F 
ENDBRANCH   9  11
BRANCH   1  19
ATOM     18  C   UNL     1       4.374   3.227  19.830  0.00  0.00    +0.000 C 
ATOM     19  C   UNL     1       3.639   2.979  18.733  0.00  0.00    +0.000 C 
ATOM     20  C   UNL     1       4.000   1.841  17.813  0.00  0.00    +0.000 C 
ENDBRANCH   1  19
TORSDOF 2
ENDMDL
MODEL 3
REMARK VINA RESULT:      -7.2      1.837      3.213
REMARK  Name = 
REMARK  4 active torsions:
REMARK  status: ('A' for Active; 'I' for Inactive)
REMARK    1  A    between atoms: C_2  and  C_3
REMARK    2  A    between atoms: C_2  and  C_4
REMARK    3  A    between atoms: C_7  and  C_8
REMARK    4  A    between atoms: C_12  and  C_13
REMARK                            x       y       z     vdW  Elec       q    Type
REMARK                         _______ _______ _______ _____ _____    ______ ____
ROOT
ATOM      1  C   UNL     1       3.025   6.227  19.613  0.00  0.00    +0.000 C 
ATOM      2  C   UNL     1       1.716   6.153  20.458  0.00  0.00    +0.000 C 
ATOM      3  C   UNL     1       1.244   4.772  20.844  0.00  0.00    +0.000 C 
ATOM      4  C   UNL     1       1.976   3.648  20.729  0.00  0.00    +0.000 C 
ATOM      5  C   UNL     1       1.454   2.308  21.161  0.00  0.00    +0.000 C 
ATOM      6  C   UNL     1       3.319   3.738  20.221  0.00  0.00    +0.000 C 
ATOM      7  C   UNL     1       4.221   2.791  19.970  0.00  0.00    +0.000 C 
ATOM      8  O   UNL     1       5.452   3.230  19.509  0.00  0.00    +0.000 OA
ATOM      9  C   UNL     1       5.231   4.645  19.201  0.00  0.00    +0.000 C 
ATOM     10  C   UNL     1       3.966   5.059  19.991  0.00  0.00    +0.000 C 
ENDROOT
BRANCH   9  11
ATOM     11  C   UNL     1       5.362   4.816  17.704  0.00  0.00    +0.000 A 
ATOM     12  C   UNL     1       4.850   3.826  16.845  0.00  0.00    +0.000 A 
ATOM     13  C   UNL     1       4.928   3.966  15.454  0.00  0.00    +0.000 A 
ATOM     14  C   UNL     1       5.524   5.094  14.897  0.00  0.00    +0.000 A 
ATOM     15  C   UNL     1       6.024   6.089  15.731  0.00  0.00    +0.000 A 
ATOM     16  C   UNL     1       5.924   5.955  17.115  0.00  0.00    +0.000 A 
ATOM     17  F   UNL     1       6.405   6.953  17.868  0.00  0.00    +0.000 F 
ENDBRANCH   9  11
BRANCH   1  19
ATOM     18  C   UNL     1       2.010   5.671  17.364  0.00  0.00    +0.000 C 
ATOM     19  C   UNL     1       2.707   6.509  18.150  0.00  0.00    +0.000 C 
ATOM     20  C   UNL     1       3.147   7.854  17.632  0.00  0.00    +0.000 C 
ENDBRANCH   1  19
TORSDOF 2
ENDMDL
MODEL 4
REMARK VINA RESULT:      -6.9      1.930      5.048
REMARK  Name = 
REMARK  4 active torsions:
REMARK  status: ('A' for Active; 'I' for Inactive)
REMARK    1  A    between atoms: C_2  and  C_3
REMARK    2  A    between atoms: C_2  and  C_4
REMARK    3  A    between atoms: C_7  and  C_8
REMARK    4  A    between atoms: C_12  and  C_13
REMARK                            x       y       z     vdW  Elec       q    Type
REMARK                         _______ _______ _______ _____ _____    ______ ____
ROOT
ATOM      1  C   UNL     1       5.403   4.441  19.004  0.00  0.00    +0.000 C 
ATOM      2  C   UNL     1       6.600   4.577  18.012  0.00  0.00    +0.000 C 
ATOM      3  C   UNL     1       6.353   5.402  16.772  0.00  0.00    +0.000 C 
ATOM      4  C   UNL     1       5.291   6.207  16.581  0.00  0.00    +0.000 C 
ATOM      5  C   UNL     1       5.123   7.024  15.333  0.00  0.00    +0.000 C 
ATOM      6  C   UNL     1       4.309   6.327  17.627  0.00  0.00    +0.000 C 
ATOM      7  C   UNL     1       3.165   7.006  17.674  0.00  0.00    +0.000 C 
ATOM      8  O   UNL     1       2.461   6.932  18.864  0.00  0.00    +0.000 OA
ATOM      9  C   UNL     1       3.136   5.866  19.609  0.00  0.00    +0.000 C 
ATOM     10  C   UNL     1       4.538   5.721  18.968  0.00  0.00    +0.000 C 
ENDROOT
BRANCH   9  11
ATOM     11  C   UNL     1       2.166   4.713  19.742  0.00  0.00    +0.000 A 
ATOM     12  C   UNL     1       1.497   4.233  18.600  0.00  0.00    +0.000 A 
ATOM     13  C   UNL     1       0.616   3.149  18.682  0.00  0.00    +0.000 A 
ATOM     14  C   UNL     1       0.381   2.528  19.906  0.00  0.00    +0.000 A 
ATOM     15  C   UNL     1       1.044   2.981  21.043  0.00  0.00    +0.000 A 
ATOM     16  C   UNL     1       1.938   4.047  20.951  0.00  0.00    +0.000 A 
ATOM     17  F   UNL     1       2.562   4.427  22.075  0.00  0.00    +0.000 F 
ENDBRANCH   9  11
BRANCH   1  19
ATOM     18  C   UNL     1       4.272   2.582  17.715  0.00  0.00    +0.000 C 
ATOM     19  C   UNL     1       4.748   3.071  18.872  0.00  0.00    +0.000 C 
ATOM     20  C   UNL     1       4.738   2.227  20.121  0.00  0.00    +0.000 C 
ENDBRANCH   1  19
TORSDOF 2
ENDMDL
MODEL 5
REMARK VINA RESULT:      -6.9      2.031      3.326
REMARK  Name = 
REMARK  4 active torsions:
REMARK  status: ('A' for Active; 'I' for Inactive)
REMARK    1  A    between atoms: C_2  and  C_3
REMARK    2  A    between atoms: C_2  and  C_4
REMARK    3  A    between atoms: C_7  and  C_8
REMARK    4  A    between atoms: C_12  and  C_13
REMARK                            x       y       z     vdW  Elec       q    Type
REMARK                         _______ _______ _______ _____ _____    ______ ____
ROOT
ATOM      1  C   UNL     1       3.154   6.181  19.578  0.00  0.00    +0.000 C 
ATOM      2  C   UNL     1       1.821   6.198  20.389  0.00  0.00    +0.000 C 
ATOM      3  C   UNL     1       1.250   4.854  20.769  0.00  0.00    +0.000 C 
ATOM      4  C   UNL     1       1.909   3.684  20.680  0.00  0.00    +0.000 C 
ATOM      5  C   UNL     1       1.290   2.384  21.105  0.00  0.00    +0.000 C 
ATOM      6  C   UNL     1       3.269   3.683  20.207  0.00  0.00    +0.000 C 
ATOM      7  C   UNL     1       4.114   2.678  19.985  0.00  0.00    +0.000 C 
ATOM      8  O   UNL     1       5.382   3.032  19.555  0.00  0.00    +0.000 OA
ATOM      9  C   UNL     1       5.262   4.456  19.233  0.00  0.00    +0.000 C 
ATOM     10  C   UNL     1       4.006   4.958  19.988  0.00  0.00    +0.000 C 
ENDROOT
BRANCH   9  11
ATOM     11  C   UNL     1       5.443   4.607  17.740  0.00  0.00    +0.000 A 
ATOM     12  C   UNL     1       6.451   5.455  17.244  0.00  0.00    +0.000 A 
ATOM     13  C   UNL     1       6.666   5.595  15.868  0.00  0.00    +0.000 A 
ATOM     14  C   UNL     1       5.874   4.895  14.962  0.00  0.00    +0.000 A 
ATOM     15  C   UNL     1       4.882   4.041  15.434  0.00  0.00    +0.000 A 
ATOM     16  C   UNL     1       4.687   3.889  16.806  0.00  0.00    +0.000 A 
ATOM     17  F   UNL     1       3.730   3.039  17.203  0.00  0.00    +0.000 F 
ENDBRANCH   9  11
BRANCH   1  19
ATOM     18  C   UNL     1       1.971   5.829  17.371  0.00  0.00    +0.000 C 
ATOM     19  C   UNL     1       2.893   6.473  18.106  0.00  0.00    +0.000 C 
ATOM     20  C   UNL     1       3.680   7.614  17.515  0.00  0.00    +0.000 C 
ENDBRANCH   1  19
TORSDOF 2
ENDMDL
MODEL 6
REMARK VINA RESULT:      -6.9      1.639      2.524
REMARK  Name = 
REMARK  4 active torsions:
REMARK  status: ('A' for Active; 'I' for Inactive)
REMARK    1  A    between atoms: C_2  and  C_3
REMARK    2  A    between atoms: C_2  and  C_4
REMARK    3  A    between atoms: C_7  and  C_8
REMARK    4  A    between atoms: C_12  and  C_13
REMARK                            x       y       z     vdW  Elec       q    Type
REMARK                         _______ _______ _______ _____ _____    ______ ____
ROOT
ATOM      1  C   UNL     1       2.294   3.668  18.411  0.00  0.00    +0.000 C 
ATOM      2  C   UNL     1       1.217   3.448  19.519  0.00  0.00    +0.000 C 
ATOM      3  C   UNL     1       1.024   4.580  20.499  0.00  0.00    +0.000 C 
ATOM      4  C   UNL     1       1.517   5.823  20.349  0.00  0.00    +0.000 C 
ATOM      5  C   UNL     1       1.260   6.911  21.351  0.00  0.00    +0.000 C 
ATOM      6  C   UNL     1       2.276   6.134  19.166  0.00  0.00    +0.000 C 
ATOM      7  C   UNL     1       2.902   7.251  18.801  0.00  0.00    +0.000 C 
ATOM      8  O   UNL     1       3.521   7.225  17.562  0.00  0.00    +0.000 OA
ATOM      9  C   UNL     1       3.483   5.812  17.176  0.00  0.00    +0.000 C 
ATOM     10  C   UNL     1       2.371   5.166  18.038  0.00  0.00    +0.000 C 
ENDROOT
BRANCH   9  11
ATOM     11  C   UNL     1       4.907   5.304  17.151  0.00  0.00    +0.000 A 
ATOM     12  C   UNL     1       5.436   4.776  15.958  0.00  0.00    +0.000 A 
ATOM     13  C   UNL     1       6.758   4.324  15.892  0.00  0.00    +0.000 A 
ATOM     14  C   UNL     1       7.577   4.388  17.017  0.00  0.00    +0.000 A 
ATOM     15  C   UNL     1       7.076   4.920  18.201  0.00  0.00    +0.000 A 
ATOM     16  C   UNL     1       5.764   5.388  18.255  0.00  0.00    +0.000 A 
ATOM     17  F   UNL     1       5.342   5.908  19.416  0.00  0.00    +0.000 F 
ENDBRANCH   9  11
BRANCH   1  19
ATOM     18  C   UNL     1       4.214   2.985  19.909  0.00  0.00    +0.000 C 
ATOM     19  C   UNL     1       3.566   2.894  18.735  0.00  0.00    +0.000 C 
ATOM     20  C   UNL     1       4.030   1.924  17.679  0.00  0.00    +0.000 C 
ENDBRANCH   1  19
TORSDOF 2
ENDMDL
MODEL 7
REMARK VINA RESULT:      -6.8      1.058      1.691
REMARK  Name = 
REMARK  4 active torsions:
REMARK  status: ('A' for Active; 'I' for Inactive)
REMARK    1  A    between atoms: C_2  and  C_3
REMARK    2  A    between atoms: C_2  and  C_4
REMARK    3  A    between atoms: C_7  and  C_8
REMARK    4  A    between atoms: C_12  and  C_13
REMARK                            x       y       z     vdW  Elec       q    Type
REMARK                         _______ _______ _______ _____ _____    ______ ____
ROOT
ATOM      1  C   UNL     1       2.616   3.621  17.375  0.00  0.00    +0.000 C 
ATOM      2  C   UNL     1       1.778   2.356  17.737  0.00  0.00    +0.000 C 
ATOM      3  C   UNL     1       1.416   2.185  19.192  0.00  0.00    +0.000 C 
ATOM      4  C   UNL     1       1.545   3.137  20.135  0.00  0.00    +0.000 C 
ATOM      5  C   UNL     1       1.136   2.908  21.561  0.00  0.00    +0.000 C 
ATOM      6  C   UNL     1       2.046   4.432  19.756  0.00  0.00    +0.000 C 
ATOM      7  C   UNL     1       2.308   5.513  20.487  0.00  0.00    +0.000 C 
ATOM      8  O   UNL     1       2.756   6.624  19.792  0.00  0.00    +0.000 OA
ATOM      9  C   UNL     1       3.043   6.111  18.450  0.00  0.00    +0.000 C 
ATOM     10  C   UNL     1       2.252   4.786  18.324  0.00  0.00    +0.000 C 
ENDROOT
BRANCH   9  11
ATOM     11  C   UNL     1       4.537   6.205  18.232  0.00  0.00    +0.000 A 
ATOM     12  C   UNL     1       5.039   7.031  17.209  0.00  0.00    +0.000 A 
ATOM     13  C   UNL     1       6.416   7.164  16.999  0.00  0.00    +0.000 A 
ATOM     14  C   UNL     1       7.317   6.471  17.803  0.00  0.00    +0.000 A 
ATOM     15  C   UNL     1       6.839   5.660  18.828  0.00  0.00    +0.000 A 
ATOM     16  C   UNL     1       5.467   5.548  19.046  0.00  0.00    +0.000 A 
ATOM     17  F   UNL     1       5.065   4.769  20.060  0.00  0.00    +0.000 F 
ENDBRANCH   9  11
BRANCH   1  19
ATOM     18  C   UNL     1       4.764   2.405  17.927  0.00  0.00    +0.000 C 
ATOM     19  C   UNL     1       4.076   3.252  17.143  0.00  0.00    +0.000 C 
ATOM     20  C   UNL     1       4.709   3.829  15.903  0.00  0.00    +0.000 C 
ENDBRANCH   1  19
TORSDOF 2
ENDMDL
MODEL 8
REMARK VINA RESULT:      -6.8      1.538      4.787
REMARK  Name = 
REMARK  4 active torsions:
REMARK  status: ('A' for Active; 'I' for Inactive)
REMARK    1  A    between atoms: C_2  and  C_3
REMARK    2  A    between atoms: C_2  and  C_4
REMARK    3  A    between atoms: C_7  and  C_8
REMARK    4  A    between atoms: C_12  and  C_13
REMARK                            x       y       z     vdW  Elec       q    Type
REMARK                         _______ _______ _______ _____ _____    ______ ____
ROOT
ATOM      1  C   UNL     1       5.451   4.378  18.952  0.00  0.00    +0.000 C 
ATOM      2  C   UNL     1       6.593   4.513  17.897  0.00  0.00    +0.000 C 
ATOM      3  C   UNL     1       6.291   5.369  16.690  0.00  0.00    +0.000 C 
ATOM      4  C   UNL     1       5.237   6.198  16.577  0.00  0.00    +0.000 C 
ATOM      5  C   UNL     1       5.014   7.045  15.357  0.00  0.00    +0.000 C 
ATOM      6  C   UNL     1       4.318   6.313  17.679  0.00  0.00    +0.000 C 
ATOM      7  C   UNL     1       3.192   7.012  17.805  0.00  0.00    +0.000 C 
ATOM      8  O   UNL     1       2.555   6.924  19.032  0.00  0.00    +0.000 OA
ATOM      9  C   UNL     1       3.250   5.830  19.715  0.00  0.00    +0.000 C 
ATOM     10  C   UNL     1       4.611   5.674  18.992  0.00  0.00    +0.000 C 
ENDROOT
BRANCH   9  11
ATOM     11  C   UNL     1       2.267   4.693  19.879  0.00  0.00    +0.000 A 
ATOM     12  C   UNL     1       2.067   4.125  21.151  0.00  0.00    +0.000 A 
ATOM     13  C   UNL     1       1.144   3.091  21.343  0.00  0.00    +0.000 A 
ATOM     14  C   UNL     1       0.406   2.602  20.268  0.00  0.00    +0.000 A 
ATOM     15  C   UNL     1       0.581   3.160  19.005  0.00  0.00    +0.000 A 
ATOM     16  C   UNL     1       1.487   4.205  18.824  0.00  0.00    +0.000 A 
ATOM     17  F   UNL     1       1.599   4.717  17.590  0.00  0.00    +0.000 F 
ENDBRANCH   9  11
BRANCH   1  19
ATOM     18  C   UNL     1       4.235   2.557  17.685  0.00  0.00    +0.000 C 
ATOM     19  C   UNL     1       4.763   3.023  18.829  0.00  0.00    +0.000 C 
ATOM     20  C   UNL     1       4.781   2.165  20.068  0.00  0.00    +0.000 C 
ENDBRANCH   1  19
TORSDOF 2
ENDMDL
MODEL 9
REMARK VINA RESULT:      -6.2      2.189      5.328
REMARK  Name = 
REMARK  4 active torsions:
REMARK  status: ('A' for Active; 'I' for Inactive)
REMARK    1  A    between atoms: C_2  and  C_3
REMARK    2  A    between atoms: C_2  and  C_4
REMARK    3  A    between atoms: C_7  and  C_8
REMARK    4  A    between atoms: C_12  and  C_13
REMARK                            x       y       z     vdW  Elec       q    Type
REMARK                         _______ _______ _______ _____ _____    ______ ____
ROOT
ATOM      1  C   UNL     1       3.089   5.946  17.684  0.00  0.00    +0.000 C 
ATOM      2  C   UNL     1       4.100   6.863  16.927  0.00  0.00    +0.000 C 
ATOM      3  C   UNL     1       5.308   6.181  16.333  0.00  0.00    +0.000 C 
ATOM      4  C   UNL     1       5.453   4.849  16.198  0.00  0.00    +0.000 C 
ATOM      5  C   UNL     1       6.672   4.238  15.569  0.00  0.00    +0.000 C 
ATOM      6  C   UNL     1       4.385   3.984  16.625  0.00  0.00    +0.000 C 
ATOM      7  C   UNL     1       4.294   2.656  16.644  0.00  0.00    +0.000 C 
ATOM      8  O   UNL     1       3.092   2.134  17.093  0.00  0.00    +0.000 OA
ATOM      9  C   UNL     1       2.394   3.290  17.662  0.00  0.00    +0.000 C 
ATOM     10  C   UNL     1       3.068   4.539  17.043  0.00  0.00    +0.000 C 
ENDROOT
BRANCH   9  11
ATOM     11  C   UNL     1       2.278   3.069  19.154  0.00  0.00    +0.000 A 
ATOM     12  C   UNL     1       1.034   3.246  19.787  0.00  0.00    +0.000 A 
ATOM     13  C   UNL     1       0.885   3.021  21.160  0.00  0.00    +0.000 A 
ATOM     14  C   UNL     1       1.976   2.619  21.927  0.00  0.00    +0.000 A 
ATOM     15  C   UNL     1       3.210   2.426  21.315  0.00  0.00    +0.000 A 
ATOM     16  C   UNL     1       3.348   2.630  19.943  0.00  0.00    +0.000 A 
ATOM     17  F   UNL     1       4.556   2.410  19.404  0.00  0.00    +0.000 F 
ENDBRANCH   9  11
BRANCH   1  19
ATOM     18  C   UNL     1       2.267   6.517  20.006  0.00  0.00    +0.000 C 
ATOM     19  C   UNL     1       3.250   6.098  19.191  0.00  0.00    +0.000 C 
ATOM     20  C   UNL     1       4.575   5.657  19.757  0.00  0.00    +0.000 C 
ENDBRANCH   1  19
TORSDOF 2
ENDMDL
