MODEL 1
REMARK VINA RESULT:      -7.0      0.000      0.000
REMARK  Name = 
REMARK  4 active torsions:
REMARK  status: ('A' for Active; 'I' for Inactive)
REMARK    1  A    between atoms: C_1  and  C_2
REMARK    2  A    between atoms: C_2  and  S_3
REMARK    3  A    between atoms: S_3  and  C_4
REMARK    4  A    between atoms: C_6  and  C_7
REMARK                            x       y       z     vdW  Elec       q    Type
REMARK                         _______ _______ _______ _____ _____    ______ ____
ROOT
ATOM      1  C   UNL     1       3.059   6.540  18.355  0.00  0.00    +0.000 A 
ATOM      2  S   UNL     1       4.312   7.094  17.327  0.00  0.00    +0.000 S 
ATOM      3  C   UNL     1       4.707   5.522  16.798  0.00  0.00    +0.000 A 
ATOM      4  C   UNL     1       3.953   4.567  17.459  0.00  0.00    +0.000 A 
ATOM      5  C   UNL     1       3.019   5.155  18.405  0.00  0.00    +0.000 A 
ATOM      6  C   UNL     1       2.169   4.329  19.270  0.00  0.00    +0.000 C 
ATOM      7  O   UNL     1       1.422   4.754  20.146  0.00  0.00    +0.000 OA
ATOM      8  N   UNL     1       2.273   2.968  19.069  0.00  0.00    +0.000 N 
ATOM      9  C   UNL     1       2.771   2.401  17.832  0.00  0.00    +0.000 C 
ATOM     10  C   UNL     1       4.048   3.073  17.332  0.00  0.00    +0.000 C 
ATOM     11  H   UNL     1       1.620   2.433  19.628  0.00  0.00    +0.000 HD
ENDROOT
BRANCH   3  12
ATOM     12  C   UNL     1       5.746   5.253  15.744  0.00  0.00    +0.000 A 
ATOM     13  C   UNL     1       5.572   4.498  14.557  0.00  0.00    +0.000 A 
ATOM     14  C   UNL     1       6.807   4.479  13.955  0.00  0.00    +0.000 A 
ATOM     15  N   UNL     1       7.627   5.196  14.769  0.00  0.00    +0.000 N 
ATOM     16  N   UNL     1       7.006   5.699  15.843  0.00  0.00    +0.000 NA
ATOM     17  H   UNL     1       8.620   5.380  14.659  0.00  0.00    +0.000 HD
ENDBRANCH   3  12
BRANCH   1  18
ATOM     18  S   UNL     1       2.060   7.701  19.238  0.00  0.00    +0.000 S 
BRANCH  18  20
ATOM     19  C   UNL     1       0.638   9.845  18.268  0.00  0.00    +0.000 C 
ATOM     20  C   UNL     1       1.879   9.013  17.990  0.00  0.00    +0.000 C 
ENDBRANCH  18  20
ENDBRANCH   1  18
TORSDOF 3
ENDMDL
MODEL 2
REMARK VINA RESULT:      -6.5      2.201      3.559
REMARK  Name = 
REMARK  4 active torsions:
REMARK  status: ('A' for Active; 'I' for Inactive)
REMARK    1  A    between atoms: C_1  and  C_2
REMARK    2  A    between atoms: C_2  and  S_3
REMARK    3  A    between atoms: S_3  and  C_4
REMARK    4  A    between atoms: C_6  and  C_7
REMARK                            x       y       z     vdW  Elec       q    Type
REMARK                         _______ _______ _______ _____ _____    ______ ____
ROOT
ATOM      1  C   UNL     1       3.675   4.065  19.049  0.00  0.00    +0.000 A 
ATOM      2  S   UNL     1       4.749   3.345  17.925  0.00  0.00    +0.000 S 
ATOM      3  C   UNL     1       4.923   4.779  17.021  0.00  0.00    +0.000 A 
ATOM      4  C   UNL     1       4.106   5.783  17.513  0.00  0.00    +0.000 A 
ATOM      5  C   UNL     1       3.339   5.357  18.672  0.00  0.00    +0.000 A 
ATOM      6  C   UNL     1       2.353   6.233  19.314  0.00  0.00    +0.000 C 
ATOM      7  O   UNL     1       1.614   5.912  20.238  0.00  0.00    +0.000 OA
ATOM      8  N   UNL     1       2.262   7.503  18.782  0.00  0.00    +0.000 N 
ATOM      9  C   UNL     1       3.334   8.102  18.013  0.00  0.00    +0.000 C 
ATOM     10  C   UNL     1       3.915   7.166  16.956  0.00  0.00    +0.000 C 
ATOM     11  H   UNL     1       1.628   8.103  19.295  0.00  0.00    +0.000 HD
ENDROOT
BRANCH   3  12
ATOM     12  C   UNL     1       5.859   4.896  15.848  0.00  0.00    +0.000 A 
ATOM     13  C   UNL     1       5.691   4.305  14.570  0.00  0.00    +0.000 A 
ATOM     14  C   UNL     1       6.824   4.637  13.867  0.00  0.00    +0.000 A 
ATOM     15  N   UNL     1       7.582   5.383  14.714  0.00  0.00    +0.000 N 
ATOM     16  N   UNL     1       7.010   5.578  15.909  0.00  0.00    +0.000 NA
ATOM     17  H   UNL     1       8.499   5.787  14.550  0.00  0.00    +0.000 HD
ENDBRANCH   3  12
BRANCH   1  18
ATOM     18  S   UNL     1       3.092   3.139  20.436  0.00  0.00    +0.000 S 
BRANCH  18  20
ATOM     19  C   UNL     1       0.864   2.647  18.902  0.00  0.00    +0.000 C 
ATOM     20  C   UNL     1       2.005   1.936  19.609  0.00  0.00    +0.000 C 
ENDBRANCH  18  20
ENDBRANCH   1  18
TORSDOF 3
ENDMDL
MODEL 3
REMARK VINA RESULT:      -6.5      3.006      6.092
REMARK  Name = 
REMARK  4 active torsions:
REMARK  status: ('A' for Active; 'I' for Inactive)
REMARK    1  A    between atoms: C_1  and  C_2
REMARK    2  A    between atoms: C_2  and  S_3
REMARK    3  A    between atoms: S_3  and  C_4
REMARK    4  A    between atoms: C_6  and  C_7
REMARK                            x       y       z     vdW  Elec       q    Type
REMARK                         _______ _______ _______ _____ _____    ______ ____
ROOT
ATOM      1  C   UNL     1       4.671   4.325  16.788  0.00  0.00    +0.000 A 
ATOM      2  S   UNL     1       4.179   3.036  17.803  0.00  0.00    +0.000 S 
ATOM      3  C   UNL     1       3.176   4.035  18.753  0.00  0.00    +0.000 A 
ATOM      4  C   UNL     1       3.275   5.360  18.362  0.00  0.00    +0.000 A 
ATOM      5  C   UNL     1       4.183   5.542  17.242  0.00  0.00    +0.000 A 
ATOM      6  C   UNL     1       4.498   6.872  16.708  0.00  0.00    +0.000 C 
ATOM      7  O   UNL     1       5.316   7.106  15.824  0.00  0.00    +0.000 OA
ATOM      8  N   UNL     1       3.819   7.917  17.298  0.00  0.00    +0.000 N 
ATOM      9  C   UNL     1       2.573   7.729  18.015  0.00  0.00    +0.000 C 
ATOM     10  C   UNL     1       2.610   6.553  18.988  0.00  0.00    +0.000 C 
ATOM     11  H   UNL     1       4.002   8.809  16.856  0.00  0.00    +0.000 HD
ENDROOT
BRANCH   3  12
ATOM     12  C   UNL     1       2.309   3.502  19.862  0.00  0.00    +0.000 A 
ATOM     13  C   UNL     1       2.751   2.965  21.097  0.00  0.00    +0.000 A 
ATOM     14  C   UNL     1       1.609   2.555  21.743  0.00  0.00    +0.000 A 
ATOM     15  N   UNL     1       0.581   2.858  20.906  0.00  0.00    +0.000 N 
ATOM     16  N   UNL     1       0.973   3.456  19.773  0.00  0.00    +0.000 NA
ATOM     17  H   UNL     1      -0.411   2.682  21.036  0.00  0.00    +0.000 HD
ENDBRANCH   3  12
BRANCH   1  18
ATOM     18  S   UNL     1       5.728   4.012  15.407  0.00  0.00    +0.000 S 
BRANCH  18  20
ATOM     19  C   UNL     1       7.464   4.483  17.487  0.00  0.00    +0.000 C 
ATOM     20  C   UNL     1       7.287   4.741  16.000  0.00  0.00    +0.000 C 
ENDBRANCH  18  20
ENDBRANCH   1  18
TORSDOF 3
ENDMDL
MODEL 4
REMARK VINA RESULT:      -6.4      2.945      6.164
REMARK  Name = 
REMARK  4 active torsions:
REMARK  status: ('A' for Active; 'I' for Inactive)
REMARK    1  A    between atoms: C_1  and  C_2
REMARK    2  A    between atoms: C_2  and  S_3
REMARK    3  A    between atoms: S_3  and  C_4
REMARK    4  A    between atoms: C_6  and  C_7
REMARK                            x       y       z     vdW  Elec       q    Type
REMARK                         _______ _______ _______ _____ _____    ______ ____
ROOT
ATOM      1  C   UNL     1       5.062   4.343  17.052  0.00  0.00    +0.000 A 
ATOM      2  S   UNL     1       4.467   3.072  18.034  0.00  0.00    +0.000 S 
ATOM      3  C   UNL     1       3.320   4.069  18.804  0.00  0.00    +0.000 A 
ATOM      4  C   UNL     1       3.438   5.384  18.385  0.00  0.00    +0.000 A 
ATOM      5  C   UNL     1       4.487   5.558  17.394  0.00  0.00    +0.000 A 
ATOM      6  C   UNL     1       4.839   6.880  16.862  0.00  0.00    +0.000 C 
ATOM      7  O   UNL     1       5.764   7.110  16.090  0.00  0.00    +0.000 OA
ATOM      8  N   UNL     1       4.059   7.923  17.318  0.00  0.00    +0.000 N 
ATOM      9  C   UNL     1       2.733   7.720  17.865  0.00  0.00    +0.000 C 
ATOM     10  C   UNL     1       2.665   6.576  18.874  0.00  0.00    +0.000 C 
ATOM     11  H   UNL     1       4.280   8.806  16.875  0.00  0.00    +0.000 HD
ENDROOT
BRANCH   3  12
ATOM     12  C   UNL     1       2.322   3.546  19.802  0.00  0.00    +0.000 A 
ATOM     13  C   UNL     1       2.603   3.068  21.107  0.00  0.00    +0.000 A 
ATOM     14  C   UNL     1       1.395   2.642  21.604  0.00  0.00    +0.000 A 
ATOM     15  N   UNL     1       0.485   2.878  20.621  0.00  0.00    +0.000 N 
ATOM     16  N   UNL     1       1.014   3.449  19.531  0.00  0.00    +0.000 NA
ATOM     17  H   UNL     1      -0.509   2.672  20.620  0.00  0.00    +0.000 HD
ENDBRANCH   3  12
BRANCH   1  18
ATOM     18  S   UNL     1       6.305   4.019  15.839  0.00  0.00    +0.000 S 
BRANCH  18  20
ATOM     19  C   UNL     1       6.115   3.675  13.118  0.00  0.00    +0.000 C 
ATOM     20  C   UNL     1       5.348   4.230  14.306  0.00  0.00    +0.000 C 
ENDBRANCH  18  20
ENDBRANCH   1  18
TORSDOF 3
ENDMDL
MODEL 5
REMARK VINA RESULT:      -6.4      3.009      5.379
REMARK  Name = 
REMARK  4 active torsions:
REMARK  status: ('A' for Active; 'I' for Inactive)
REMARK    1  A    between atoms: C_1  and  C_2
REMARK    2  A    between atoms: C_2  and  S_3
REMARK    3  A    between atoms: S_3  and  C_4
REMARK    4  A    between atoms: C_6  and  C_7
REMARK                            x       y       z     vdW  Elec       q    Type
REMARK                         _______ _______ _______ _____ _____    ______ ____
ROOT
ATOM      1  C   UNL     1       2.696   4.519  20.251  0.00  0.00    +0.000 A 
ATOM      2  S   UNL     1       1.704   5.903  20.441  0.00  0.00    +0.000 S 
ATOM      3  C   UNL     1       2.529   6.781  19.236  0.00  0.00    +0.000 A 
ATOM      4  C   UNL     1       3.609   6.066  18.746  0.00  0.00    +0.000 A 
ATOM      5  C   UNL     1       3.738   4.759  19.369  0.00  0.00    +0.000 A 
ATOM      6  C   UNL     1       4.853   3.858  19.056  0.00  0.00    +0.000 C 
ATOM      7  O   UNL     1       5.071   2.782  19.604  0.00  0.00    +0.000 OA
ATOM      8  N   UNL     1       5.721   4.313  18.085  0.00  0.00    +0.000 N 
ATOM      9  C   UNL     1       5.340   5.318  17.112  0.00  0.00    +0.000 C 
ATOM     10  C   UNL     1       4.623   6.515  17.731  0.00  0.00    +0.000 C 
ATOM     11  H   UNL     1       6.433   3.636  17.841  0.00  0.00    +0.000 HD
ENDROOT
BRANCH   3  12
ATOM     12  C   UNL     1       2.103   8.154  18.790  0.00  0.00    +0.000 A 
ATOM     13  C   UNL     1       1.394   9.111  19.560  0.00  0.00    +0.000 A 
ATOM     14  C   UNL     1       1.178  10.170  18.711  0.00  0.00    +0.000 A 
ATOM     15  N   UNL     1       1.748   9.819  17.527  0.00  0.00    +0.000 N 
ATOM     16  N   UNL     1       2.338   8.617  17.555  0.00  0.00    +0.000 NA
ATOM     17  H   UNL     1       1.769  10.343  16.658  0.00  0.00    +0.000 HD
ENDBRANCH   3  12
BRANCH   1  18
ATOM     18  S   UNL     1       2.359   3.053  21.180  0.00  0.00    +0.000 S 
BRANCH  18  20
ATOM     19  C   UNL     1       0.738   2.636  18.998  0.00  0.00    +0.000 C 
ATOM     20  C   UNL     1       1.778   1.941  19.861  0.00  0.00    +0.000 C 
ENDBRANCH  18  20
ENDBRANCH   1  18
TORSDOF 3
ENDMDL
MODEL 6
REMARK VINA RESULT:      -6.4      3.217      5.361
REMARK  Name = 
REMARK  4 active torsions:
REMARK  status: ('A' for Active; 'I' for Inactive)
REMARK    1  A    between atoms: C_1  and  C_2
REMARK    2  A    between atoms: C_2  and  S_3
REMARK    3  A    between atoms: S_3  and  C_4
REMARK    4  A    between atoms: C_6  and  C_7
REMARK                            x       y       z     vdW  Elec       q    Type
REMARK                         _______ _______ _______ _____ _____    ______ ____
ROOT
ATOM      1  C   UNL     1       4.887   5.485  18.058  0.00  0.00    +0.000 A 
ATOM      2  S   UNL     1       4.378   6.991  17.420  0.00  0.00    +0.000 S 
ATOM      3  C   UNL     1       3.025   7.083  18.453  0.00  0.00    +0.000 A 
ATOM      4  C   UNL     1       2.904   5.938  19.223  0.00  0.00    +0.000 A 
ATOM      5  C   UNL     1       3.965   4.980  18.963  0.00  0.00    +0.000 A 
ATOM      6  C   UNL     1       3.997   3.664  19.612  0.00  0.00    +0.000 C 
ATOM      7  O   UNL     1       4.812   2.777  19.378  0.00  0.00    +0.000 OA
ATOM      8  N   UNL     1       2.993   3.438  20.530  0.00  0.00    +0.000 N 
ATOM      9  C   UNL     1       2.270   4.517  21.173  0.00  0.00    +0.000 C 
ATOM     10  C   UNL     1       1.813   5.600  20.199  0.00  0.00    +0.000 C 
ATOM     11  H   UNL     1       3.088   2.553  21.012  0.00  0.00    +0.000 HD
ENDROOT
BRANCH   3  12
ATOM     12  C   UNL     1       2.108   8.276  18.492  0.00  0.00    +0.000 A 
ATOM     13  C   UNL     1       1.439   8.792  19.630  0.00  0.00    +0.000 A 
ATOM     14  C   UNL     1       0.675   9.833  19.159  0.00  0.00    +0.000 A 
ATOM     15  N   UNL     1       0.914   9.894  17.822  0.00  0.00    +0.000 N 
ATOM     16  N   UNL     1       1.798   8.983  17.396  0.00  0.00    +0.000 NA
ATOM     17  H   UNL     1       0.509  10.526  17.138  0.00  0.00    +0.000 HD
ENDBRANCH   3  12
BRANCH   1  18
ATOM     18  S   UNL     1       6.389   4.745  17.492  0.00  0.00    +0.000 S 
BRANCH  18  20
ATOM     19  C   UNL     1       7.909   6.878  18.328  0.00  0.00    +0.000 C 
ATOM     20  C   UNL     1       7.578   5.438  18.682  0.00  0.00    +0.000 C 
ENDBRANCH  18  20
ENDBRANCH   1  18
TORSDOF 3
ENDMDL
MODEL 7
REMARK VINA RESULT:      -6.4      2.857      5.424
REMARK  Name = 
REMARK  4 active torsions:
REMARK  status: ('A' for Active; 'I' for Inactive)
REMARK    1  A    between atoms: C_1  and  C_2
REMARK    2  A    between atoms: C_2  and  S_3
REMARK    3  A    between atoms: S_3  and  C_4
REMARK    4  A    between atoms: C_6  and  C_7
REMARK                            x       y       z     vdW  Elec       q    Type
REMARK                         _______ _______ _______ _____ _____    ______ ____
ROOT
ATOM      1  C   UNL     1       4.918   5.414  18.058  0.00  0.00    +0.000 A 
ATOM      2  S   UNL     1       4.425   6.927  17.423  0.00  0.00    +0.000 S 
ATOM      3  C   UNL     1       3.074   7.033  18.455  0.00  0.00    +0.000 A 
ATOM      4  C   UNL     1       2.940   5.889  19.224  0.00  0.00    +0.000 A 
ATOM      5  C   UNL     1       3.990   4.919  18.962  0.00  0.00    +0.000 A 
ATOM      6  C   UNL     1       4.008   3.602  19.610  0.00  0.00    +0.000 C 
ATOM      7  O   UNL     1       4.812   2.706  19.374  0.00  0.00    +0.000 OA
ATOM      8  N   UNL     1       3.001   3.386  20.527  0.00  0.00    +0.000 N 
ATOM      9  C   UNL     1       2.290   4.472  21.172  0.00  0.00    +0.000 C 
ATOM     10  C   UNL     1       1.845   5.562  20.200  0.00  0.00    +0.000 C 
ATOM     11  H   UNL     1       3.087   2.500  21.009  0.00  0.00    +0.000 HD
ENDROOT
BRANCH   3  12
ATOM     12  C   UNL     1       2.170   8.236  18.496  0.00  0.00    +0.000 A 
ATOM     13  C   UNL     1       1.499   8.751  19.633  0.00  0.00    +0.000 A 
ATOM     14  C   UNL     1       0.750   9.804  19.165  0.00  0.00    +0.000 A 
ATOM     15  N   UNL     1       1.001   9.873  17.830  0.00  0.00    +0.000 N 
ATOM     16  N   UNL     1       1.877   8.954  17.403  0.00  0.00    +0.000 NA
ATOM     17  H   UNL     1       0.608  10.514  17.147  0.00  0.00    +0.000 HD
ENDBRANCH   3  12
BRANCH   1  18
ATOM     18  S   UNL     1       6.411   4.659  17.491  0.00  0.00    +0.000 S 
BRANCH  18  20
ATOM     19  C   UNL     1       6.642   4.403  14.763  0.00  0.00    +0.000 C 
ATOM     20  C   UNL     1       5.837   3.889  15.945  0.00  0.00    +0.000 C 
ENDBRANCH  18  20
ENDBRANCH   1  18
TORSDOF 3
ENDMDL
MODEL 8
REMARK VINA RESULT:      -6.4      3.124      5.558
REMARK  Name = 
REMARK  4 active torsions:
REMARK  status: ('A' for Active; 'I' for Inactive)
REMARK    1  A    between atoms: C_1  and  C_2
REMARK    2  A    between atoms: C_2  and  S_3
REMARK    3  A    between atoms: S_3  and  C_4
REMARK    4  A    between atoms: C_6  and  C_7
REMARK                            x       y       z     vdW  Elec       q    Type
REMARK                         _______ _______ _______ _____ _____    ______ ____
ROOT
ATOM      1  C   UNL     1       3.915   4.667  17.691  0.00  0.00    +0.000 A 
ATOM      2  S   UNL     1       3.740   6.369  17.773  0.00  0.00    +0.000 S 
ATOM      3  C   UNL     1       2.548   6.287  18.988  0.00  0.00    +0.000 A 
ATOM      4  C   UNL     1       2.217   4.973  19.276  0.00  0.00    +0.000 A 
ATOM      5  C   UNL     1       2.981   4.022  18.487  0.00  0.00    +0.000 A 
ATOM      6  C   UNL     1       2.745   2.576  18.573  0.00  0.00    +0.000 C 
ATOM      7  O   UNL     1       3.291   1.726  17.879  0.00  0.00    +0.000 OA
ATOM      8  N   UNL     1       1.801   2.191  19.502  0.00  0.00    +0.000 N 
ATOM      9  C   UNL     1       1.426   3.028  20.624  0.00  0.00    +0.000 C 
ATOM     10  C   UNL     1       1.167   4.480  20.232  0.00  0.00    +0.000 C 
ATOM     11  H   UNL     1       1.718   1.185  19.589  0.00  0.00    +0.000 HD
ENDROOT
BRANCH   3  12
ATOM     12  C   UNL     1       1.961   7.510  19.640  0.00  0.00    +0.000 A 
ATOM     13  C   UNL     1       1.568   7.640  20.996  0.00  0.00    +0.000 A 
ATOM     14  C   UNL     1       1.035   8.903  21.098  0.00  0.00    +0.000 A 
ATOM     15  N   UNL     1       1.134   9.449  19.857  0.00  0.00    +0.000 N 
ATOM     16  N   UNL     1       1.715   8.640  18.962  0.00  0.00    +0.000 NA
ATOM     17  H   UNL     1       0.823  10.364  19.544  0.00  0.00    +0.000 HD
ENDBRANCH   3  12
BRANCH   1  18
ATOM     18  S   UNL     1       5.132   3.952  16.627  0.00  0.00    +0.000 S 
BRANCH  18  20
ATOM     19  C   UNL     1       7.560   4.663  17.704  0.00  0.00    +0.000 C 
ATOM     20  C   UNL     1       6.473   5.174  16.774  0.00  0.00    +0.000 C 
ENDBRANCH  18  20
ENDBRANCH   1  18
TORSDOF 3
ENDMDL
MODEL 9
REMARK VINA RESULT:      -6.4      3.223      5.406
REMARK  Name = 
REMARK  4 active torsions:
REMARK  status: ('A' for Active; 'I' for Inactive)
REMARK    1  A    between atoms: C_1  and  C_2
REMARK    2  A    between atoms: C_2  and  S_3
REMARK    3  A    between atoms: S_3  and  C_4
REMARK    4  A    between atoms: C_6  and  C_7
REMARK                            x       y       z     vdW  Elec       q    Type
REMARK                         _______ _______ _______ _____ _____    ______ ____
ROOT
ATOM      1  C   UNL     1       4.585   5.232  18.063  0.00  0.00    +0.000 A 
ATOM      2  S   UNL     1       4.104   6.794  17.553  0.00  0.00    +0.000 S 
ATOM      3  C   UNL     1       2.847   6.890  18.699  0.00  0.00    +0.000 A 
ATOM      4  C   UNL     1       2.730   5.709  19.413  0.00  0.00    +0.000 A 
ATOM      5  C   UNL     1       3.715   4.719  19.014  0.00  0.00    +0.000 A 
ATOM      6  C   UNL     1       3.733   3.368  19.586  0.00  0.00    +0.000 C 
ATOM      7  O   UNL     1       4.479   2.459  19.237  0.00  0.00    +0.000 OA
ATOM      8  N   UNL     1       2.796   3.136  20.572  0.00  0.00    +0.000 N 
ATOM      9  C   UNL     1       2.184   4.209  21.331  0.00  0.00    +0.000 C 
ATOM     10  C   UNL     1       1.706   5.367  20.459  0.00  0.00    +0.000 C 
ATOM     11  H   UNL     1       2.885   2.221  20.996  0.00  0.00    +0.000 HD
ENDROOT
BRANCH   3  12
ATOM     12  C   UNL     1       1.999   8.120  18.879  0.00  0.00    +0.000 A 
ATOM     13  C   UNL     1       1.593   9.023  17.865  0.00  0.00    +0.000 A 
ATOM     14  C   UNL     1       0.897  10.013  18.519  0.00  0.00    +0.000 A 
ATOM     15  N   UNL     1       0.913   9.669  19.834  0.00  0.00    +0.000 N 
ATOM     16  N   UNL     1       1.548   8.516  20.078  0.00  0.00    +0.000 NA
ATOM     17  H   UNL     1       0.517  10.174  20.622  0.00  0.00    +0.000 HD
ENDBRANCH   3  12
BRANCH   1  18
ATOM     18  S   UNL     1       5.996   4.456  17.334  0.00  0.00    +0.000 S 
BRANCH  18  20
ATOM     19  C   UNL     1       7.524   5.754  19.216  0.00  0.00    +0.000 C 
ATOM     20  C   UNL     1       7.291   5.677  17.717  0.00  0.00    +0.000 C 
ENDBRANCH  18  20
ENDBRANCH   1  18
TORSDOF 3
ENDMDL
