MODEL 1
REMARK VINA RESULT:      -7.4      0.000      0.000
REMARK  Name = 
REMARK  9 active torsions:
REMARK  status: ('A' for Active; 'I' for Inactive)
REMARK    1  A    between atoms: C_1  and  O_2
REMARK    2  A    between atoms: O_2  and  C_3
REMARK    3  A    between atoms: C_7  and  O_8
REMARK    4  A    between atoms: O_8  and  C_9
REMARK    5  A    between atoms: C_9  and  C_10
REMARK    6  A    between atoms: C_10  and  N_11
REMARK    7  A    between atoms: N_11  and  S_12
REMARK    8  A    between atoms: S_12  and  C_15
REMARK    9  A    between atoms: C_19  and  N_20
REMARK                            x       y       z     vdW  Elec       q    Type
REMARK                         _______ _______ _______ _____ _____    ______ ____
ROOT
ATOM      1  N   UNL     1       2.942   3.351  19.507  0.00  0.00    +0.000 NA
ATOM      2  H   UNL     1       3.396   2.684  20.135  0.00  0.00    +0.000 HD
ENDROOT
BRANCH   1   3
ATOM      3  S   UNL     1       3.273   2.932  17.901  0.00  0.00    +0.000 S 
ATOM      4  O   UNL     1       3.626   1.534  17.911  0.00  0.00    +0.000 OA
ATOM      5  O   UNL     1       2.202   3.450  17.082  0.00  0.00    +0.000 OA
BRANCH   3   6
ATOM      6  C   UNL     1       4.754   3.846  17.552  0.00  0.00    +0.000 A 
ATOM      7  C   UNL     1       5.387   4.559  18.576  0.00  0.00    +0.000 A 
ATOM      8  C   UNL     1       6.526   5.314  18.297  0.00  0.00    +0.000 A 
ATOM      9  C   UNL     1       7.032   5.361  16.997  0.00  0.00    +0.000 A 
ATOM     10  C   UNL     1       6.390   4.644  15.975  0.00  0.00    +0.000 A 
ATOM     11  C   UNL     1       5.244   3.884  16.243  0.00  0.00    +0.000 A 
BRANCH  10  12
ATOM     12  N   UNL     1       6.930   4.694  14.609  0.00  0.00    +0.000 N 
ATOM     13  O   UNL     1       6.412   3.959  13.756  0.00  0.00    +0.000 OA
ATOM     14  O   UNL     1       7.866   5.476  14.392  0.00  0.00    +0.000 OA
ENDBRANCH  10  12
ENDBRANCH   3   6
ENDBRANCH   1   3
BRANCH   1  15
ATOM     15  C   UNL     1       1.547   3.725  19.802  0.00  0.00    +0.000 C 
BRANCH  15  16
ATOM     16  C   UNL     1       1.471   4.985  20.661  0.00  0.00    +0.000 C 
BRANCH  16  17
ATOM     17  O   UNL     1       2.561   5.838  20.297  0.00  0.00    +0.000 OA
BRANCH  17  22
ATOM     18  C   UNL     1       1.248   9.232  19.578  0.00  0.00    +0.000 A 
ATOM     19  C   UNL     1       1.702   9.367  18.266  0.00  0.00    +0.000 A 
ATOM     20  C   UNL     1       2.422   8.335  17.661  0.00  0.00    +0.000 A 
ATOM     21  C   UNL     1       2.689   7.165  18.373  0.00  0.00    +0.000 A 
ATOM     22  C   UNL     1       2.245   7.019  19.688  0.00  0.00    +0.000 A 
ATOM     23  C   UNL     1       1.528   8.061  20.285  0.00  0.00    +0.000 A 
BRANCH  18  25
ATOM     24  C   UNL     1       0.483  11.453  19.243  0.00  0.00    +0.000 C 
ATOM     25  O   UNL     1       0.537  10.295  20.070  0.00  0.00    +0.000 OA
ENDBRANCH  18  25
ENDBRANCH  17  22
ENDBRANCH  16  17
ENDBRANCH  15  16
ENDBRANCH   1  15
TORSDOF 8
ENDMDL
MODEL 2
REMARK VINA RESULT:      -7.2      1.714      2.127
REMARK  Name = 
REMARK  9 active torsions:
REMARK  status: ('A' for Active; 'I' for Inactive)
REMARK    1  A    between atoms: C_1  and  O_2
REMARK    2  A    between atoms: O_2  and  C_3
REMARK    3  A    between atoms: C_7  and  O_8
REMARK    4  A    between atoms: O_8  and  C_9
REMARK    5  A    between atoms: C_9  and  C_10
REMARK    6  A    between atoms: C_10  and  N_11
REMARK    7  A    between atoms: N_11  and  S_12
REMARK    8  A    between atoms: S_12  and  C_15
REMARK    9  A    between atoms: C_19  and  N_20
REMARK                            x       y       z     vdW  Elec       q    Type
REMARK                         _______ _______ _______ _____ _____    ______ ____
ROOT
ATOM      1  N   UNL     1       2.894   3.656  19.355  0.00  0.00    +0.000 NA
ATOM      2  H   UNL     1       3.341   3.117  20.100  0.00  0.00    +0.000 HD
ENDROOT
BRANCH   1   3
ATOM      3  S   UNL     1       3.246   2.952  17.857  0.00  0.00    +0.000 S 
ATOM      4  O   UNL     1       3.606   1.582  18.126  0.00  0.00    +0.000 OA
ATOM      5  O   UNL     1       2.181   3.302  16.945  0.00  0.00    +0.000 OA
BRANCH   3   6
ATOM      6  C   UNL     1       4.725   3.798  17.361  0.00  0.00    +0.000 A 
ATOM      7  C   UNL     1       5.171   3.698  16.040  0.00  0.00    +0.000 A 
ATOM      8  C   UNL     1       6.356   4.326  15.656  0.00  0.00    +0.000 A 
ATOM      9  C   UNL     1       7.098   5.050  16.591  0.00  0.00    +0.000 A 
ATOM     10  C   UNL     1       6.644   5.144  17.915  0.00  0.00    +0.000 A 
ATOM     11  C   UNL     1       5.455   4.517  18.313  0.00  0.00    +0.000 A 
BRANCH  10  12
ATOM     12  N   UNL     1       7.426   5.911  18.895  0.00  0.00    +0.000 N 
ATOM     13  O   UNL     1       7.480   5.482  20.056  0.00  0.00    +0.000 OA
ATOM     14  O   UNL     1       7.992   6.939  18.496  0.00  0.00    +0.000 OA
ENDBRANCH  10  12
ENDBRANCH   3   6
ENDBRANCH   1   3
BRANCH   1  15
ATOM     15  C   UNL     1       1.494   4.071  19.560  0.00  0.00    +0.000 C 
BRANCH  15  16
ATOM     16  C   UNL     1       1.377   5.148  20.636  0.00  0.00    +0.000 C 
BRANCH  16  17
ATOM     17  O   UNL     1       2.430   6.096  20.431  0.00  0.00    +0.000 OA
BRANCH  17  22
ATOM     18  C   UNL     1       1.098   9.473  19.670  0.00  0.00    +0.000 A 
ATOM     19  C   UNL     1       1.519   9.578  18.344  0.00  0.00    +0.000 A 
ATOM     20  C   UNL     1       2.224   8.533  17.744  0.00  0.00    +0.000 A 
ATOM     21  C   UNL     1       2.509   7.379  18.475  0.00  0.00    +0.000 A 
ATOM     22  C   UNL     1       2.098   7.263  19.805  0.00  0.00    +0.000 A 
ATOM     23  C   UNL     1       1.396   8.318  20.396  0.00  0.00    +0.000 A 
BRANCH  18  25
ATOM     24  C   UNL     1       0.976  11.829  19.927  0.00  0.00    +0.000 C 
ATOM     25  O   UNL     1       0.399  10.546  20.156  0.00  0.00    +0.000 OA
ENDBRANCH  18  25
ENDBRANCH  17  22
ENDBRANCH  16  17
ENDBRANCH  15  16
ENDBRANCH   1  15
TORSDOF 8
ENDMDL
MODEL 3
REMARK VINA RESULT:      -7.0      5.213      7.570
REMARK  Name = 
REMARK  9 active torsions:
REMARK  status: ('A' for Active; 'I' for Inactive)
REMARK    1  A    between atoms: C_1  and  O_2
REMARK    2  A    between atoms: O_2  and  C_3
REMARK    3  A    between atoms: C_7  and  O_8
REMARK    4  A    between atoms: O_8  and  C_9
REMARK    5  A    between atoms: C_9  and  C_10
REMARK    6  A    between atoms: C_10  and  N_11
REMARK    7  A    between atoms: N_11  and  S_12
REMARK    8  A    between atoms: S_12  and  C_15
REMARK    9  A    between atoms: C_19  and  N_20
REMARK                            x       y       z     vdW  Elec       q    Type
REMARK                         _______ _______ _______ _____ _____    ______ ____
ROOT
ATOM      1  N   UNL     1       6.615   6.868  17.863  0.00  0.00    +0.000 NA
ATOM      2  H   UNL     1       5.790   6.855  17.260  0.00  0.00    +0.000 HD
ENDROOT
BRANCH   1   3
ATOM      3  S   UNL     1       6.914   5.310  18.451  0.00  0.00    +0.000 S 
ATOM      4  O   UNL     1       7.786   4.675  17.493  0.00  0.00    +0.000 OA
ATOM      5  O   UNL     1       7.260   5.425  19.848  0.00  0.00    +0.000 OA
BRANCH   3   6
ATOM      6  C   UNL     1       5.327   4.527  18.317  0.00  0.00    +0.000 A 
ATOM      7  C   UNL     1       4.850   4.137  17.062  0.00  0.00    +0.000 A 
ATOM      8  C   UNL     1       3.584   3.560  16.947  0.00  0.00    +0.000 A 
ATOM      9  C   UNL     1       2.794   3.377  18.083  0.00  0.00    +0.000 A 
ATOM     10  C   UNL     1       3.280   3.773  19.339  0.00  0.00    +0.000 A 
ATOM     11  C   UNL     1       4.549   4.354  19.466  0.00  0.00    +0.000 A 
BRANCH  10  12
ATOM     12  N   UNL     1       2.446   3.573  20.532  0.00  0.00    +0.000 N 
ATOM     13  O   UNL     1       1.998   2.436  20.741  0.00  0.00    +0.000 OA
ATOM     14  O   UNL     1       2.246   4.554  21.262  0.00  0.00    +0.000 OA
ENDBRANCH  10  12
ENDBRANCH   3   6
ENDBRANCH   1   3
BRANCH   1  15
ATOM     15  C   UNL     1       7.794   7.616  17.388  0.00  0.00    +0.000 C 
BRANCH  15  16
ATOM     16  C   UNL     1       8.398   8.480  18.492  0.00  0.00    +0.000 C 
BRANCH  16  17
ATOM     17  O   UNL     1       8.414   9.836  18.036  0.00  0.00    +0.000 OA
BRANCH  17  22
ATOM     18  C   UNL     1      11.267  12.175  18.433  0.00  0.00    +0.000 A 
ATOM     19  C   UNL     1      11.273  12.275  19.824  0.00  0.00    +0.000 A 
ATOM     20  C   UNL     1      10.340  11.567  20.585  0.00  0.00    +0.000 A 
ATOM     21  C   UNL     1       9.398  10.757  19.950  0.00  0.00    +0.000 A 
ATOM     22  C   UNL     1       9.377  10.652  18.558  0.00  0.00    +0.000 A 
ATOM     23  C   UNL     1      10.315  11.369  17.806  0.00  0.00    +0.000 A 
BRANCH  18  25
ATOM     24  C   UNL     1      11.785  14.024  17.039  0.00  0.00    +0.000 C 
ATOM     25  O   UNL     1      12.234  12.895  17.783  0.00  0.00    +0.000 OA
ENDBRANCH  18  25
ENDBRANCH  17  22
ENDBRANCH  16  17
ENDBRANCH  15  16
ENDBRANCH   1  15
TORSDOF 8
ENDMDL
MODEL 4
REMARK VINA RESULT:      -7.0      1.490      1.956
REMARK  Name = 
REMARK  9 active torsions:
REMARK  status: ('A' for Active; 'I' for Inactive)
REMARK    1  A    between atoms: C_1  and  O_2
REMARK    2  A    between atoms: O_2  and  C_3
REMARK    3  A    between atoms: C_7  and  O_8
REMARK    4  A    between atoms: O_8  and  C_9
REMARK    5  A    between atoms: C_9  and  C_10
REMARK    6  A    between atoms: C_10  and  N_11
REMARK    7  A    between atoms: N_11  and  S_12
REMARK    8  A    between atoms: S_12  and  C_15
REMARK    9  A    between atoms: C_19  and  N_20
REMARK                            x       y       z     vdW  Elec       q    Type
REMARK                         _______ _______ _______ _____ _____    ______ ____
ROOT
ATOM      1  N   UNL     1       3.099   4.225  19.470  0.00  0.00    +0.000 NA
ATOM      2  H   UNL     1       2.719   3.880  20.354  0.00  0.00    +0.000 HD
ENDROOT
BRANCH   1   3
ATOM      3  S   UNL     1       4.278   3.153  18.902  0.00  0.00    +0.000 S 
ATOM      4  O   UNL     1       4.909   2.588  20.070  0.00  0.00    +0.000 OA
ATOM      5  O   UNL     1       3.671   2.330  17.883  0.00  0.00    +0.000 OA
BRANCH   3   6
ATOM      6  C   UNL     1       5.459   4.234  18.136  0.00  0.00    +0.000 A 
ATOM      7  C   UNL     1       6.046   5.260  18.883  0.00  0.00    +0.000 A 
ATOM      8  C   UNL     1       6.942   6.140  18.275  0.00  0.00    +0.000 A 
ATOM      9  C   UNL     1       7.249   5.997  16.920  0.00  0.00    +0.000 A 
ATOM     10  C   UNL     1       6.654   4.966  16.178  0.00  0.00    +0.000 A 
ATOM     11  C   UNL     1       5.752   4.078  16.778  0.00  0.00    +0.000 A 
BRANCH  10  12
ATOM     12  N   UNL     1       6.984   4.819  14.753  0.00  0.00    +0.000 N 
ATOM     13  O   UNL     1       7.827   5.590  14.272  0.00  0.00    +0.000 OA
ATOM     14  O   UNL     1       6.404   3.925  14.120  0.00  0.00    +0.000 OA
ENDBRANCH  10  12
ENDBRANCH   3   6
ENDBRANCH   1   3
BRANCH   1  15
ATOM     15  C   UNL     1       2.141   4.722  18.465  0.00  0.00    +0.000 C 
BRANCH  15  16
ATOM     16  C   UNL     1       2.374   6.197  18.144  0.00  0.00    +0.000 C 
BRANCH  16  17
ATOM     17  O   UNL     1       2.792   6.852  19.346  0.00  0.00    +0.000 OA
BRANCH  17  22
ATOM     18  C   UNL     1       0.690   9.010  21.511  0.00  0.00    +0.000 A 
ATOM     19  C   UNL     1       0.355   9.992  20.578  0.00  0.00    +0.000 A 
ATOM     20  C   UNL     1       0.830   9.909  19.268  0.00  0.00    +0.000 A 
ATOM     21  C   UNL     1       1.643   8.840  18.890  0.00  0.00    +0.000 A 
ATOM     22  C   UNL     1       1.990   7.853  19.815  0.00  0.00    +0.000 A 
ATOM     23  C   UNL     1       1.512   7.949  21.126  0.00  0.00    +0.000 A 
BRANCH  18  25
ATOM     24  C   UNL     1      -0.763  10.251  22.917  0.00  0.00    +0.000 C 
ATOM     25  O   UNL     1       0.159   9.176  22.762  0.00  0.00    +0.000 OA
ENDBRANCH  18  25
ENDBRANCH  17  22
ENDBRANCH  16  17
ENDBRANCH  15  16
ENDBRANCH   1  15
TORSDOF 8
ENDMDL
MODEL 5
REMARK VINA RESULT:      -7.0      3.222      4.928
REMARK  Name = 
REMARK  9 active torsions:
REMARK  status: ('A' for Active; 'I' for Inactive)
REMARK    1  A    between atoms: C_1  and  O_2
REMARK    2  A    between atoms: O_2  and  C_3
REMARK    3  A    between atoms: C_7  and  O_8
REMARK    4  A    between atoms: O_8  and  C_9
REMARK    5  A    between atoms: C_9  and  C_10
REMARK    6  A    between atoms: C_10  and  N_11
REMARK    7  A    between atoms: N_11  and  S_12
REMARK    8  A    between atoms: S_12  and  C_15
REMARK    9  A    between atoms: C_19  and  N_20
REMARK                            x       y       z     vdW  Elec       q    Type
REMARK                         _______ _______ _______ _____ _____    ______ ____
ROOT
ATOM      1  N   UNL     1       6.548   6.498  16.301  0.00  0.00    +0.000 NA
ATOM      2  H   UNL     1       7.429   6.967  16.078  0.00  0.00    +0.000 HD
ENDROOT
BRANCH   1   3
ATOM      3  S   UNL     1       6.743   4.824  16.149  0.00  0.00    +0.000 S 
ATOM      4  O   UNL     1       8.028   4.512  16.723  0.00  0.00    +0.000 OA
ATOM      5  O   UNL     1       5.524   4.196  16.603  0.00  0.00    +0.000 OA
BRANCH   3   6
ATOM      6  C   UNL     1       6.881   4.601  14.393  0.00  0.00    +0.000 A 
ATOM      7  C   UNL     1       7.812   5.353  13.670  0.00  0.00    +0.000 A 
ATOM      8  C   UNL     1       7.895   5.213  12.284  0.00  0.00    +0.000 A 
ATOM      9  C   UNL     1       7.047   4.324  11.621  0.00  0.00    +0.000 A 
ATOM     10  C   UNL     1       6.115   3.575  12.354  0.00  0.00    +0.000 A 
ATOM     11  C   UNL     1       6.021   3.709  13.746  0.00  0.00    +0.000 A 
BRANCH  10  12
ATOM     12  N   UNL     1       5.227   2.638  11.650  0.00  0.00    +0.000 N 
ATOM     13  O   UNL     1       5.666   1.507  11.396  0.00  0.00    +0.000 OA
ATOM     14  O   UNL     1       4.090   3.035  11.361  0.00  0.00    +0.000 OA
ENDBRANCH  10  12
ENDBRANCH   3   6
ENDBRANCH   1   3
BRANCH   1  15
ATOM     15  C   UNL     1       5.816   6.957  17.495  0.00  0.00    +0.000 C 
BRANCH  15  16
ATOM     16  C   UNL     1       4.304   6.870  17.298  0.00  0.00    +0.000 C 
BRANCH  16  17
ATOM     17  O   UNL     1       3.694   6.761  18.588  0.00  0.00    +0.000 OA
BRANCH  17  22
ATOM     18  C   UNL     1       1.597   4.123  20.140  0.00  0.00    +0.000 A 
ATOM     19  C   UNL     1       1.114   3.519  18.979  0.00  0.00    +0.000 A 
ATOM     20  C   UNL     1       1.498   3.998  17.725  0.00  0.00    +0.000 A 
ATOM     21  C   UNL     1       2.367   5.086  17.633  0.00  0.00    +0.000 A 
ATOM     22  C   UNL     1       2.853   5.703  18.787  0.00  0.00    +0.000 A 
ATOM     23  C   UNL     1       2.459   5.217  20.038  0.00  0.00    +0.000 A 
BRANCH  18  25
ATOM     24  C   UNL     1       1.912   2.440  21.782  0.00  0.00    +0.000 C 
ATOM     25  O   UNL     1       1.173   3.566  21.317  0.00  0.00    +0.000 OA
ENDBRANCH  18  25
ENDBRANCH  17  22
ENDBRANCH  16  17
ENDBRANCH  15  16
ENDBRANCH   1  15
TORSDOF 8
ENDMDL
MODEL 6
REMARK VINA RESULT:      -6.8      2.933      5.307
REMARK  Name = 
REMARK  9 active torsions:
REMARK  status: ('A' for Active; 'I' for Inactive)
REMARK    1  A    between atoms: C_1  and  O_2
REMARK    2  A    between atoms: O_2  and  C_3
REMARK    3  A    between atoms: C_7  and  O_8
REMARK    4  A    between atoms: O_8  and  C_9
REMARK    5  A    between atoms: C_9  and  C_10
REMARK    6  A    between atoms: C_10  and  N_11
REMARK    7  A    between atoms: N_11  and  S_12
REMARK    8  A    between atoms: S_12  and  C_15
REMARK    9  A    between atoms: C_19  and  N_20
REMARK                            x       y       z     vdW  Elec       q    Type
REMARK                         _______ _______ _______ _____ _____    ______ ____
ROOT
ATOM      1  N   UNL     1       4.935   5.828  16.036  0.00  0.00    +0.000 NA
ATOM      2  H   UNL     1       4.562   5.825  15.084  0.00  0.00    +0.000 HD
ENDROOT
BRANCH   1   3
ATOM      3  S   UNL     1       6.475   5.127  16.043  0.00  0.00    +0.000 S 
ATOM      4  O   UNL     1       7.398   6.177  16.399  0.00  0.00    +0.000 OA
ATOM      5  O   UNL     1       6.393   3.891  16.787  0.00  0.00    +0.000 OA
BRANCH   3   6
ATOM      6  C   UNL     1       6.744   4.747  14.330  0.00  0.00    +0.000 A 
ATOM      7  C   UNL     1       7.745   5.418  13.620  0.00  0.00    +0.000 A 
ATOM      8  C   UNL     1       7.931   5.154  12.263  0.00  0.00    +0.000 A 
ATOM      9  C   UNL     1       7.117   4.224  11.614  0.00  0.00    +0.000 A 
ATOM     10  C   UNL     1       6.114   3.557  12.334  0.00  0.00    +0.000 A 
ATOM     11  C   UNL     1       5.917   3.815  13.697  0.00  0.00    +0.000 A 
BRANCH  10  12
ATOM     12  N   UNL     1       5.263   2.576  11.646  0.00  0.00    +0.000 N 
ATOM     13  O   UNL     1       4.117   2.926  11.330  0.00  0.00    +0.000 OA
ATOM     14  O   UNL     1       5.748   1.458  11.417  0.00  0.00    +0.000 OA
ENDBRANCH  10  12
ENDBRANCH   3   6
ENDBRANCH   1   3
BRANCH   1  15
ATOM     15  C   UNL     1       4.786   7.066  16.822  0.00  0.00    +0.000 C 
BRANCH  15  16
ATOM     16  C   UNL     1       3.563   7.009  17.736  0.00  0.00    +0.000 C 
BRANCH  16  17
ATOM     17  O   UNL     1       3.934   6.313  18.930  0.00  0.00    +0.000 OA
BRANCH  17  22
ATOM     18  C   UNL     1       2.446   2.944  19.376  0.00  0.00    +0.000 A 
ATOM     19  C   UNL     1       1.379   3.286  20.208  0.00  0.00    +0.000 A 
ATOM     20  C   UNL     1       1.184   4.615  20.591  0.00  0.00    +0.000 A 
ATOM     21  C   UNL     1       2.060   5.603  20.141  0.00  0.00    +0.000 A 
ATOM     22  C   UNL     1       3.135   5.273  19.312  0.00  0.00    +0.000 A 
ATOM     23  C   UNL     1       3.322   3.938  18.938  0.00  0.00    +0.000 A 
BRANCH  18  25
ATOM     24  C   UNL     1       3.701   1.227  18.324  0.00  0.00    +0.000 C 
ATOM     25  O   UNL     1       2.537   1.618  19.047  0.00  0.00    +0.000 OA
ENDBRANCH  18  25
ENDBRANCH  17  22
ENDBRANCH  16  17
ENDBRANCH  15  16
ENDBRANCH   1  15
TORSDOF 8
ENDMDL
MODEL 7
REMARK VINA RESULT:      -6.8      5.455      7.078
REMARK  Name = 
REMARK  9 active torsions:
REMARK  status: ('A' for Active; 'I' for Inactive)
REMARK    1  A    between atoms: C_1  and  O_2
REMARK    2  A    between atoms: O_2  and  C_3
REMARK    3  A    between atoms: C_7  and  O_8
REMARK    4  A    between atoms: O_8  and  C_9
REMARK    5  A    between atoms: C_9  and  C_10
REMARK    6  A    between atoms: C_10  and  N_11
REMARK    7  A    between atoms: N_11  and  S_12
REMARK    8  A    between atoms: S_12  and  C_15
REMARK    9  A    between atoms: C_19  and  N_20
REMARK                            x       y       z     vdW  Elec       q    Type
REMARK                         _______ _______ _______ _____ _____    ______ ____
ROOT
ATOM      1  N   UNL     1       7.664   6.815  18.273  0.00  0.00    +0.000 NA
ATOM      2  H   UNL     1       7.047   6.789  19.088  0.00  0.00    +0.000 HD
ENDROOT
BRANCH   1   3
ATOM      3  S   UNL     1       7.255   5.560  17.213  0.00  0.00    +0.000 S 
ATOM      4  O   UNL     1       7.420   6.085  15.880  0.00  0.00    +0.000 OA
ATOM      5  O   UNL     1       7.935   4.367  17.660  0.00  0.00    +0.000 OA
BRANCH   3   6
ATOM      6  C   UNL     1       5.512   5.363  17.489  0.00  0.00    +0.000 A 
ATOM      7  C   UNL     1       4.696   6.493  17.600  0.00  0.00    +0.000 A 
ATOM      8  C   UNL     1       3.333   6.344  17.860  0.00  0.00    +0.000 A 
ATOM      9  C   UNL     1       2.787   5.068  18.013  0.00  0.00    +0.000 A 
ATOM     10  C   UNL     1       3.614   3.940  17.902  0.00  0.00    +0.000 A 
ATOM     11  C   UNL     1       4.984   4.078  17.643  0.00  0.00    +0.000 A 
BRANCH  10  12
ATOM     12  N   UNL     1       3.032   2.600  18.061  0.00  0.00    +0.000 N 
ATOM     13  O   UNL     1       3.545   1.842  18.897  0.00  0.00    +0.000 OA
ATOM     14  O   UNL     1       2.057   2.311  17.352  0.00  0.00    +0.000 OA
ENDBRANCH  10  12
ENDBRANCH   3   6
ENDBRANCH   1   3
BRANCH   1  15
ATOM     15  C   UNL     1       7.917   8.128  17.652  0.00  0.00    +0.000 C 
BRANCH  15  16
ATOM     16  C   UNL     1       8.627   9.079  18.613  0.00  0.00    +0.000 C 
BRANCH  16  17
ATOM     17  O   UNL     1       8.859  10.313  17.925  0.00  0.00    +0.000 OA
BRANCH  17  22
ATOM     18  C   UNL     1       9.724  13.701  19.164  0.00  0.00    +0.000 A 
ATOM     19  C   UNL     1      10.396  13.339  20.333  0.00  0.00    +0.000 A 
ATOM     20  C   UNL     1      10.544  11.993  20.671  0.00  0.00    +0.000 A 
ATOM     21  C   UNL     1      10.017  11.005  19.838  0.00  0.00    +0.000 A 
ATOM     22  C   UNL     1       9.338  11.353  18.668  0.00  0.00    +0.000 A 
ATOM     23  C   UNL     1       9.193  12.706  18.341  0.00  0.00    +0.000 A 
BRANCH  18  25
ATOM     24  C   UNL     1       8.655  15.460  17.984  0.00  0.00    +0.000 C 
ATOM     25  O   UNL     1       9.650  15.046  18.916  0.00  0.00    +0.000 OA
ENDBRANCH  18  25
ENDBRANCH  17  22
ENDBRANCH  16  17
ENDBRANCH  15  16
ENDBRANCH   1  15
TORSDOF 8
ENDMDL
MODEL 8
REMARK VINA RESULT:      -6.8      5.214      7.554
REMARK  Name = 
REMARK  9 active torsions:
REMARK  status: ('A' for Active; 'I' for Inactive)
REMARK    1  A    between atoms: C_1  and  O_2
REMARK    2  A    between atoms: O_2  and  C_3
REMARK    3  A    between atoms: C_7  and  O_8
REMARK    4  A    between atoms: O_8  and  C_9
REMARK    5  A    between atoms: C_9  and  C_10
REMARK    6  A    between atoms: C_10  and  N_11
REMARK    7  A    between atoms: N_11  and  S_12
REMARK    8  A    between atoms: S_12  and  C_15
REMARK    9  A    between atoms: C_19  and  N_20
REMARK                            x       y       z     vdW  Elec       q    Type
REMARK                         _______ _______ _______ _____ _____    ______ ____
ROOT
ATOM      1  N   UNL     1       7.013   6.686  17.942  0.00  0.00    +0.000 NA
ATOM      2  H   UNL     1       6.440   6.553  18.778  0.00  0.00    +0.000 HD
ENDROOT
BRANCH   1   3
ATOM      3  S   UNL     1       6.525   5.598  16.741  0.00  0.00    +0.000 S 
ATOM      4  O   UNL     1       6.184   6.393  15.587  0.00  0.00    +0.000 OA
ATOM      5  O   UNL     1       7.504   4.538  16.683  0.00  0.00    +0.000 OA
BRANCH   3   6
ATOM      6  C   UNL     1       5.010   4.943  17.395  0.00  0.00    +0.000 A 
ATOM      7  C   UNL     1       4.540   3.705  16.946  0.00  0.00    +0.000 A 
ATOM      8  C   UNL     1       3.328   3.206  17.425  0.00  0.00    +0.000 A 
ATOM      9  C   UNL     1       2.585   3.943  18.349  0.00  0.00    +0.000 A 
ATOM     10  C   UNL     1       3.063   5.186  18.792  0.00  0.00    +0.000 A 
ATOM     11  C   UNL     1       4.278   5.698  18.317  0.00  0.00    +0.000 A 
BRANCH  10  12
ATOM     12  N   UNL     1       2.279   5.955  19.768  0.00  0.00    +0.000 N 
ATOM     13  O   UNL     1       1.540   5.327  20.540  0.00  0.00    +0.000 OA
ATOM     14  O   UNL     1       2.410   7.188  19.763  0.00  0.00    +0.000 OA
ENDBRANCH  10  12
ENDBRANCH   3   6
ENDBRANCH   1   3
BRANCH   1  15
ATOM     15  C   UNL     1       7.258   8.071  17.498  0.00  0.00    +0.000 C 
BRANCH  15  16
ATOM     16  C   UNL     1       8.378   8.731  18.300  0.00  0.00    +0.000 C 
BRANCH  16  17
ATOM     17  O   UNL     1       8.420  10.117  17.945  0.00  0.00    +0.000 OA
BRANCH  17  22
ATOM     18  C   UNL     1      11.321  12.359  18.509  0.00  0.00    +0.000 A 
ATOM     19  C   UNL     1      11.323  12.364  19.905  0.00  0.00    +0.000 A 
ATOM     20  C   UNL     1      10.372  11.626  20.612  0.00  0.00    +0.000 A 
ATOM     21  C   UNL     1       9.415  10.882  19.921  0.00  0.00    +0.000 A 
ATOM     22  C   UNL     1       9.398  10.873  18.524  0.00  0.00    +0.000 A 
ATOM     23  C   UNL     1      10.354  11.619  17.827  0.00  0.00    +0.000 A 
BRANCH  18  25
ATOM     24  C   UNL     1      11.882  14.030  16.921  0.00  0.00    +0.000 C 
ATOM     25  O   UNL     1      12.306  13.101  17.914  0.00  0.00    +0.000 OA
ENDBRANCH  18  25
ENDBRANCH  17  22
ENDBRANCH  16  17
ENDBRANCH  15  16
ENDBRANCH   1  15
TORSDOF 8
ENDMDL
MODEL 9
REMARK VINA RESULT:      -6.8      3.299      5.289
REMARK  Name = 
REMARK  9 active torsions:
REMARK  status: ('A' for Active; 'I' for Inactive)
REMARK    1  A    between atoms: C_1  and  O_2
REMARK    2  A    between atoms: O_2  and  C_3
REMARK    3  A    between atoms: C_7  and  O_8
REMARK    4  A    between atoms: O_8  and  C_9
REMARK    5  A    between atoms: C_9  and  C_10
REMARK    6  A    between atoms: C_10  and  N_11
REMARK    7  A    between atoms: N_11  and  S_12
REMARK    8  A    between atoms: S_12  and  C_15
REMARK    9  A    between atoms: C_19  and  N_20
REMARK                            x       y       z     vdW  Elec       q    Type
REMARK                         _______ _______ _______ _____ _____    ______ ____
ROOT
ATOM      1  N   UNL     1       5.473   5.312  16.463  0.00  0.00    +0.000 NA
ATOM      2  H   UNL     1       4.949   4.856  15.712  0.00  0.00    +0.000 HD
ENDROOT
BRANCH   1   3
ATOM      3  S   UNL     1       7.126   5.279  16.102  0.00  0.00    +0.000 S 
ATOM      4  O   UNL     1       7.606   6.628  16.272  0.00  0.00    +0.000 OA
ATOM      5  O   UNL     1       7.708   4.161  16.808  0.00  0.00    +0.000 OA
BRANCH   3   6
ATOM      6  C   UNL     1       7.143   4.929  14.362  0.00  0.00    +0.000 A 
ATOM      7  C   UNL     1       8.022   5.621  13.524  0.00  0.00    +0.000 A 
ATOM      8  C   UNL     1       8.009   5.380  12.150  0.00  0.00    +0.000 A 
ATOM      9  C   UNL     1       7.117   4.451  11.612  0.00  0.00    +0.000 A 
ATOM     10  C   UNL     1       6.237   3.762  12.460  0.00  0.00    +0.000 A 
ATOM     11  C   UNL     1       6.240   3.996  13.842  0.00  0.00    +0.000 A 
BRANCH  10  12
ATOM     12  N   UNL     1       5.302   2.782  11.889  0.00  0.00    +0.000 N 
ATOM     13  O   UNL     1       4.119   3.125  11.748  0.00  0.00    +0.000 OA
ATOM     14  O   UNL     1       5.757   1.673  11.574  0.00  0.00    +0.000 OA
ENDBRANCH  10  12
ENDBRANCH   3   6
ENDBRANCH   1   3
BRANCH   1  15
ATOM     15  C   UNL     1       4.950   6.591  16.978  0.00  0.00    +0.000 C 
BRANCH  15  16
ATOM     16  C   UNL     1       3.919   6.374  18.084  0.00  0.00    +0.000 C 
BRANCH  16  17
ATOM     17  O   UNL     1       2.777   5.732  17.506  0.00  0.00    +0.000 OA
BRANCH  17  22
ATOM     18  C   UNL     1       1.524   3.077  19.774  0.00  0.00    +0.000 A 
ATOM     19  C   UNL     1       1.715   1.973  18.942  0.00  0.00    +0.000 A 
ATOM     20  C   UNL     1       2.253   2.140  17.665  0.00  0.00    +0.000 A 
ATOM     21  C   UNL     1       2.600   3.416  17.218  0.00  0.00    +0.000 A 
ATOM     22  C   UNL     1       2.409   4.530  18.038  0.00  0.00    +0.000 A 
ATOM     23  C   UNL     1       1.866   4.351  19.315  0.00  0.00    +0.000 A 
BRANCH  18  25
ATOM     24  C   UNL     1       1.920   2.872  22.105  0.00  0.00    +0.000 C 
ATOM     25  O   UNL     1       1.008   2.803  21.012  0.00  0.00    +0.000 OA
ENDBRANCH  18  25
ENDBRANCH  17  22
ENDBRANCH  16  17
ENDBRANCH  15  16
ENDBRANCH   1  15
TORSDOF 8
ENDMDL
