MODEL 1
REMARK VINA RESULT:      -6.4      0.000      0.000
REMARK  Name = 
REMARK  11 active torsions:
REMARK  status: ('A' for Active; 'I' for Inactive)
REMARK    1  A    between atoms: C_2  and  C_3
REMARK    2  A    between atoms: C_3  and  C_4
REMARK    3  A    between atoms: N_7  and  C_8
REMARK    4  A    between atoms: C_8  and  C_9
REMARK    5  A    between atoms: C_9  and  N_10
REMARK    6  A    between atoms: N_10  and  C_11
REMARK    7  A    between atoms: N_10  and  C_12
REMARK    8  A    between atoms: C_16  and  C_17
REMARK    9  A    between atoms: C_24  and  C_25
REMARK   10  A    between atoms: C_28  and  O_29
REMARK   11  A    between atoms: O_29  and  C_30
REMARK                            x       y       z     vdW  Elec       q    Type
REMARK                         _______ _______ _______ _____ _____    ______ ____
ROOT
ATOM      1  C   UNL     1       0.149  11.460  21.278  0.00  0.00    +0.000 C 
ATOM      2  C   UNL     1      -0.705  12.544  21.940  0.00  0.00    +0.000 C 
ATOM      3  O   UNL     1      -0.338  12.841  23.070  0.00  0.00    +0.000 OA
ATOM      4  N   UNL     1      -1.594  13.393  21.305  0.00  0.00    +0.000 N 
ATOM      5  C   UNL     1      -2.608  12.921  20.384  0.00  0.00    +0.000 A 
ATOM      6  C   UNL     1      -3.941  13.387  20.554  0.00  0.00    +0.000 A 
ATOM      7  C   UNL     1      -4.994  12.929  19.766  0.00  0.00    +0.000 A 
ATOM      8  C   UNL     1      -4.768  11.985  18.769  0.00  0.00    +0.000 A 
ATOM      9  C   UNL     1      -3.474  11.519  18.570  0.00  0.00    +0.000 A 
ATOM     10  C   UNL     1      -2.395  11.965  19.360  0.00  0.00    +0.000 A 
ATOM     11  C   UNL     1      -1.066  11.388  19.024  0.00  0.00    +0.000 C 
ATOM     12  C   UNL     1      -0.477  10.570  20.172  0.00  0.00    +0.000 C 
ENDROOT
BRANCH  12  13
ATOM     13  C   UNL     1       0.543   9.565  19.607  0.00  0.00    +0.000 A 
ATOM     14  C   UNL     1       1.110   8.563  20.425  0.00  0.00    +0.000 A 
ATOM     15  C   UNL     1       2.059   7.681  19.931  0.00  0.00    +0.000 A 
ATOM     16  C   UNL     1       2.476   7.758  18.594  0.00  0.00    +0.000 A 
ATOM     17  C   UNL     1       1.920   8.742  17.766  0.00  0.00    +0.000 A 
ATOM     18  C   UNL     1       0.968   9.643  18.268  0.00  0.00    +0.000 A 
BRANCH  16  19
ATOM     19  O   UNL     1       3.410   6.912  18.084  0.00  0.00    +0.000 OA
ATOM     20  C   UNL     1       3.903   5.800  18.737  0.00  0.00    +0.000 C 
ENDBRANCH  16  19
ENDBRANCH  12  13
BRANCH   8  21
ATOM     21  C   UNL     1      -5.876  11.439  17.907  0.00  0.00    +0.000 C 
ATOM     22  F   UNL     1      -6.901  12.354  17.750  0.00  0.00    +0.000 F 
ATOM     23  F   UNL     1      -5.372  11.116  16.660  0.00  0.00    +0.000 F 
ATOM     24  F   UNL     1      -6.389  10.296  18.495  0.00  0.00    +0.000 F 
ENDBRANCH   8  21
BRANCH   1  25
ATOM     25  C   UNL     1       1.435  12.195  20.785  0.00  0.00    +0.000 C 
BRANCH  25  27
ATOM     26  C   UNL     1       2.187  13.216  18.670  0.00  0.00    +0.000 C 
ATOM     27  C   UNL     1       1.230  13.091  19.586  0.00  0.00    +0.000 C 
ENDBRANCH  25  27
ENDBRANCH   1  25
BRANCH   4  28
ATOM     28  C   UNL     1      -1.662  14.778  21.823  0.00  0.00    +0.000 C 
BRANCH  28  29
ATOM     29  C   UNL     1      -0.713  15.707  21.008  0.00  0.00    +0.000 C 
BRANCH  29  30
ATOM     30  N   UNL     1      -1.284  16.161  19.710  0.00  0.00    +0.000 NA
ATOM     31  C   UNL     1      -2.098  17.388  19.862  0.00  0.00    +0.000 C 
ATOM     32  C   UNL     1      -0.204  16.441  18.748  0.00  0.00    +0.000 C 
ENDBRANCH  29  30
ENDBRANCH  28  29
ENDBRANCH   4  28
TORSDOF 8
ENDMDL
MODEL 2
REMARK VINA RESULT:      -6.3      3.270      4.403
REMARK  Name = 
REMARK  11 active torsions:
REMARK  status: ('A' for Active; 'I' for Inactive)
REMARK    1  A    between atoms: C_2  and  C_3
REMARK    2  A    between atoms: C_3  and  C_4
REMARK    3  A    between atoms: N_7  and  C_8
REMARK    4  A    between atoms: C_8  and  C_9
REMARK    5  A    between atoms: C_9  and  N_10
REMARK    6  A    between atoms: N_10  and  C_11
REMARK    7  A    between atoms: N_10  and  C_12
REMARK    8  A    between atoms: C_16  and  C_17
REMARK    9  A    between atoms: C_24  and  C_25
REMARK   10  A    between atoms: C_28  and  O_29
REMARK   11  A    between atoms: O_29  and  C_30
REMARK                            x       y       z     vdW  Elec       q    Type
REMARK                         _______ _______ _______ _____ _____    ______ ____
ROOT
ATOM      1  C   UNL     1      -1.019  12.423  20.227  0.00  0.00    +0.000 C 
ATOM      2  C   UNL     1      -0.693  13.098  21.561  0.00  0.00    +0.000 C 
ATOM      3  O   UNL     1       0.491  13.041  21.868  0.00  0.00    +0.000 OA
ATOM      4  N   UNL     1      -1.497  13.988  22.251  0.00  0.00    +0.000 N 
ATOM      5  C   UNL     1      -2.895  13.727  22.533  0.00  0.00    +0.000 A 
ATOM      6  C   UNL     1      -3.363  13.929  23.861  0.00  0.00    +0.000 A 
ATOM      7  C   UNL     1      -4.669  13.631  24.242  0.00  0.00    +0.000 A 
ATOM      8  C   UNL     1      -5.572  13.117  23.315  0.00  0.00    +0.000 A 
ATOM      9  C   UNL     1      -5.148  12.919  22.007  0.00  0.00    +0.000 A 
ATOM     10  C   UNL     1      -3.829  13.209  21.602  0.00  0.00    +0.000 A 
ATOM     11  C   UNL     1      -3.524  12.959  20.169  0.00  0.00    +0.000 C 
ATOM     12  C   UNL     1      -2.454  11.885  19.978  0.00  0.00    +0.000 C 
ENDROOT
BRANCH  12  13
ATOM     13  C   UNL     1      -2.593  11.273  18.573  0.00  0.00    +0.000 A 
ATOM     14  C   UNL     1      -1.657  10.332  18.090  0.00  0.00    +0.000 A 
ATOM     15  C   UNL     1      -1.757   9.808  16.810  0.00  0.00    +0.000 A 
ATOM     16  C   UNL     1      -2.803  10.196  15.960  0.00  0.00    +0.000 A 
ATOM     17  C   UNL     1      -3.745  11.124  16.425  0.00  0.00    +0.000 A 
ATOM     18  C   UNL     1      -3.638  11.664  17.715  0.00  0.00    +0.000 A 
BRANCH  16  19
ATOM     19  O   UNL     1      -2.922   9.705  14.699  0.00  0.00    +0.000 OA
ATOM     20  C   UNL     1      -3.912  10.067  13.805  0.00  0.00    +0.000 C 
ENDBRANCH  16  19
ENDBRANCH  12  13
BRANCH   8  21
ATOM     21  C   UNL     1      -6.987  12.755  23.682  0.00  0.00    +0.000 C 
ATOM     22  F   UNL     1      -7.525  13.647  24.592  0.00  0.00    +0.000 F 
ATOM     23  F   UNL     1      -7.771  12.752  22.543  0.00  0.00    +0.000 F 
ATOM     24  F   UNL     1      -7.003  11.489  24.242  0.00  0.00    +0.000 F 
ENDBRANCH   8  21
BRANCH   1  25
ATOM     25  C   UNL     1      -0.575  13.443  19.132  0.00  0.00    +0.000 C 
BRANCH  25  27
ATOM     26  C   UNL     1       1.775  13.940  18.573  0.00  0.00    +0.000 C 
ATOM     27  C   UNL     1       0.737  13.115  18.459  0.00  0.00    +0.000 C 
ENDBRANCH  25  27
ENDBRANCH   1  25
BRANCH   4  28
ATOM     28  C   UNL     1      -0.804  15.094  22.948  0.00  0.00    +0.000 C 
BRANCH  28  29
ATOM     29  C   UNL     1      -1.140  16.456  22.268  0.00  0.00    +0.000 C 
BRANCH  29  30
ATOM     30  N   UNL     1      -0.788  16.509  20.821  0.00  0.00    +0.000 NA
ATOM     31  C   UNL     1      -1.722  17.366  20.056  0.00  0.00    +0.000 C 
ATOM     32  C   UNL     1       0.574  17.042  20.647  0.00  0.00    +0.000 C 
ENDBRANCH  29  30
ENDBRANCH  28  29
ENDBRANCH   4  28
TORSDOF 8
ENDMDL
MODEL 3
REMARK VINA RESULT:      -6.3      1.195      1.890
REMARK  Name = 
REMARK  11 active torsions:
REMARK  status: ('A' for Active; 'I' for Inactive)
REMARK    1  A    between atoms: C_2  and  C_3
REMARK    2  A    between atoms: C_3  and  C_4
REMARK    3  A    between atoms: N_7  and  C_8
REMARK    4  A    between atoms: C_8  and  C_9
REMARK    5  A    between atoms: C_9  and  N_10
REMARK    6  A    between atoms: N_10  and  C_11
REMARK    7  A    between atoms: N_10  and  C_12
REMARK    8  A    between atoms: C_16  and  C_17
REMARK    9  A    between atoms: C_24  and  C_25
REMARK   10  A    between atoms: C_28  and  O_29
REMARK   11  A    between atoms: O_29  and  C_30
REMARK                            x       y       z     vdW  Elec       q    Type
REMARK                         _______ _______ _______ _____ _____    ______ ____
ROOT
ATOM      1  C   UNL     1       0.046  11.065  21.412  0.00  0.00    +0.000 C 
ATOM      2  C   UNL     1      -0.902  12.027  22.129  0.00  0.00    +0.000 C 
ATOM      3  O   UNL     1      -0.670  12.152  23.325  0.00  0.00    +0.000 OA
ATOM      4  N   UNL     1      -1.737  12.956  21.534  0.00  0.00    +0.000 N 
ATOM      5  C   UNL     1      -2.631  12.622  20.444  0.00  0.00    +0.000 A 
ATOM      6  C   UNL     1      -3.987  13.045  20.531  0.00  0.00    +0.000 A 
ATOM      7  C   UNL     1      -4.935  12.705  19.570  0.00  0.00    +0.000 A 
ATOM      8  C   UNL     1      -4.577  11.925  18.473  0.00  0.00    +0.000 A 
ATOM      9  C   UNL     1      -3.258  11.505  18.354  0.00  0.00    +0.000 A 
ATOM     10  C   UNL     1      -2.283  11.835  19.318  0.00  0.00    +0.000 A 
ATOM     11  C   UNL     1      -0.912  11.327  19.050  0.00  0.00    +0.000 C 
ATOM     12  C   UNL     1      -0.432  10.348  20.121  0.00  0.00    +0.000 C 
ENDROOT
BRANCH  12  13
ATOM     13  C   UNL     1       0.670   9.450  19.530  0.00  0.00    +0.000 A 
ATOM     14  C   UNL     1       1.127   9.631  18.206  0.00  0.00    +0.000 A 
ATOM     15  C   UNL     1       2.091   8.800  17.656  0.00  0.00    +0.000 A 
ATOM     16  C   UNL     1       2.646   7.755  18.411  0.00  0.00    +0.000 A 
ATOM     17  C   UNL     1       2.209   7.565  19.729  0.00  0.00    +0.000 A 
ATOM     18  C   UNL     1       1.225   8.398  20.282  0.00  0.00    +0.000 A 
BRANCH  16  19
ATOM     19  O   UNL     1       3.586   6.920  17.897  0.00  0.00    +0.000 OA
ATOM     20  C   UNL     1       3.462   5.546  17.825  0.00  0.00    +0.000 C 
ENDBRANCH  16  19
ENDBRANCH  12  13
BRANCH   8  21
ATOM     21  C   UNL     1      -5.569  11.508  17.420  0.00  0.00    +0.000 C 
ATOM     22  F   UNL     1      -4.945  10.935  16.327  0.00  0.00    +0.000 F 
ATOM     23  F   UNL     1      -6.455  10.593  17.959  0.00  0.00    +0.000 F 
ATOM     24  F   UNL     1      -6.274  12.620  16.994  0.00  0.00    +0.000 F 
ENDBRANCH   8  21
BRANCH   1  25
ATOM     25  C   UNL     1       1.360  11.876  21.183  0.00  0.00    +0.000 C 
BRANCH  25  27
ATOM     26  C   UNL     1       2.322  13.180  19.324  0.00  0.00    +0.000 C 
ATOM     27  C   UNL     1       1.272  12.928  20.102  0.00  0.00    +0.000 C 
ENDBRANCH  25  27
ENDBRANCH   1  25
BRANCH   4  28
ATOM     28  C   UNL     1      -1.896  14.245  22.244  0.00  0.00    +0.000 C 
BRANCH  28  29
ATOM     29  C   UNL     1      -0.674  15.171  21.965  0.00  0.00    +0.000 C 
BRANCH  29  30
ATOM     30  N   UNL     1       0.111  15.514  23.183  0.00  0.00    +0.000 NA
ATOM     31  C   UNL     1       0.897  16.756  23.003  0.00  0.00    +0.000 C 
ATOM     32  C   UNL     1      -0.791  15.702  24.334  0.00  0.00    +0.000 C 
ENDBRANCH  29  30
ENDBRANCH  28  29
ENDBRANCH   4  28
TORSDOF 8
ENDMDL
MODEL 4
REMARK VINA RESULT:      -6.3      3.217      4.453
REMARK  Name = 
REMARK  11 active torsions:
REMARK  status: ('A' for Active; 'I' for Inactive)
REMARK    1  A    between atoms: C_2  and  C_3
REMARK    2  A    between atoms: C_3  and  C_4
REMARK    3  A    between atoms: N_7  and  C_8
REMARK    4  A    between atoms: C_8  and  C_9
REMARK    5  A    between atoms: C_9  and  N_10
REMARK    6  A    between atoms: N_10  and  C_11
REMARK    7  A    between atoms: N_10  and  C_12
REMARK    8  A    between atoms: C_16  and  C_17
REMARK    9  A    between atoms: C_24  and  C_25
REMARK   10  A    between atoms: C_28  and  O_29
REMARK   11  A    between atoms: O_29  and  C_30
REMARK                            x       y       z     vdW  Elec       q    Type
REMARK                         _______ _______ _______ _____ _____    ______ ____
ROOT
ATOM      1  C   UNL     1      -0.631  12.548  20.212  0.00  0.00    +0.000 C 
ATOM      2  C   UNL     1      -0.248  13.251  21.516  0.00  0.00    +0.000 C 
ATOM      3  O   UNL     1       0.952  13.227  21.758  0.00  0.00    +0.000 OA
ATOM      4  N   UNL     1      -1.034  14.134  22.236  0.00  0.00    +0.000 N 
ATOM      5  C   UNL     1      -2.407  13.845  22.598  0.00  0.00    +0.000 A 
ATOM      6  C   UNL     1      -2.807  14.058  23.947  0.00  0.00    +0.000 A 
ATOM      7  C   UNL     1      -4.082  13.737  24.404  0.00  0.00    +0.000 A 
ATOM      8  C   UNL     1      -5.022  13.187  23.537  0.00  0.00    +0.000 A 
ATOM      9  C   UNL     1      -4.666  12.977  22.210  0.00  0.00    +0.000 A 
ATOM     10  C   UNL     1      -3.379  13.291  21.728  0.00  0.00    +0.000 A 
ATOM     11  C   UNL     1      -3.147  13.024  20.284  0.00  0.00    +0.000 C 
ATOM     12  C   UNL     1      -2.063  11.972  20.051  0.00  0.00    +0.000 C 
ENDROOT
BRANCH  12  13
ATOM     13  C   UNL     1      -2.265  11.334  18.665  0.00  0.00    +0.000 A 
ATOM     14  C   UNL     1      -3.379  11.669  17.863  0.00  0.00    +0.000 A 
ATOM     15  C   UNL     1      -3.586  11.067  16.631  0.00  0.00    +0.000 A 
ATOM     16  C   UNL     1      -2.683  10.111  16.143  0.00  0.00    +0.000 A 
ATOM     17  C   UNL     1      -1.568   9.772  16.923  0.00  0.00    +0.000 A 
ATOM     18  C   UNL     1      -1.364  10.371  18.175  0.00  0.00    +0.000 A 
BRANCH  16  19
ATOM     19  O   UNL     1      -2.863   9.499  14.943  0.00  0.00    +0.000 OA
ATOM     20  C   UNL     1      -3.492  10.073  13.856  0.00  0.00    +0.000 C 
ENDBRANCH  16  19
ENDBRANCH  12  13
BRANCH   8  21
ATOM     21  C   UNL     1      -6.406  12.798  23.987  0.00  0.00    +0.000 C 
ATOM     22  F   UNL     1      -7.159  12.287  22.945  0.00  0.00    +0.000 F 
ATOM     23  F   UNL     1      -6.314  11.843  24.982  0.00  0.00    +0.000 F 
ATOM     24  F   UNL     1      -7.051  13.914  24.492  0.00  0.00    +0.000 F 
ENDBRANCH   8  21
BRANCH   1  25
ATOM     25  C   UNL     1      -0.271  13.559  19.079  0.00  0.00    +0.000 C 
BRANCH  25  27
ATOM     26  C   UNL     1       2.059  14.116  18.496  0.00  0.00    +0.000 C 
ATOM     27  C   UNL     1       1.033  13.277  18.371  0.00  0.00    +0.000 C 
ENDBRANCH  25  27
ENDBRANCH   1  25
BRANCH   4  28
ATOM     28  C   UNL     1      -0.330  15.267  22.876  0.00  0.00    +0.000 C 
BRANCH  28  29
ATOM     29  C   UNL     1      -0.806  16.617  22.259  0.00  0.00    +0.000 C 
BRANCH  29  30
ATOM     30  N   UNL     1      -0.837  16.621  20.771  0.00  0.00    +0.000 NA
ATOM     31  C   UNL     1      -2.188  16.924  20.245  0.00  0.00    +0.000 C 
ATOM     32  C   UNL     1       0.099  17.630  20.244  0.00  0.00    +0.000 C 
ENDBRANCH  29  30
ENDBRANCH  28  29
ENDBRANCH   4  28
TORSDOF 8
ENDMDL
MODEL 5
REMARK VINA RESULT:      -6.3      0.515      1.004
REMARK  Name = 
REMARK  11 active torsions:
REMARK  status: ('A' for Active; 'I' for Inactive)
REMARK    1  A    between atoms: C_2  and  C_3
REMARK    2  A    between atoms: C_3  and  C_4
REMARK    3  A    between atoms: N_7  and  C_8
REMARK    4  A    between atoms: C_8  and  C_9
REMARK    5  A    between atoms: C_9  and  N_10
REMARK    6  A    between atoms: N_10  and  C_11
REMARK    7  A    between atoms: N_10  and  C_12
REMARK    8  A    between atoms: C_16  and  C_17
REMARK    9  A    between atoms: C_24  and  C_25
REMARK   10  A    between atoms: C_28  and  O_29
REMARK   11  A    between atoms: O_29  and  C_30
REMARK                            x       y       z     vdW  Elec       q    Type
REMARK                         _______ _______ _______ _____ _____    ______ ____
ROOT
ATOM      1  C   UNL     1       0.136  11.240  21.299  0.00  0.00    +0.000 C 
ATOM      2  C   UNL     1      -0.734  12.319  21.946  0.00  0.00    +0.000 C 
ATOM      3  O   UNL     1      -0.430  12.572  23.105  0.00  0.00    +0.000 OA
ATOM      4  N   UNL     1      -1.567  13.208  21.289  0.00  0.00    +0.000 N 
ATOM      5  C   UNL     1      -2.533  12.789  20.293  0.00  0.00    +0.000 A 
ATOM      6  C   UNL     1      -3.864  13.278  20.400  0.00  0.00    +0.000 A 
ATOM      7  C   UNL     1      -4.877  12.869  19.536  0.00  0.00    +0.000 A 
ATOM      8  C   UNL     1      -4.611  11.953  18.523  0.00  0.00    +0.000 A 
ATOM      9  C   UNL     1      -3.317  11.465  18.385  0.00  0.00    +0.000 A 
ATOM     10  C   UNL     1      -2.278  11.862  19.252  0.00  0.00    +0.000 A 
ATOM     11  C   UNL     1      -0.943  11.268  18.976  0.00  0.00    +0.000 C 
ATOM     12  C   UNL     1      -0.440  10.400  20.128  0.00  0.00    +0.000 C 
ENDROOT
BRANCH  12  13
ATOM     13  C   UNL     1       0.592   9.392  19.591  0.00  0.00    +0.000 A 
ATOM     14  C   UNL     1       1.138   8.392  20.426  0.00  0.00    +0.000 A 
ATOM     15  C   UNL     1       2.097   7.507  19.957  0.00  0.00    +0.000 A 
ATOM     16  C   UNL     1       2.546   7.579  18.629  0.00  0.00    +0.000 A 
ATOM     17  C   UNL     1       2.011   8.562  17.785  0.00  0.00    +0.000 A 
ATOM     18  C   UNL     1       1.049   9.465  18.262  0.00  0.00    +0.000 A 
BRANCH  16  19
ATOM     19  O   UNL     1       3.491   6.731  18.144  0.00  0.00    +0.000 OA
ATOM     20  C   UNL     1       4.393   7.047  17.147  0.00  0.00    +0.000 C 
ENDBRANCH  16  19
ENDBRANCH  12  13
BRANCH   8  21
ATOM     21  C   UNL     1      -5.675  11.460  17.579  0.00  0.00    +0.000 C 
ATOM     22  F   UNL     1      -6.483  10.506  18.171  0.00  0.00    +0.000 F 
ATOM     23  F   UNL     1      -6.462  12.524  17.177  0.00  0.00    +0.000 F 
ATOM     24  F   UNL     1      -5.074  10.900  16.465  0.00  0.00    +0.000 F 
ENDBRANCH   8  21
BRANCH   1  25
ATOM     25  C   UNL     1       1.463  11.962  20.908  0.00  0.00    +0.000 C 
BRANCH  25  27
ATOM     26  C   UNL     1       2.317  12.956  18.819  0.00  0.00    +0.000 C 
ATOM     27  C   UNL     1       1.348  12.901  19.730  0.00  0.00    +0.000 C 
ENDBRANCH  25  27
ENDBRANCH   1  25
BRANCH   4  28
ATOM     28  C   UNL     1      -1.638  14.576  21.849  0.00  0.00    +0.000 C 
BRANCH  28  29
ATOM     29  C   UNL     1      -0.451  15.439  21.322  0.00  0.00    +0.000 C 
BRANCH  29  30
ATOM     30  N   UNL     1      -0.849  16.453  20.306  0.00  0.00    +0.000 NA
ATOM     31  C   UNL     1      -0.541  16.006  18.928  0.00  0.00    +0.000 C 
ATOM     32  C   UNL     1      -2.296  16.719  20.392  0.00  0.00    +0.000 C 
ENDBRANCH  29  30
ENDBRANCH  28  29
ENDBRANCH   4  28
TORSDOF 8
ENDMDL
MODEL 6
REMARK VINA RESULT:      -6.3      0.709      1.423
REMARK  Name = 
REMARK  11 active torsions:
REMARK  status: ('A' for Active; 'I' for Inactive)
REMARK    1  A    between atoms: C_2  and  C_3
REMARK    2  A    between atoms: C_3  and  C_4
REMARK    3  A    between atoms: N_7  and  C_8
REMARK    4  A    between atoms: C_8  and  C_9
REMARK    5  A    between atoms: C_9  and  N_10
REMARK    6  A    between atoms: N_10  and  C_11
REMARK    7  A    between atoms: N_10  and  C_12
REMARK    8  A    between atoms: C_16  and  C_17
REMARK    9  A    between atoms: C_24  and  C_25
REMARK   10  A    between atoms: C_28  and  O_29
REMARK   11  A    between atoms: O_29  and  C_30
REMARK                            x       y       z     vdW  Elec       q    Type
REMARK                         _______ _______ _______ _____ _____    ______ ____
ROOT
ATOM      1  C   UNL     1       0.159  11.447  21.288  0.00  0.00    +0.000 C 
ATOM      2  C   UNL     1      -0.728  12.495  21.963  0.00  0.00    +0.000 C 
ATOM      3  O   UNL     1      -0.391  12.765  23.108  0.00  0.00    +0.000 OA
ATOM      4  N   UNL     1      -1.620  13.346  21.335  0.00  0.00    +0.000 N 
ATOM      5  C   UNL     1      -2.606  12.883  20.379  0.00  0.00    +0.000 A 
ATOM      6  C   UNL     1      -3.952  13.319  20.535  0.00  0.00    +0.000 A 
ATOM      7  C   UNL     1      -4.980  12.866  19.713  0.00  0.00    +0.000 A 
ATOM      8  C   UNL     1      -4.716  11.955  18.693  0.00  0.00    +0.000 A 
ATOM      9  C   UNL     1      -3.410  11.519  18.508  0.00  0.00    +0.000 A 
ATOM     10  C   UNL     1      -2.355  11.961  19.333  0.00  0.00    +0.000 A 
ATOM     11  C   UNL     1      -1.009  11.419  19.008  0.00  0.00    +0.000 C 
ATOM     12  C   UNL     1      -0.428  10.578  20.143  0.00  0.00    +0.000 C 
ENDROOT
BRANCH  12  13
ATOM     13  C   UNL     1       0.623   9.609  19.571  0.00  0.00    +0.000 A 
ATOM     14  C   UNL     1       1.052   9.708  18.229  0.00  0.00    +0.000 A 
ATOM     15  C   UNL     1       1.969   8.813  17.698  0.00  0.00    +0.000 A 
ATOM     16  C   UNL     1       2.503   7.786  18.490  0.00  0.00    +0.000 A 
ATOM     17  C   UNL     1       2.093   7.677  19.826  0.00  0.00    +0.000 A 
ATOM     18  C   UNL     1       1.157   8.575  20.360  0.00  0.00    +0.000 A 
BRANCH  16  19
ATOM     19  O   UNL     1       3.397   6.890  17.995  0.00  0.00    +0.000 OA
ATOM     20  C   UNL     1       3.369   5.532  18.246  0.00  0.00    +0.000 C 
ENDBRANCH  16  19
ENDBRANCH  12  13
BRANCH   8  21
ATOM     21  C   UNL     1      -5.795  11.415  17.793  0.00  0.00    +0.000 C 
ATOM     22  F   UNL     1      -6.525  10.416  18.411  0.00  0.00    +0.000 F 
ATOM     23  F   UNL     1      -6.653  12.439  17.438  0.00  0.00    +0.000 F 
ATOM     24  F   UNL     1      -5.216  10.895  16.649  0.00  0.00    +0.000 F 
ENDBRANCH   8  21
BRANCH   1  25
ATOM     25  C   UNL     1       1.440  12.219  20.842  0.00  0.00    +0.000 C 
BRANCH  25  27
ATOM     26  C   UNL     1       2.221  14.006  19.333  0.00  0.00    +0.000 C 
ATOM     27  C   UNL     1       1.214  13.247  19.759  0.00  0.00    +0.000 C 
ENDBRANCH  25  27
ENDBRANCH   1  25
BRANCH   4  28
ATOM     28  C   UNL     1      -1.725  14.713  21.892  0.00  0.00    +0.000 C 
BRANCH  28  29
ATOM     29  C   UNL     1      -1.142  15.752  20.886  0.00  0.00    +0.000 C 
BRANCH  29  30
ATOM     30  N   UNL     1      -0.131  16.667  21.486  0.00  0.00    +0.000 NA
ATOM     31  C   UNL     1       0.844  15.938  22.328  0.00  0.00    +0.000 C 
ATOM     32  C   UNL     1       0.611  17.371  20.425  0.00  0.00    +0.000 C 
ENDBRANCH  29  30
ENDBRANCH  28  29
ENDBRANCH   4  28
TORSDOF 8
ENDMDL
MODEL 7
REMARK VINA RESULT:      -6.3      0.599      1.275
REMARK  Name = 
REMARK  11 active torsions:
REMARK  status: ('A' for Active; 'I' for Inactive)
REMARK    1  A    between atoms: C_2  and  C_3
REMARK    2  A    between atoms: C_3  and  C_4
REMARK    3  A    between atoms: N_7  and  C_8
REMARK    4  A    between atoms: C_8  and  C_9
REMARK    5  A    between atoms: C_9  and  N_10
REMARK    6  A    between atoms: N_10  and  C_11
REMARK    7  A    between atoms: N_10  and  C_12
REMARK    8  A    between atoms: C_16  and  C_17
REMARK    9  A    between atoms: C_24  and  C_25
REMARK   10  A    between atoms: C_28  and  O_29
REMARK   11  A    between atoms: O_29  and  C_30
REMARK                            x       y       z     vdW  Elec       q    Type
REMARK                         _______ _______ _______ _____ _____    ______ ____
ROOT
ATOM      1  C   UNL     1       0.104  11.010  21.368  0.00  0.00    +0.000 C 
ATOM      2  C   UNL     1      -0.833  11.993  22.073  0.00  0.00    +0.000 C 
ATOM      3  O   UNL     1      -0.605  12.122  23.269  0.00  0.00    +0.000 OA
ATOM      4  N   UNL     1      -1.649  12.931  21.466  0.00  0.00    +0.000 N 
ATOM      5  C   UNL     1      -2.543  12.603  20.373  0.00  0.00    +0.000 A 
ATOM      6  C   UNL     1      -3.892  13.049  20.450  0.00  0.00    +0.000 A 
ATOM      7  C   UNL     1      -4.840  12.717  19.486  0.00  0.00    +0.000 A 
ATOM      8  C   UNL     1      -4.488  11.923  18.397  0.00  0.00    +0.000 A 
ATOM      9  C   UNL     1      -3.176  11.482  18.288  0.00  0.00    +0.000 A 
ATOM     10  C   UNL     1      -2.201  11.802  19.256  0.00  0.00    +0.000 A 
ATOM     11  C   UNL     1      -0.837  11.271  18.999  0.00  0.00    +0.000 C 
ATOM     12  C   UNL     1      -0.379  10.292  20.079  0.00  0.00    +0.000 C 
ENDROOT
BRANCH  12  13
ATOM     13  C   UNL     1       0.711   9.371  19.501  0.00  0.00    +0.000 A 
ATOM     14  C   UNL     1       1.146   9.507  18.164  0.00  0.00    +0.000 A 
ATOM     15  C   UNL     1       2.100   8.655  17.627  0.00  0.00    +0.000 A 
ATOM     16  C   UNL     1       2.666   7.635  18.408  0.00  0.00    +0.000 A 
ATOM     17  C   UNL     1       2.251   7.491  19.739  0.00  0.00    +0.000 A 
ATOM     18  C   UNL     1       1.278   8.345  20.279  0.00  0.00    +0.000 A 
BRANCH  16  19
ATOM     19  O   UNL     1       3.596   6.781  17.907  0.00  0.00    +0.000 OA
ATOM     20  C   UNL     1       4.122   5.703  18.592  0.00  0.00    +0.000 C 
ENDBRANCH  16  19
ENDBRANCH  12  13
BRANCH   8  21
ATOM     21  C   UNL     1      -5.481  11.515  17.342  0.00  0.00    +0.000 C 
ATOM     22  F   UNL     1      -4.870  10.857  16.290  0.00  0.00    +0.000 F 
ATOM     23  F   UNL     1      -6.429  10.678  17.901  0.00  0.00    +0.000 F 
ATOM     24  F   UNL     1      -6.113  12.644  16.849  0.00  0.00    +0.000 F 
ENDBRANCH   8  21
BRANCH   1  25
ATOM     25  C   UNL     1       1.431  11.798  21.140  0.00  0.00    +0.000 C 
BRANCH  25  27
ATOM     26  C   UNL     1       2.335  13.094  19.247  0.00  0.00    +0.000 C 
ATOM     27  C   UNL     1       1.343  12.902  20.112  0.00  0.00    +0.000 C 
ENDBRANCH  25  27
ENDBRANCH   1  25
BRANCH   4  28
ATOM     28  C   UNL     1      -1.792  14.227  22.166  0.00  0.00    +0.000 C 
BRANCH  28  29
ATOM     29  C   UNL     1      -0.750  15.252  21.623  0.00  0.00    +0.000 C 
BRANCH  29  30
ATOM     30  N   UNL     1      -1.268  16.110  20.523  0.00  0.00    +0.000 NA
ATOM     31  C   UNL     1      -1.078  17.551  20.808  0.00  0.00    +0.000 C 
ATOM     32  C   UNL     1      -0.575  15.795  19.261  0.00  0.00    +0.000 C 
ENDBRANCH  29  30
ENDBRANCH  28  29
ENDBRANCH   4  28
TORSDOF 8
ENDMDL
MODEL 8
REMARK VINA RESULT:      -6.3      3.489      4.760
REMARK  Name = 
REMARK  11 active torsions:
REMARK  status: ('A' for Active; 'I' for Inactive)
REMARK    1  A    between atoms: C_2  and  C_3
REMARK    2  A    between atoms: C_3  and  C_4
REMARK    3  A    between atoms: N_7  and  C_8
REMARK    4  A    between atoms: C_8  and  C_9
REMARK    5  A    between atoms: C_9  and  N_10
REMARK    6  A    between atoms: N_10  and  C_11
REMARK    7  A    between atoms: N_10  and  C_12
REMARK    8  A    between atoms: C_16  and  C_17
REMARK    9  A    between atoms: C_24  and  C_25
REMARK   10  A    between atoms: C_28  and  O_29
REMARK   11  A    between atoms: O_29  and  C_30
REMARK                            x       y       z     vdW  Elec       q    Type
REMARK                         _______ _______ _______ _____ _____    ______ ____
ROOT
ATOM      1  C   UNL     1      -1.324  12.023  20.070  0.00  0.00    +0.000 C 
ATOM      2  C   UNL     1      -0.876  12.521  21.445  0.00  0.00    +0.000 C 
ATOM      3  O   UNL     1       0.298  12.289  21.698  0.00  0.00    +0.000 OA
ATOM      4  N   UNL     1      -1.540  13.435  22.245  0.00  0.00    +0.000 N 
ATOM      5  C   UNL     1      -2.951  13.324  22.557  0.00  0.00    +0.000 A 
ATOM      6  C   UNL     1      -3.352  13.456  23.916  0.00  0.00    +0.000 A 
ATOM      7  C   UNL     1      -4.674  13.288  24.320  0.00  0.00    +0.000 A 
ATOM      8  C   UNL     1      -5.661  12.981  23.388  0.00  0.00    +0.000 A 
ATOM      9  C   UNL     1      -5.303  12.857  22.052  0.00  0.00    +0.000 A 
ATOM     10  C   UNL     1      -3.970  13.018  21.622  0.00  0.00    +0.000 A 
ATOM     11  C   UNL     1      -3.740  12.869  20.160  0.00  0.00    +0.000 C 
ATOM     12  C   UNL     1      -2.822  11.694  19.830  0.00  0.00    +0.000 C 
ENDROOT
BRANCH  12  13
ATOM     13  C   UNL     1      -3.078  11.240  18.382  0.00  0.00    +0.000 A 
ATOM     14  C   UNL     1      -2.226  10.310  17.747  0.00  0.00    +0.000 A 
ATOM     15  C   UNL     1      -2.430   9.929  16.429  0.00  0.00    +0.000 A 
ATOM     16  C   UNL     1      -3.502  10.455  15.692  0.00  0.00    +0.000 A 
ATOM     17  C   UNL     1      -4.362  11.374  16.309  0.00  0.00    +0.000 A 
ATOM     18  C   UNL     1      -4.149  11.769  17.638  0.00  0.00    +0.000 A 
BRANCH  16  19
ATOM     19  O   UNL     1      -3.723  10.106  14.398  0.00  0.00    +0.000 OA
ATOM     20  C   UNL     1      -2.742   9.696  13.516  0.00  0.00    +0.000 C 
ENDBRANCH  16  19
ENDBRANCH  12  13
BRANCH   8  21
ATOM     21  C   UNL     1      -7.100  12.765  23.777  0.00  0.00    +0.000 C 
ATOM     22  F   UNL     1      -7.476  13.584  24.826  0.00  0.00    +0.000 F 
ATOM     23  F   UNL     1      -7.914  13.028  22.691  0.00  0.00    +0.000 F 
ATOM     24  F   UNL     1      -7.274  11.447  24.162  0.00  0.00    +0.000 F 
ENDBRANCH   8  21
BRANCH   1  25
ATOM     25  C   UNL     1      -0.784  13.078  19.055  0.00  0.00    +0.000 C 
BRANCH  25  27
ATOM     26  C   UNL     1       1.599  13.443  18.534  0.00  0.00    +0.000 C 
ATOM     27  C   UNL     1       0.509  12.696  18.373  0.00  0.00    +0.000 C 
ENDBRANCH  25  27
ENDBRANCH   1  25
BRANCH   4  28
ATOM     28  C   UNL     1      -0.692  14.375  23.010  0.00  0.00    +0.000 C 
BRANCH  28  29
ATOM     29  C   UNL     1      -0.720  15.788  22.352  0.00  0.00    +0.000 C 
BRANCH  29  30
ATOM     30  N   UNL     1      -1.289  16.849  23.228  0.00  0.00    +0.000 NA
ATOM     31  C   UNL     1      -2.722  17.090  22.945  0.00  0.00    +0.000 C 
ATOM     32  C   UNL     1      -1.157  16.464  24.645  0.00  0.00    +0.000 C 
ENDBRANCH  29  30
ENDBRANCH  28  29
ENDBRANCH   4  28
TORSDOF 8
ENDMDL
MODEL 9
REMARK VINA RESULT:      -6.2      0.630      1.318
REMARK  Name = 
REMARK  11 active torsions:
REMARK  status: ('A' for Active; 'I' for Inactive)
REMARK    1  A    between atoms: C_2  and  C_3
REMARK    2  A    between atoms: C_3  and  C_4
REMARK    3  A    between atoms: N_7  and  C_8
REMARK    4  A    between atoms: C_8  and  C_9
REMARK    5  A    between atoms: C_9  and  N_10
REMARK    6  A    between atoms: N_10  and  C_11
REMARK    7  A    between atoms: N_10  and  C_12
REMARK    8  A    between atoms: C_16  and  C_17
REMARK    9  A    between atoms: C_24  and  C_25
REMARK   10  A    between atoms: C_28  and  O_29
REMARK   11  A    between atoms: O_29  and  C_30
REMARK                            x       y       z     vdW  Elec       q    Type
REMARK                         _______ _______ _______ _____ _____    ______ ____
ROOT
ATOM      1  C   UNL     1       0.150  11.723  21.292  0.00  0.00    +0.000 C 
ATOM      2  C   UNL     1      -0.685  12.818  21.959  0.00  0.00    +0.000 C 
ATOM      3  O   UNL     1      -0.270  13.156  23.060  0.00  0.00    +0.000 OA
ATOM      4  N   UNL     1      -1.613  13.637  21.339  0.00  0.00    +0.000 N 
ATOM      5  C   UNL     1      -2.662  13.124  20.482  0.00  0.00    +0.000 A 
ATOM      6  C   UNL     1      -3.992  13.581  20.699  0.00  0.00    +0.000 A 
ATOM      7  C   UNL     1      -5.075  13.087  19.976  0.00  0.00    +0.000 A 
ATOM      8  C   UNL     1      -4.884  12.112  19.000  0.00  0.00    +0.000 A 
ATOM      9  C   UNL     1      -3.595  11.654  18.757  0.00  0.00    +0.000 A 
ATOM     10  C   UNL     1      -2.486  12.137  19.480  0.00  0.00    +0.000 A 
ATOM     11  C   UNL     1      -1.167  11.565  19.101  0.00  0.00    +0.000 C 
ATOM     12  C   UNL     1      -0.515  10.790  20.246  0.00  0.00    +0.000 C 
ENDROOT
BRANCH  12  13
ATOM     13  C   UNL     1       0.490   9.779  19.666  0.00  0.00    +0.000 A 
ATOM     14  C   UNL     1       0.843   9.802  18.299  0.00  0.00    +0.000 A 
ATOM     15  C   UNL     1       1.718   8.869  17.765  0.00  0.00    +0.000 A 
ATOM     16  C   UNL     1       2.286   7.876  18.578  0.00  0.00    +0.000 A 
ATOM     17  C   UNL     1       1.952   7.842  19.939  0.00  0.00    +0.000 A 
ATOM     18  C   UNL     1       1.058   8.779  20.477  0.00  0.00    +0.000 A 
BRANCH  16  19
ATOM     19  O   UNL     1       3.140   6.944  18.081  0.00  0.00    +0.000 OA
ATOM     20  C   UNL     1       2.999   5.580  18.248  0.00  0.00    +0.000 C 
ENDBRANCH  16  19
ENDBRANCH  12  13
BRANCH   8  21
ATOM     21  C   UNL     1      -6.023  11.527  18.209  0.00  0.00    +0.000 C 
ATOM     22  F   UNL     1      -5.884  11.769  16.855  0.00  0.00    +0.000 F 
ATOM     23  F   UNL     1      -6.073  10.161  18.416  0.00  0.00    +0.000 F 
ATOM     24  F   UNL     1      -7.213  12.091  18.639  0.00  0.00    +0.000 F 
ENDBRANCH   8  21
BRANCH   1  25
ATOM     25  C   UNL     1       1.403  12.455  20.716  0.00  0.00    +0.000 C 
BRANCH  25  27
ATOM     26  C   UNL     1       1.963  13.387  18.502  0.00  0.00    +0.000 C 
ATOM     27  C   UNL     1       1.122  13.352  19.533  0.00  0.00    +0.000 C 
ENDBRANCH  25  27
ENDBRANCH   1  25
BRANCH   4  28
ATOM     28  C   UNL     1      -1.673  15.037  21.815  0.00  0.00    +0.000 C 
BRANCH  28  29
ATOM     29  C   UNL     1      -1.100  16.002  20.733  0.00  0.00    +0.000 C 
BRANCH  29  30
ATOM     30  N   UNL     1      -1.840  17.289  20.624  0.00  0.00    +0.000 NA
ATOM     31  C   UNL     1      -2.088  17.667  19.213  0.00  0.00    +0.000 C 
ATOM     32  C   UNL     1      -3.141  17.190  21.310  0.00  0.00    +0.000 C 
ENDBRANCH  29  30
ENDBRANCH  28  29
ENDBRANCH   4  28
TORSDOF 8
ENDMDL
