MODEL 1
REMARK VINA RESULT:      -9.2      0.000      0.000
REMARK  Name = 
REMARK  5 active torsions:
REMARK  status: ('A' for Active; 'I' for Inactive)
REMARK    1  A    between atoms: C_1  and  C_2
REMARK    2  A    between atoms: N_4  and  C_5
REMARK    3  A    between atoms: C_9  and  N_10
REMARK    4  A    between atoms: C_16  and  C_17
REMARK    5  A    between atoms: C_21  and  N_22
REMARK                            x       y       z     vdW  Elec       q    Type
REMARK                         _______ _______ _______ _____ _____    ______ ____
ROOT
ATOM      1  N   UNL     1       4.081   4.711  19.033  0.00  0.00    +0.000 N 
ATOM      2  C   UNL     1       3.138   5.670  19.406  0.00  0.00    +0.000 A 
ATOM      3  N   UNL     1       2.414   5.290  20.473  0.00  0.00    +0.000 NA
ATOM      4  C   UNL     1       1.538   6.181  20.976  0.00  0.00    +0.000 A 
ATOM      5  C   UNL     1       1.340   7.442  20.453  0.00  0.00    +0.000 A 
ATOM      6  C   UNL     1       0.465   8.393  21.040  0.00  0.00    +0.000 A 
ATOM      7  C   UNL     1       0.289   9.669  20.488  0.00  0.00    +0.000 A 
ATOM      8  C   UNL     1       0.974   9.916  19.287  0.00  0.00    +0.000 A 
ATOM      9  C   UNL     1       1.847   8.962  18.719  0.00  0.00    +0.000 A 
ATOM     10  C   UNL     1       2.078   7.721  19.305  0.00  0.00    +0.000 A 
ATOM     11  N   UNL     1       2.979   6.851  18.788  0.00  0.00    +0.000 NA
ATOM     12  H   UNL     1       3.964   3.926  19.660  0.00  0.00    +0.000 HD
ENDROOT
BRANCH   1  17
ATOM     13  C   UNL     1       6.292   4.088  16.060  0.00  0.00    +0.000 A 
ATOM     14  C   UNL     1       7.508   4.529  16.585  0.00  0.00    +0.000 A 
ATOM     15  C   UNL     1       7.579   5.017  17.884  0.00  0.00    +0.000 A 
ATOM     16  C   UNL     1       6.426   5.061  18.668  0.00  0.00    +0.000 A 
ATOM     17  C   UNL     1       5.181   4.638  18.173  0.00  0.00    +0.000 A 
ATOM     18  C   UNL     1       5.129   4.168  16.853  0.00  0.00    +0.000 A 
BRANCH  13  22
ATOM     19  C   UNL     1       6.252   3.444  12.341  0.00  0.00    +0.000 C 
ATOM     20  C   UNL     1       6.644   4.187  13.590  0.00  0.00    +0.000 C 
ATOM     21  O   UNL     1       7.309   5.215  13.515  0.00  0.00    +0.000 OA
ATOM     22  N   UNL     1       6.178   3.579  14.745  0.00  0.00    +0.000 N 
ATOM     23  H   UNL     1       5.799   2.644  14.661  0.00  0.00    +0.000 HD
ENDBRANCH  13  22
ENDBRANCH   1  17
BRANCH   7  24
ATOM     24  C   UNL     1      -0.534  10.710  21.162  0.00  0.00    +0.000 A 
ATOM     25  C   UNL     1      -0.752  10.702  22.550  0.00  0.00    +0.000 A 
ATOM     26  C   UNL     1      -1.554  11.672  23.166  0.00  0.00    +0.000 A 
ATOM     27  C   UNL     1      -2.165  12.664  22.405  0.00  0.00    +0.000 A 
ATOM     28  C   UNL     1      -2.013  12.683  21.022  0.00  0.00    +0.000 A 
ATOM     29  C   UNL     1      -1.160  11.741  20.425  0.00  0.00    +0.000 A 
BRANCH  28  30
ATOM     30  N   UNL     1      -2.522  13.754  20.276  0.00  0.00    +0.000 N 
ATOM     31  H   UNL     1      -1.942  14.019  19.486  0.00  0.00    +0.000 HD
ATOM     32  H   UNL     1      -2.796  14.556  20.834  0.00  0.00    +0.000 HD
ENDBRANCH  28  30
ENDBRANCH   7  24
TORSDOF 4
ENDMDL
MODEL 2
REMARK VINA RESULT:      -9.0      2.601      4.137
REMARK  Name = 
REMARK  5 active torsions:
REMARK  status: ('A' for Active; 'I' for Inactive)
REMARK    1  A    between atoms: C_1  and  C_2
REMARK    2  A    between atoms: N_4  and  C_5
REMARK    3  A    between atoms: C_9  and  N_10
REMARK    4  A    between atoms: C_16  and  C_17
REMARK    5  A    between atoms: C_21  and  N_22
REMARK                            x       y       z     vdW  Elec       q    Type
REMARK                         _______ _______ _______ _____ _____    ______ ____
ROOT
ATOM      1  N   UNL     1       2.220   8.257  17.933  0.00  0.00    +0.000 N 
ATOM      2  C   UNL     1       1.585   9.110  18.837  0.00  0.00    +0.000 A 
ATOM      3  N   UNL     1       1.235  10.282  18.277  0.00  0.00    +0.000 NA
ATOM      4  C   UNL     1       0.530  11.144  19.034  0.00  0.00    +0.000 A 
ATOM      5  C   UNL     1       0.163  10.895  20.341  0.00  0.00    +0.000 A 
ATOM      6  C   UNL     1      -0.640  11.786  21.099  0.00  0.00    +0.000 A 
ATOM      7  C   UNL     1      -1.001  11.502  22.423  0.00  0.00    +0.000 A 
ATOM      8  C   UNL     1      -0.460  10.327  22.968  0.00  0.00    +0.000 A 
ATOM      9  C   UNL     1       0.333   9.448  22.197  0.00  0.00    +0.000 A 
ATOM     10  C   UNL     1       0.633   9.692  20.861  0.00  0.00    +0.000 A 
ATOM     11  N   UNL     1       1.327   8.798  20.116  0.00  0.00    +0.000 NA
ATOM     12  H   UNL     1       2.291   8.758  17.057  0.00  0.00    +0.000 HD
ENDROOT
BRANCH   1  17
ATOM     13  C   UNL     1       4.230   5.098  17.624  0.00  0.00    +0.000 A 
ATOM     14  C   UNL     1       3.211   4.162  17.813  0.00  0.00    +0.000 A 
ATOM     15  C   UNL     1       1.905   4.577  18.038  0.00  0.00    +0.000 A 
ATOM     16  C   UNL     1       1.611   5.940  18.069  0.00  0.00    +0.000 A 
ATOM     17  C   UNL     1       2.609   6.915  17.895  0.00  0.00    +0.000 A 
ATOM     18  C   UNL     1       3.924   6.472  17.690  0.00  0.00    +0.000 A 
BRANCH  13  22
ATOM     19  C   UNL     1       7.942   4.418  17.693  0.00  0.00    +0.000 C 
ATOM     20  C   UNL     1       6.613   4.782  18.299  0.00  0.00    +0.000 C 
ATOM     21  O   UNL     1       6.538   5.091  19.484  0.00  0.00    +0.000 OA
ATOM     22  N   UNL     1       5.571   4.716  17.387  0.00  0.00    +0.000 N 
ATOM     23  H   UNL     1       5.758   4.274  16.496  0.00  0.00    +0.000 HD
ENDBRANCH  13  22
ENDBRANCH   1  17
BRANCH   7  24
ATOM     24  C   UNL     1      -1.939  12.372  23.185  0.00  0.00    +0.000 A 
ATOM     25  C   UNL     1      -1.651  13.721  23.454  0.00  0.00    +0.000 A 
ATOM     26  C   UNL     1      -2.530  14.519  24.198  0.00  0.00    +0.000 A 
ATOM     27  C   UNL     1      -3.713  13.982  24.698  0.00  0.00    +0.000 A 
ATOM     28  C   UNL     1      -4.017  12.639  24.494  0.00  0.00    +0.000 A 
ATOM     29  C   UNL     1      -3.155  11.867  23.698  0.00  0.00    +0.000 A 
BRANCH  28  30
ATOM     30  N   UNL     1      -5.264  12.136  24.887  0.00  0.00    +0.000 N 
ATOM     31  H   UNL     1      -5.849  11.834  24.114  0.00  0.00    +0.000 HD
ATOM     32  H   UNL     1      -5.767  12.732  25.535  0.00  0.00    +0.000 HD
ENDBRANCH  28  30
ENDBRANCH   7  24
TORSDOF 4
ENDMDL
MODEL 3
REMARK VINA RESULT:      -8.9      1.508      1.906
REMARK  Name = 
REMARK  5 active torsions:
REMARK  status: ('A' for Active; 'I' for Inactive)
REMARK    1  A    between atoms: C_1  and  C_2
REMARK    2  A    between atoms: N_4  and  C_5
REMARK    3  A    between atoms: C_9  and  N_10
REMARK    4  A    between atoms: C_16  and  C_17
REMARK    5  A    between atoms: C_21  and  N_22
REMARK                            x       y       z     vdW  Elec       q    Type
REMARK                         _______ _______ _______ _____ _____    ______ ____
ROOT
ATOM      1  N   UNL     1       4.752   4.529  17.345  0.00  0.00    +0.000 N 
ATOM      2  C   UNL     1       3.865   5.352  18.040  0.00  0.00    +0.000 A 
ATOM      3  N   UNL     1       3.489   4.822  19.217  0.00  0.00    +0.000 NA
ATOM      4  C   UNL     1       2.707   5.575  20.014  0.00  0.00    +0.000 A 
ATOM      5  C   UNL     1       2.268   6.841  19.684  0.00  0.00    +0.000 A 
ATOM      6  C   UNL     1       1.504   7.647  20.567  0.00  0.00    +0.000 A 
ATOM      7  C   UNL     1       1.076   8.932  20.204  0.00  0.00    +0.000 A 
ATOM      8  C   UNL     1       1.390   9.335  18.896  0.00  0.00    +0.000 A 
ATOM      9  C   UNL     1       2.157   8.523  18.032  0.00  0.00    +0.000 A 
ATOM     10  C   UNL     1       2.643   7.277  18.416  0.00  0.00    +0.000 A 
ATOM     11  N   UNL     1       3.444   6.549  17.601  0.00  0.00    +0.000 NA
ATOM     12  H   UNL     1       4.876   3.694  17.902  0.00  0.00    +0.000 HD
ENDROOT
BRANCH   1  17
ATOM     13  C   UNL     1       6.467   3.904  14.061  0.00  0.00    +0.000 A 
ATOM     14  C   UNL     1       7.354   4.983  14.059  0.00  0.00    +0.000 A 
ATOM     15  C   UNL     1       7.370   5.884  15.117  0.00  0.00    +0.000 A 
ATOM     16  C   UNL     1       6.497   5.702  16.190  0.00  0.00    +0.000 A 
ATOM     17  C   UNL     1       5.582   4.636  16.225  0.00  0.00    +0.000 A 
ATOM     18  C   UNL     1       5.570   3.751  15.137  0.00  0.00    +0.000 A 
BRANCH  13  22
ATOM     19  C   UNL     1       5.623   1.680  11.131  0.00  0.00    +0.000 C 
ATOM     20  C   UNL     1       5.441   2.870  12.034  0.00  0.00    +0.000 C 
ATOM     21  O   UNL     1       4.498   3.636  11.863  0.00  0.00    +0.000 OA
ATOM     22  N   UNL     1       6.423   2.962  13.007  0.00  0.00    +0.000 N 
ATOM     23  H   UNL     1       7.233   2.362  12.911  0.00  0.00    +0.000 HD
ENDBRANCH  13  22
ENDBRANCH   1  17
BRANCH   7  24
ATOM     24  C   UNL     1       0.377   9.828  21.166  0.00  0.00    +0.000 A 
ATOM     25  C   UNL     1      -0.204   9.340  22.348  0.00  0.00    +0.000 A 
ATOM     26  C   UNL     1      -0.885  10.191  23.229  0.00  0.00    +0.000 A 
ATOM     27  C   UNL     1      -1.008  11.547  22.941  0.00  0.00    +0.000 A 
ATOM     28  C   UNL     1      -0.486  12.065  21.759  0.00  0.00    +0.000 A 
ATOM     29  C   UNL     1       0.243  11.212  20.915  0.00  0.00    +0.000 A 
BRANCH  28  30
ATOM     30  N   UNL     1      -0.499  13.448  21.534  0.00  0.00    +0.000 N 
ATOM     31  H   UNL     1       0.193  13.763  20.861  0.00  0.00    +0.000 HD
ATOM     32  H   UNL     1      -0.490  14.006  22.380  0.00  0.00    +0.000 HD
ENDBRANCH  28  30
ENDBRANCH   7  24
TORSDOF 4
ENDMDL
MODEL 4
REMARK VINA RESULT:      -8.9      3.146      4.884
REMARK  Name = 
REMARK  5 active torsions:
REMARK  status: ('A' for Active; 'I' for Inactive)
REMARK    1  A    between atoms: C_1  and  C_2
REMARK    2  A    between atoms: N_4  and  C_5
REMARK    3  A    between atoms: C_9  and  N_10
REMARK    4  A    between atoms: C_16  and  C_17
REMARK    5  A    between atoms: C_21  and  N_22
REMARK                            x       y       z     vdW  Elec       q    Type
REMARK                         _______ _______ _______ _____ _____    ______ ____
ROOT
ATOM      1  N   UNL     1       2.379   8.127  18.050  0.00  0.00    +0.000 N 
ATOM      2  C   UNL     1       1.668   9.025  18.846  0.00  0.00    +0.000 A 
ATOM      3  N   UNL     1       1.191  10.068  18.143  0.00  0.00    +0.000 NA
ATOM      4  C   UNL     1       0.409  10.948  18.795  0.00  0.00    +0.000 A 
ATOM      5  C   UNL     1       0.084  10.843  20.132  0.00  0.00    +0.000 A 
ATOM      6  C   UNL     1      -0.801  11.742  20.784  0.00  0.00    +0.000 A 
ATOM      7  C   UNL     1      -1.115  11.606  22.143  0.00  0.00    +0.000 A 
ATOM      8  C   UNL     1      -0.448  10.577  22.826  0.00  0.00    +0.000 A 
ATOM      9  C   UNL     1       0.424   9.687  22.161  0.00  0.00    +0.000 A 
ATOM     10  C   UNL     1       0.682   9.776  20.797  0.00  0.00    +0.000 A 
ATOM     11  N   UNL     1       1.459   8.865  20.162  0.00  0.00    +0.000 NA
ATOM     12  H   UNL     1       2.388   8.508  17.113  0.00  0.00    +0.000 HD
ENDROOT
BRANCH   1  17
ATOM     13  C   UNL     1       3.165   4.667  19.285  0.00  0.00    +0.000 A 
ATOM     14  C   UNL     1       4.094   4.285  18.315  0.00  0.00    +0.000 A 
ATOM     15  C   UNL     1       4.438   5.155  17.288  0.00  0.00    +0.000 A 
ATOM     16  C   UNL     1       3.854   6.420  17.231  0.00  0.00    +0.000 A 
ATOM     17  C   UNL     1       2.906   6.838  18.182  0.00  0.00    +0.000 A 
ATOM     18  C   UNL     1       2.559   5.936  19.198  0.00  0.00    +0.000 A 
BRANCH  13  22
ATOM     19  C   UNL     1       1.452   2.433  21.800  0.00  0.00    +0.000 C 
ATOM     20  C   UNL     1       1.575   3.168  20.491  0.00  0.00    +0.000 C 
ATOM     21  O   UNL     1       0.651   3.149  19.683  0.00  0.00    +0.000 OA
ATOM     22  N   UNL     1       2.792   3.813  20.350  0.00  0.00    +0.000 N 
ATOM     23  H   UNL     1       3.519   3.590  21.018  0.00  0.00    +0.000 HD
ENDBRANCH  13  22
ENDBRANCH   1  17
BRANCH   7  24
ATOM     24  C   UNL     1      -2.131  12.470  22.804  0.00  0.00    +0.000 A 
ATOM     25  C   UNL     1      -2.096  13.871  22.701  0.00  0.00    +0.000 A 
ATOM     26  C   UNL     1      -3.041  14.673  23.354  0.00  0.00    +0.000 A 
ATOM     27  C   UNL     1      -4.037  14.091  24.133  0.00  0.00    +0.000 A 
ATOM     28  C   UNL     1      -4.083  12.710  24.298  0.00  0.00    +0.000 A 
ATOM     29  C   UNL     1      -3.165  11.916  23.592  0.00  0.00    +0.000 A 
BRANCH  28  30
ATOM     30  N   UNL     1      -5.159  12.121  24.975  0.00  0.00    +0.000 N 
ATOM     31  H   UNL     1      -4.906  11.699  25.864  0.00  0.00    +0.000 HD
ATOM     32  H   UNL     1      -5.719  11.498  24.404  0.00  0.00    +0.000 HD
ENDBRANCH  28  30
ENDBRANCH   7  24
TORSDOF 4
ENDMDL
MODEL 5
REMARK VINA RESULT:      -8.8      1.138      1.197
REMARK  Name = 
REMARK  5 active torsions:
REMARK  status: ('A' for Active; 'I' for Inactive)
REMARK    1  A    between atoms: C_1  and  C_2
REMARK    2  A    between atoms: N_4  and  C_5
REMARK    3  A    between atoms: C_9  and  N_10
REMARK    4  A    between atoms: C_16  and  C_17
REMARK    5  A    between atoms: C_21  and  N_22
REMARK                            x       y       z     vdW  Elec       q    Type
REMARK                         _______ _______ _______ _____ _____    ______ ____
ROOT
ATOM      1  N   UNL     1       3.920   5.323  19.239  0.00  0.00    +0.000 N 
ATOM      2  C   UNL     1       3.003   6.363  19.393  0.00  0.00    +0.000 A 
ATOM      3  N   UNL     1       2.231   6.209  20.484  0.00  0.00    +0.000 NA
ATOM      4  C   UNL     1       1.375   7.205  20.781  0.00  0.00    +0.000 A 
ATOM      5  C   UNL     1       1.242   8.354  20.029  0.00  0.00    +0.000 A 
ATOM      6  C   UNL     1       0.385   9.423  20.398  0.00  0.00    +0.000 A 
ATOM      7  C   UNL     1       0.276  10.581  19.616  0.00  0.00    +0.000 A 
ATOM      8  C   UNL     1       1.007  10.581  18.417  0.00  0.00    +0.000 A 
ATOM      9  C   UNL     1       1.861   9.511  18.067  0.00  0.00    +0.000 A 
ATOM     10  C   UNL     1       2.026   8.393  18.878  0.00  0.00    +0.000 A 
ATOM     11  N   UNL     1       2.909   7.415  18.564  0.00  0.00    +0.000 NA
ATOM     12  H   UNL     1       3.754   4.670  19.994  0.00  0.00    +0.000 HD
ENDROOT
BRANCH   1  17
ATOM     13  C   UNL     1       6.176   4.274  16.423  0.00  0.00    +0.000 A 
ATOM     14  C   UNL     1       7.413   4.550  17.009  0.00  0.00    +0.000 A 
ATOM     15  C   UNL     1       7.483   5.069  18.296  0.00  0.00    +0.000 A 
ATOM     16  C   UNL     1       6.308   5.311  19.007  0.00  0.00    +0.000 A 
ATOM     17  C   UNL     1       5.043   5.058  18.449  0.00  0.00    +0.000 A 
ATOM     18  C   UNL     1       4.996   4.553  17.142  0.00  0.00    +0.000 A 
BRANCH  13  22
ATOM     19  C   UNL     1       6.153   3.552  12.719  0.00  0.00    +0.000 C 
ATOM     20  C   UNL     1       6.552   4.312  13.956  0.00  0.00    +0.000 C 
ATOM     21  O   UNL     1       7.243   5.321  13.864  0.00  0.00    +0.000 OA
ATOM     22  N   UNL     1       6.061   3.740  15.119  0.00  0.00    +0.000 N 
ATOM     23  H   UNL     1       5.661   2.813  15.050  0.00  0.00    +0.000 HD
ENDBRANCH  13  22
ENDBRANCH   1  17
BRANCH   7  24
ATOM     24  C   UNL     1      -0.528  11.754  20.056  0.00  0.00    +0.000 A 
ATOM     25  C   UNL     1       0.024  12.784  20.835  0.00  0.00    +0.000 A 
ATOM     26  C   UNL     1      -0.753  13.867  21.267  0.00  0.00    +0.000 A 
ATOM     27  C   UNL     1      -2.104  13.937  20.937  0.00  0.00    +0.000 A 
ATOM     28  C   UNL     1      -2.702  12.916  20.205  0.00  0.00    +0.000 A 
ATOM     29  C   UNL     1      -1.899  11.867  19.730  0.00  0.00    +0.000 A 
BRANCH  28  30
ATOM     30  N   UNL     1      -4.026  13.052  19.767  0.00  0.00    +0.000 N 
ATOM     31  H   UNL     1      -4.718  12.725  20.435  0.00  0.00    +0.000 HD
ATOM     32  H   UNL     1      -4.195  12.689  18.835  0.00  0.00    +0.000 HD
ENDBRANCH  28  30
ENDBRANCH   7  24
TORSDOF 4
ENDMDL
MODEL 6
REMARK VINA RESULT:      -8.8      0.994      1.323
REMARK  Name = 
REMARK  5 active torsions:
REMARK  status: ('A' for Active; 'I' for Inactive)
REMARK    1  A    between atoms: C_1  and  C_2
REMARK    2  A    between atoms: N_4  and  C_5
REMARK    3  A    between atoms: C_9  and  N_10
REMARK    4  A    between atoms: C_16  and  C_17
REMARK    5  A    between atoms: C_21  and  N_22
REMARK                            x       y       z     vdW  Elec       q    Type
REMARK                         _______ _______ _______ _____ _____    ______ ____
ROOT
ATOM      1  N   UNL     1       3.975   5.183  19.316  0.00  0.00    +0.000 N 
ATOM      2  C   UNL     1       3.018   6.178  19.518  0.00  0.00    +0.000 A 
ATOM      3  N   UNL     1       2.276   5.960  20.619  0.00  0.00    +0.000 NA
ATOM      4  C   UNL     1       1.383   6.908  20.961  0.00  0.00    +0.000 A 
ATOM      5  C   UNL     1       1.185   8.071  20.245  0.00  0.00    +0.000 A 
ATOM      6  C   UNL     1       0.291   9.091  20.661  0.00  0.00    +0.000 A 
ATOM      7  C   UNL     1       0.115  10.264  19.914  0.00  0.00    +0.000 A 
ATOM      8  C   UNL     1       0.821  10.329  18.702  0.00  0.00    +0.000 A 
ATOM      9  C   UNL     1       1.712   9.308  18.305  0.00  0.00    +0.000 A 
ATOM     10  C   UNL     1       1.942   8.176  19.081  0.00  0.00    +0.000 A 
ATOM     11  N   UNL     1       2.861   7.247  18.722  0.00  0.00    +0.000 NA
ATOM     12  H   UNL     1       3.853   4.504  20.056  0.00  0.00    +0.000 HD
ENDROOT
BRANCH   1  17
ATOM     13  C   UNL     1       6.220   4.280  16.441  0.00  0.00    +0.000 A 
ATOM     14  C   UNL     1       7.452   4.633  16.996  0.00  0.00    +0.000 A 
ATOM     15  C   UNL     1       7.522   5.155  18.282  0.00  0.00    +0.000 A 
ATOM     16  C   UNL     1       6.353   5.322  19.023  0.00  0.00    +0.000 A 
ATOM     17  C   UNL     1       5.092   4.990  18.497  0.00  0.00    +0.000 A 
ATOM     18  C   UNL     1       5.043   4.483  17.191  0.00  0.00    +0.000 A 
BRANCH  13  22
ATOM     19  C   UNL     1       6.177   3.549  12.739  0.00  0.00    +0.000 C 
ATOM     20  C   UNL     1       6.569   4.321  13.970  0.00  0.00    +0.000 C 
ATOM     21  O   UNL     1       7.234   5.348  13.870  0.00  0.00    +0.000 OA
ATOM     22  N   UNL     1       6.105   3.740  15.139  0.00  0.00    +0.000 N 
ATOM     23  H   UNL     1       5.728   2.803  15.077  0.00  0.00    +0.000 HD
ENDBRANCH  13  22
ENDBRANCH   1  17
BRANCH   7  24
ATOM     24  C   UNL     1      -0.730  11.388  20.403  0.00  0.00    +0.000 A 
ATOM     25  C   UNL     1      -1.777  11.920  19.633  0.00  0.00    +0.000 A 
ATOM     26  C   UNL     1      -2.545  12.998  20.095  0.00  0.00    +0.000 A 
ATOM     27  C   UNL     1      -2.274  13.573  21.333  0.00  0.00    +0.000 A 
ATOM     28  C   UNL     1      -1.218  13.106  22.109  0.00  0.00    +0.000 A 
ATOM     29  C   UNL     1      -0.495  11.989  21.660  0.00  0.00    +0.000 A 
BRANCH  28  30
ATOM     30  N   UNL     1      -1.029  13.601  23.406  0.00  0.00    +0.000 N 
ATOM     31  H   UNL     1      -1.252  14.586  23.508  0.00  0.00    +0.000 HD
ATOM     32  H   UNL     1      -0.129  13.369  23.813  0.00  0.00    +0.000 HD
ENDBRANCH  28  30
ENDBRANCH   7  24
TORSDOF 4
ENDMDL
MODEL 7
REMARK VINA RESULT:      -8.7      4.245     11.140
REMARK  Name = 
REMARK  5 active torsions:
REMARK  status: ('A' for Active; 'I' for Inactive)
REMARK    1  A    between atoms: C_1  and  C_2
REMARK    2  A    between atoms: N_4  and  C_5
REMARK    3  A    between atoms: C_9  and  N_10
REMARK    4  A    between atoms: C_16  and  C_17
REMARK    5  A    between atoms: C_21  and  N_22
REMARK                            x       y       z     vdW  Elec       q    Type
REMARK                         _______ _______ _______ _____ _____    ______ ____
ROOT
ATOM      1  N   UNL     1      -1.061  11.400  22.591  0.00  0.00    +0.000 N 
ATOM      2  C   UNL     1      -0.212  10.551  21.882  0.00  0.00    +0.000 A 
ATOM      3  N   UNL     1       0.401   9.657  22.677  0.00  0.00    +0.000 NA
ATOM      4  C   UNL     1       1.173   8.727  22.083  0.00  0.00    +0.000 A 
ATOM      5  C   UNL     1       1.373   8.652  20.720  0.00  0.00    +0.000 A 
ATOM      6  C   UNL     1       2.132   7.621  20.107  0.00  0.00    +0.000 A 
ATOM      7  C   UNL     1       2.313   7.569  18.718  0.00  0.00    +0.000 A 
ATOM      8  C   UNL     1       1.761   8.634  17.988  0.00  0.00    +0.000 A 
ATOM      9  C   UNL     1       1.003   9.649  18.613  0.00  0.00    +0.000 A 
ATOM     10  C   UNL     1       0.761   9.663  19.983  0.00  0.00    +0.000 A 
ATOM     11  N   UNL     1      -0.035  10.600  20.552  0.00  0.00    +0.000 NA
ATOM     12  H   UNL     1      -0.983  11.146  23.567  0.00  0.00    +0.000 HD
ENDROOT
BRANCH   1  17
ATOM     13  C   UNL     1      -4.172  13.506  22.673  0.00  0.00    +0.000 A 
ATOM     14  C   UNL     1      -3.963  14.265  21.520  0.00  0.00    +0.000 A 
ATOM     15  C   UNL     1      -2.822  14.077  20.750  0.00  0.00    +0.000 A 
ATOM     16  C   UNL     1      -1.883  13.118  21.132  0.00  0.00    +0.000 A 
ATOM     17  C   UNL     1      -2.051  12.342  22.291  0.00  0.00    +0.000 A 
ATOM     18  C   UNL     1      -3.200  12.563  23.064  0.00  0.00    +0.000 A 
BRANCH  13  22
ATOM     19  C   UNL     1      -7.594  13.494  24.266  0.00  0.00    +0.000 C 
ATOM     20  C   UNL     1      -6.534  13.011  23.313  0.00  0.00    +0.000 C 
ATOM     21  O   UNL     1      -6.789  12.126  22.502  0.00  0.00    +0.000 OA
ATOM     22  N   UNL     1      -5.323  13.663  23.481  0.00  0.00    +0.000 N 
ATOM     23  H   UNL     1      -5.213  14.239  24.306  0.00  0.00    +0.000 HD
ENDBRANCH  13  22
ENDBRANCH   1  17
BRANCH   7  24
ATOM     24  C   UNL     1       3.006   6.429  18.058  0.00  0.00    +0.000 A 
ATOM     25  C   UNL     1       4.222   6.593  17.374  0.00  0.00    +0.000 A 
ATOM     26  C   UNL     1       4.848   5.516  16.732  0.00  0.00    +0.000 A 
ATOM     27  C   UNL     1       4.265   4.252  16.753  0.00  0.00    +0.000 A 
ATOM     28  C   UNL     1       3.039   4.054  17.381  0.00  0.00    +0.000 A 
ATOM     29  C   UNL     1       2.453   5.129  18.069  0.00  0.00    +0.000 A 
BRANCH  28  30
ATOM     30  N   UNL     1       2.520   2.759  17.510  0.00  0.00    +0.000 N 
ATOM     31  H   UNL     1       3.153   2.028  17.200  0.00  0.00    +0.000 HD
ATOM     32  H   UNL     1       1.588   2.645  17.126  0.00  0.00    +0.000 HD
ENDBRANCH  28  30
ENDBRANCH   7  24
TORSDOF 4
ENDMDL
MODEL 8
REMARK VINA RESULT:      -8.6      2.067      3.644
REMARK  Name = 
REMARK  5 active torsions:
REMARK  status: ('A' for Active; 'I' for Inactive)
REMARK    1  A    between atoms: C_1  and  C_2
REMARK    2  A    between atoms: N_4  and  C_5
REMARK    3  A    between atoms: C_9  and  N_10
REMARK    4  A    between atoms: C_16  and  C_17
REMARK    5  A    between atoms: C_21  and  N_22
REMARK                            x       y       z     vdW  Elec       q    Type
REMARK                         _______ _______ _______ _____ _____    ______ ____
ROOT
ATOM      1  N   UNL     1       2.413   8.020  18.173  0.00  0.00    +0.000 N 
ATOM      2  C   UNL     1       1.771   8.907  19.036  0.00  0.00    +0.000 A 
ATOM      3  N   UNL     1       1.502  10.088  18.451  0.00  0.00    +0.000 NA
ATOM      4  C   UNL     1       0.798  10.987  19.165  0.00  0.00    +0.000 A 
ATOM      5  C   UNL     1       0.354  10.766  20.453  0.00  0.00    +0.000 A 
ATOM      6  C   UNL     1      -0.448  11.698  21.163  0.00  0.00    +0.000 A 
ATOM      7  C   UNL     1      -0.888  11.442  22.469  0.00  0.00    +0.000 A 
ATOM      8  C   UNL     1      -0.427  10.249  23.048  0.00  0.00    +0.000 A 
ATOM      9  C   UNL     1       0.365   9.330  22.325  0.00  0.00    +0.000 A 
ATOM     10  C   UNL     1       0.743   9.548  21.004  0.00  0.00    +0.000 A 
ATOM     11  N   UNL     1       1.435   8.618  20.303  0.00  0.00    +0.000 NA
ATOM     12  H   UNL     1       2.551   8.508  17.298  0.00  0.00    +0.000 HD
ENDROOT
BRANCH   1  17
ATOM     13  C   UNL     1       3.948   4.693  17.339  0.00  0.00    +0.000 A 
ATOM     14  C   UNL     1       3.265   3.892  18.256  0.00  0.00    +0.000 A 
ATOM     15  C   UNL     1       2.330   4.449  19.120  0.00  0.00    +0.000 A 
ATOM     16  C   UNL     1       2.071   5.818  19.064  0.00  0.00    +0.000 A 
ATOM     17  C   UNL     1       2.744   6.661  18.163  0.00  0.00    +0.000 A 
ATOM     18  C   UNL     1       3.698   6.080  17.315  0.00  0.00    +0.000 A 
BRANCH  13  22
ATOM     19  C   UNL     1       6.406   3.973  14.566  0.00  0.00    +0.000 C 
ATOM     20  C   UNL     1       5.541   4.858  15.424  0.00  0.00    +0.000 C 
ATOM     21  O   UNL     1       5.461   6.059  15.188  0.00  0.00    +0.000 OA
ATOM     22  N   UNL     1       4.902   4.164  16.439  0.00  0.00    +0.000 N 
ATOM     23  H   UNL     1       5.205   3.215  16.617  0.00  0.00    +0.000 HD
ENDBRANCH  13  22
ENDBRANCH   1  17
BRANCH   7  24
ATOM     24  C   UNL     1      -1.824  12.359  23.175  0.00  0.00    +0.000 A 
ATOM     25  C   UNL     1      -1.476  13.684  23.484  0.00  0.00    +0.000 A 
ATOM     26  C   UNL     1      -2.357  14.526  24.176  0.00  0.00    +0.000 A 
ATOM     27  C   UNL     1      -3.603  14.056  24.583  0.00  0.00    +0.000 A 
ATOM     28  C   UNL     1      -3.971  12.737  24.336  0.00  0.00    +0.000 A 
ATOM     29  C   UNL     1      -3.102  11.923  23.592  0.00  0.00    +0.000 A 
BRANCH  28  30
ATOM     30  N   UNL     1      -5.271  12.306  24.632  0.00  0.00    +0.000 N 
ATOM     31  H   UNL     1      -5.779  12.925  25.256  0.00  0.00    +0.000 HD
ATOM     32  H   UNL     1      -5.331  11.337  24.924  0.00  0.00    +0.000 HD
ENDBRANCH  28  30
ENDBRANCH   7  24
TORSDOF 4
ENDMDL
MODEL 9
REMARK VINA RESULT:      -8.6      3.157      5.049
REMARK  Name = 
REMARK  5 active torsions:
REMARK  status: ('A' for Active; 'I' for Inactive)
REMARK    1  A    between atoms: C_1  and  C_2
REMARK    2  A    between atoms: N_4  and  C_5
REMARK    3  A    between atoms: C_9  and  N_10
REMARK    4  A    between atoms: C_16  and  C_17
REMARK    5  A    between atoms: C_21  and  N_22
REMARK                            x       y       z     vdW  Elec       q    Type
REMARK                         _______ _______ _______ _____ _____    ______ ____
ROOT
ATOM      1  N   UNL     1       2.126   8.445  18.159  0.00  0.00    +0.000 N 
ATOM      2  C   UNL     1       1.327   9.314  18.902  0.00  0.00    +0.000 A 
ATOM      3  N   UNL     1       0.739  10.251  18.136  0.00  0.00    +0.000 NA
ATOM      4  C   UNL     1      -0.130  11.085  18.738  0.00  0.00    +0.000 A 
ATOM      5  C   UNL     1      -0.436  11.037  20.083  0.00  0.00    +0.000 A 
ATOM      6  C   UNL     1      -1.408  11.878  20.684  0.00  0.00    +0.000 A 
ATOM      7  C   UNL     1      -1.700  11.801  22.052  0.00  0.00    +0.000 A 
ATOM      8  C   UNL     1      -0.923  10.897  22.795  0.00  0.00    +0.000 A 
ATOM      9  C   UNL     1       0.036  10.062  22.180  0.00  0.00    +0.000 A 
ATOM     10  C   UNL     1       0.276  10.086  20.810  0.00  0.00    +0.000 A 
ATOM     11  N   UNL     1       1.142   9.221  20.228  0.00  0.00    +0.000 NA
ATOM     12  H   UNL     1       2.090   8.761  17.198  0.00  0.00    +0.000 HD
ENDROOT
BRANCH   1  17
ATOM     13  C   UNL     1       3.158   5.092  19.505  0.00  0.00    +0.000 A 
ATOM     14  C   UNL     1       4.260   4.847  18.683  0.00  0.00    +0.000 A 
ATOM     15  C   UNL     1       4.636   5.770  17.715  0.00  0.00    +0.000 A 
ATOM     16  C   UNL     1       3.910   6.952  17.570  0.00  0.00    +0.000 A 
ATOM     17  C   UNL     1       2.788   7.231  18.370  0.00  0.00    +0.000 A 
ATOM     18  C   UNL     1       2.415   6.276  19.326  0.00  0.00    +0.000 A 
BRANCH  13  22
ATOM     19  C   UNL     1       1.412   2.589  21.725  0.00  0.00    +0.000 C 
ATOM     20  C   UNL     1       1.644   3.343  20.443  0.00  0.00    +0.000 C 
ATOM     21  O   UNL     1       0.896   3.178  19.485  0.00  0.00    +0.000 OA
ATOM     22  N   UNL     1       2.746   4.181  20.505  0.00  0.00    +0.000 N 
ATOM     23  H   UNL     1       3.369   4.076  21.296  0.00  0.00    +0.000 HD
ENDBRANCH  13  22
ENDBRANCH   1  17
BRANCH   7  24
ATOM     24  C   UNL     1      -2.799  12.596  22.667  0.00  0.00    +0.000 A 
ATOM     25  C   UNL     1      -4.091  12.628  22.116  0.00  0.00    +0.000 A 
ATOM     26  C   UNL     1      -5.107  13.404  22.688  0.00  0.00    +0.000 A 
ATOM     27  C   UNL     1      -4.849  14.174  23.819  0.00  0.00    +0.000 A 
ATOM     28  C   UNL     1      -3.573  14.207  24.371  0.00  0.00    +0.000 A 
ATOM     29  C   UNL     1      -2.580  13.380  23.822  0.00  0.00    +0.000 A 
BRANCH  28  30
ATOM     30  N   UNL     1      -3.349  14.880  25.580  0.00  0.00    +0.000 N 
ATOM     31  H   UNL     1      -3.261  14.266  26.384  0.00  0.00    +0.000 HD
ATOM     32  H   UNL     1      -3.991  15.646  25.754  0.00  0.00    +0.000 HD
ENDBRANCH  28  30
ENDBRANCH   7  24
TORSDOF 4
ENDMDL
