MODEL 1
REMARK VINA RESULT:      -6.0      0.000      0.000
REMARK  Name = 
REMARK  18 active torsions:
REMARK  status: ('A' for Active; 'I' for Inactive)
REMARK    1  A    between atoms: C_1  and  C_2
REMARK    2  A    between atoms: C_2  and  C_3
REMARK    3  A    between atoms: C_3  and  C_4
REMARK    4  A    between atoms: C_4  and  C_5
REMARK    5  A    between atoms: C_5  and  C_6
REMARK    6  A    between atoms: C_6  and  C_7
REMARK    7  A    between atoms: C_7  and  C_8
REMARK    8  A    between atoms: C_8  and  C_9
REMARK    9  A    between atoms: C_9  and  C_10
REMARK   10  A    between atoms: C_10  and  C_11
REMARK   11  A    between atoms: C_14  and  C_15
REMARK   12  A    between atoms: C_15  and  C_16
REMARK   13  A    between atoms: C_16  and  C_17
REMARK   14  A    between atoms: C_17  and  N_18
REMARK   15  A    between atoms: C_17  and  C_19
REMARK   16  A    between atoms: C_17  and  C_21
REMARK   17  A    between atoms: C_19  and  O_20
REMARK   18  A    between atoms: C_21  and  O_22
REMARK                            x       y       z     vdW  Elec       q    Type
REMARK                         _______ _______ _______ _____ _____    ______ ____
ROOT
ATOM      1  C   UNL     1       2.373   6.815  19.624  0.00  0.00    +0.000 A 
ATOM      2  C   UNL     1       1.700   7.625  20.550  0.00  0.00    +0.000 A 
ATOM      3  C   UNL     1       1.169   8.850  20.154  0.00  0.00    +0.000 A 
ATOM      4  C   UNL     1       1.311   9.286  18.827  0.00  0.00    +0.000 A 
ATOM      5  C   UNL     1       1.975   8.470  17.896  0.00  0.00    +0.000 A 
ATOM      6  C   UNL     1       2.504   7.243  18.294  0.00  0.00    +0.000 A 
ENDROOT
BRANCH   1   7
ATOM      7  C   UNL     1       2.953   5.505  20.057  0.00  0.00    +0.000 C 
BRANCH   7   8
ATOM      8  C   UNL     1       2.023   4.788  21.040  0.00  0.00    +0.000 C 
BRANCH   8   9
ATOM      9  C   UNL     1       1.815   3.357  20.568  0.00  0.00    +0.000 C 
BRANCH   9  10
ATOM     10  C   UNL     1       1.081   3.300  19.225  0.00  0.00    +0.000 C 
BRANCH  10  11
ATOM     11  C   UNL     1       1.860   2.476  18.190  0.00  0.00    +0.000 C 
BRANCH  11  12
ATOM     12  C   UNL     1       2.581   3.360  17.160  0.00  0.00    +0.000 C 
BRANCH  12  13
ATOM     13  C   UNL     1       4.095   3.279  17.328  0.00  0.00    +0.000 C 
BRANCH  13  14
ATOM     14  C   UNL     1       4.762   4.537  16.760  0.00  0.00    +0.000 C 
BRANCH  14  16
ATOM     15  C   UNL     1       5.681   4.259  14.431  0.00  0.00    +0.000 C 
ATOM     16  C   UNL     1       5.983   4.157  15.921  0.00  0.00    +0.000 C 
ENDBRANCH  14  16
ENDBRANCH  13  14
ENDBRANCH  12  13
ENDBRANCH  11  12
ENDBRANCH  10  11
ENDBRANCH   9  10
ENDBRANCH   8   9
ENDBRANCH   7   8
ENDBRANCH   1   7
BRANCH   4  17
ATOM     17  C   UNL     1       0.756  10.618  18.412  0.00  0.00    +0.000 C 
BRANCH  17  18
ATOM     18  C   UNL     1      -0.606  10.860  19.096  0.00  0.00    +0.000 C 
BRANCH  18  19
ATOM     19  C   UNL     1      -1.637  11.665  18.249  0.00  0.00    +0.000 C 
BRANCH  19  20
ATOM     20  N   UNL     1      -1.008  12.869  17.685  0.00  0.00    +0.000 NA
ATOM     21  H   UNL     1      -0.101  13.084  18.158  0.00  0.00    +0.000 HD
ATOM     22  H   UNL     1      -1.645  13.693  17.783  0.00  0.00    +0.000 HD
ENDBRANCH  19  20
BRANCH  19  23
ATOM     23  C   UNL     1      -2.219  10.809  17.091  0.00  0.00    +0.000 C 
BRANCH  23  24
ATOM     24  O   UNL     1      -2.673   9.560  17.542  0.00  0.00    +0.000 OA
ATOM     25  H   UNL     1      -3.400   9.732  18.195  0.00  0.00    +0.000 HD
ENDBRANCH  23  24
ENDBRANCH  19  23
BRANCH  19  26
ATOM     26  C   UNL     1      -2.788  12.107  19.189  0.00  0.00    +0.000 C 
BRANCH  26  27
ATOM     27  O   UNL     1      -2.295  12.681  20.371  0.00  0.00    +0.000 OA
ATOM     28  H   UNL     1      -2.095  13.631  20.166  0.00  0.00    +0.000 HD
ENDBRANCH  26  27
ENDBRANCH  19  26
ENDBRANCH  18  19
ENDBRANCH  17  18
ENDBRANCH   4  17
TORSDOF 17
ENDMDL
MODEL 2
REMARK VINA RESULT:      -6.0      1.574      2.408
REMARK  Name = 
REMARK  18 active torsions:
REMARK  status: ('A' for Active; 'I' for Inactive)
REMARK    1  A    between atoms: C_1  and  C_2
REMARK    2  A    between atoms: C_2  and  C_3
REMARK    3  A    between atoms: C_3  and  C_4
REMARK    4  A    between atoms: C_4  and  C_5
REMARK    5  A    between atoms: C_5  and  C_6
REMARK    6  A    between atoms: C_6  and  C_7
REMARK    7  A    between atoms: C_7  and  C_8
REMARK    8  A    between atoms: C_8  and  C_9
REMARK    9  A    between atoms: C_9  and  C_10
REMARK   10  A    between atoms: C_10  and  C_11
REMARK   11  A    between atoms: C_14  and  C_15
REMARK   12  A    between atoms: C_15  and  C_16
REMARK   13  A    between atoms: C_16  and  C_17
REMARK   14  A    between atoms: C_17  and  N_18
REMARK   15  A    between atoms: C_17  and  C_19
REMARK   16  A    between atoms: C_17  and  C_21
REMARK   17  A    between atoms: C_19  and  O_20
REMARK   18  A    between atoms: C_21  and  O_22
REMARK                            x       y       z     vdW  Elec       q    Type
REMARK                         _______ _______ _______ _____ _____    ______ ____
ROOT
ATOM      1  C   UNL     1       2.407   6.812  19.464  0.00  0.00    +0.000 A 
ATOM      2  C   UNL     1       1.730   7.650  20.361  0.00  0.00    +0.000 A 
ATOM      3  C   UNL     1       1.318   8.918  19.960  0.00  0.00    +0.000 A 
ATOM      4  C   UNL     1       1.585   9.369  18.657  0.00  0.00    +0.000 A 
ATOM      5  C   UNL     1       2.252   8.526  17.754  0.00  0.00    +0.000 A 
ATOM      6  C   UNL     1       2.662   7.255  18.157  0.00  0.00    +0.000 A 
ENDROOT
BRANCH   1   7
ATOM      7  C   UNL     1       2.859   5.454  19.903  0.00  0.00    +0.000 C 
BRANCH   7   8
ATOM      8  C   UNL     1       4.337   5.231  19.570  0.00  0.00    +0.000 C 
BRANCH   8   9
ATOM      9  C   UNL     1       4.473   3.950  18.762  0.00  0.00    +0.000 C 
BRANCH   9  10
ATOM     10  C   UNL     1       4.017   4.137  17.312  0.00  0.00    +0.000 C 
BRANCH  10  11
ATOM     11  C   UNL     1       5.168   3.904  16.323  0.00  0.00    +0.000 C 
BRANCH  11  12
ATOM     12  C   UNL     1       5.577   5.190  15.586  0.00  0.00    +0.000 C 
BRANCH  12  13
ATOM     13  C   UNL     1       6.886   5.746  16.134  0.00  0.00    +0.000 C 
BRANCH  13  14
ATOM     14  C   UNL     1       6.609   6.775  17.235  0.00  0.00    +0.000 C 
BRANCH  14  16
ATOM     15  C   UNL     1       7.813   5.734  19.189  0.00  0.00    +0.000 C 
ATOM     16  C   UNL     1       7.806   6.878  18.181  0.00  0.00    +0.000 C 
ENDBRANCH  14  16
ENDBRANCH  13  14
ENDBRANCH  12  13
ENDBRANCH  11  12
ENDBRANCH  10  11
ENDBRANCH   9  10
ENDBRANCH   8   9
ENDBRANCH   7   8
ENDBRANCH   1   7
BRANCH   4  17
ATOM     17  C   UNL     1       1.157  10.747  18.239  0.00  0.00    +0.000 C 
BRANCH  17  18
ATOM     18  C   UNL     1      -0.056  11.202  19.076  0.00  0.00    +0.000 C 
BRANCH  18  19
ATOM     19  C   UNL     1      -1.383  11.373  18.277  0.00  0.00    +0.000 C 
BRANCH  19  20
ATOM     20  N   UNL     1      -1.256  12.466  17.301  0.00  0.00    +0.000 NA
ATOM     21  H   UNL     1      -0.339  12.430  16.804  0.00  0.00    +0.000 HD
ATOM     22  H   UNL     1      -1.347  13.393  17.779  0.00  0.00    +0.000 HD
ENDBRANCH  19  20
BRANCH  19  23
ATOM     23  C   UNL     1      -1.773  10.069  17.529  0.00  0.00    +0.000 C 
BRANCH  23  24
ATOM     24  O   UNL     1      -3.164   9.877  17.505  0.00  0.00    +0.000 OA
ATOM     25  H   UNL     1      -3.566  10.701  17.126  0.00  0.00    +0.000 HD
ENDBRANCH  23  24
ENDBRANCH  19  23
BRANCH  19  26
ATOM     26  C   UNL     1      -2.504  11.741  19.284  0.00  0.00    +0.000 C 
BRANCH  26  27
ATOM     27  O   UNL     1      -3.495  12.533  18.683  0.00  0.00    +0.000 OA
ATOM     28  H   UNL     1      -3.680  12.133  17.795  0.00  0.00    +0.000 HD
ENDBRANCH  26  27
ENDBRANCH  19  26
ENDBRANCH  18  19
ENDBRANCH  17  18
ENDBRANCH   4  17
TORSDOF 17
ENDMDL
MODEL 3
REMARK VINA RESULT:      -6.0      1.632      2.064
REMARK  Name = 
REMARK  18 active torsions:
REMARK  status: ('A' for Active; 'I' for Inactive)
REMARK    1  A    between atoms: C_1  and  C_2
REMARK    2  A    between atoms: C_2  and  C_3
REMARK    3  A    between atoms: C_3  and  C_4
REMARK    4  A    between atoms: C_4  and  C_5
REMARK    5  A    between atoms: C_5  and  C_6
REMARK    6  A    between atoms: C_6  and  C_7
REMARK    7  A    between atoms: C_7  and  C_8
REMARK    8  A    between atoms: C_8  and  C_9
REMARK    9  A    between atoms: C_9  and  C_10
REMARK   10  A    between atoms: C_10  and  C_11
REMARK   11  A    between atoms: C_14  and  C_15
REMARK   12  A    between atoms: C_15  and  C_16
REMARK   13  A    between atoms: C_16  and  C_17
REMARK   14  A    between atoms: C_17  and  N_18
REMARK   15  A    between atoms: C_17  and  C_19
REMARK   16  A    between atoms: C_17  and  C_21
REMARK   17  A    between atoms: C_19  and  O_20
REMARK   18  A    between atoms: C_21  and  O_22
REMARK                            x       y       z     vdW  Elec       q    Type
REMARK                         _______ _______ _______ _____ _____    ______ ____
ROOT
ATOM      1  C   UNL     1       2.134   6.104  20.042  0.00  0.00    +0.000 A 
ATOM      2  C   UNL     1       1.582   7.204  20.715  0.00  0.00    +0.000 A 
ATOM      3  C   UNL     1       1.445   8.427  20.064  0.00  0.00    +0.000 A 
ATOM      4  C   UNL     1       1.865   8.569  18.731  0.00  0.00    +0.000 A 
ATOM      5  C   UNL     1       2.407   7.466  18.053  0.00  0.00    +0.000 A 
ATOM      6  C   UNL     1       2.542   6.241  18.706  0.00  0.00    +0.000 A 
ENDROOT
BRANCH   1   7
ATOM      7  C   UNL     1       2.291   4.795  20.750  0.00  0.00    +0.000 C 
BRANCH   7   8
ATOM      8  C   UNL     1       1.034   3.932  20.601  0.00  0.00    +0.000 C 
BRANCH   8   9
ATOM      9  C   UNL     1       1.225   2.981  19.430  0.00  0.00    +0.000 C 
BRANCH   9  10
ATOM     10  C   UNL     1       2.612   2.331  19.440  0.00  0.00    +0.000 C 
BRANCH  10  11
ATOM     11  C   UNL     1       3.064   1.942  18.026  0.00  0.00    +0.000 C 
BRANCH  11  12
ATOM     12  C   UNL     1       3.310   3.167  17.131  0.00  0.00    +0.000 C 
BRANCH  12  13
ATOM     13  C   UNL     1       4.674   3.790  17.413  0.00  0.00    +0.000 C 
BRANCH  13  14
ATOM     14  C   UNL     1       5.035   4.801  16.320  0.00  0.00    +0.000 C 
BRANCH  14  16
ATOM     15  C   UNL     1       7.399   4.545  17.153  0.00  0.00    +0.000 C 
ATOM     16  C   UNL     1       6.505   4.653  15.924  0.00  0.00    +0.000 C 
ENDBRANCH  14  16
ENDBRANCH  13  14
ENDBRANCH  12  13
ENDBRANCH  11  12
ENDBRANCH  10  11
ENDBRANCH   9  10
ENDBRANCH   8   9
ENDBRANCH   7   8
ENDBRANCH   1   7
BRANCH   4  17
ATOM     17  C   UNL     1       1.734   9.897  18.043  0.00  0.00    +0.000 C 
BRANCH  17  18
ATOM     18  C   UNL     1       0.462  10.623  18.528  0.00  0.00    +0.000 C 
BRANCH  18  19
ATOM     19  C   UNL     1       0.680  12.090  19.008  0.00  0.00    +0.000 C 
BRANCH  19  20
ATOM     20  N   UNL     1       1.839  12.684  18.325  0.00  0.00    +0.000 NA
ATOM     21  H   UNL     1       2.575  12.977  19.006  0.00  0.00    +0.000 HD
ATOM     22  H   UNL     1       1.545  13.518  17.765  0.00  0.00    +0.000 HD
ENDBRANCH  19  20
BRANCH  19  23
ATOM     23  C   UNL     1      -0.571  12.972  18.741  0.00  0.00    +0.000 C 
BRANCH  23  24
ATOM     24  O   UNL     1      -1.082  12.774  17.449  0.00  0.00    +0.000 OA
ATOM     25  H   UNL     1      -0.729  13.507  16.880  0.00  0.00    +0.000 HD
ENDBRANCH  23  24
ENDBRANCH  19  23
BRANCH  19  26
ATOM     26  C   UNL     1       0.970  12.058  20.530  0.00  0.00    +0.000 C 
BRANCH  26  27
ATOM     27  O   UNL     1       1.950  12.996  20.887  0.00  0.00    +0.000 OA
ATOM     28  H   UNL     1       2.777  12.485  21.083  0.00  0.00    +0.000 HD
ENDBRANCH  26  27
ENDBRANCH  19  26
ENDBRANCH  18  19
ENDBRANCH  17  18
ENDBRANCH   4  17
TORSDOF 17
ENDMDL
MODEL 4
REMARK VINA RESULT:      -6.0      1.636      3.549
REMARK  Name = 
REMARK  18 active torsions:
REMARK  status: ('A' for Active; 'I' for Inactive)
REMARK    1  A    between atoms: C_1  and  C_2
REMARK    2  A    between atoms: C_2  and  C_3
REMARK    3  A    between atoms: C_3  and  C_4
REMARK    4  A    between atoms: C_4  and  C_5
REMARK    5  A    between atoms: C_5  and  C_6
REMARK    6  A    between atoms: C_6  and  C_7
REMARK    7  A    between atoms: C_7  and  C_8
REMARK    8  A    between atoms: C_8  and  C_9
REMARK    9  A    between atoms: C_9  and  C_10
REMARK   10  A    between atoms: C_10  and  C_11
REMARK   11  A    between atoms: C_14  and  C_15
REMARK   12  A    between atoms: C_15  and  C_16
REMARK   13  A    between atoms: C_16  and  C_17
REMARK   14  A    between atoms: C_17  and  N_18
REMARK   15  A    between atoms: C_17  and  C_19
REMARK   16  A    between atoms: C_17  and  C_21
REMARK   17  A    between atoms: C_19  and  O_20
REMARK   18  A    between atoms: C_21  and  O_22
REMARK                            x       y       z     vdW  Elec       q    Type
REMARK                         _______ _______ _______ _____ _____    ______ ____
ROOT
ATOM      1  C   UNL     1       2.956   7.231  18.302  0.00  0.00    +0.000 A 
ATOM      2  C   UNL     1       2.512   8.419  17.702  0.00  0.00    +0.000 A 
ATOM      3  C   UNL     1       1.644   9.266  18.385  0.00  0.00    +0.000 A 
ATOM      4  C   UNL     1       1.201   8.934  19.676  0.00  0.00    +0.000 A 
ATOM      5  C   UNL     1       1.653   7.750  20.281  0.00  0.00    +0.000 A 
ATOM      6  C   UNL     1       2.525   6.904  19.596  0.00  0.00    +0.000 A 
ENDROOT
BRANCH   1   7
ATOM      7  C   UNL     1       3.879   6.317  17.559  0.00  0.00    +0.000 C 
BRANCH   7   8
ATOM      8  C   UNL     1       4.879   5.652  18.509  0.00  0.00    +0.000 C 
BRANCH   8   9
ATOM      9  C   UNL     1       4.497   4.190  18.684  0.00  0.00    +0.000 C 
BRANCH   9  10
ATOM     10  C   UNL     1       3.989   3.572  17.378  0.00  0.00    +0.000 C 
BRANCH  10  11
ATOM     11  C   UNL     1       2.719   2.740  17.604  0.00  0.00    +0.000 C 
BRANCH  11  12
ATOM     12  C   UNL     1       1.459   3.613  17.719  0.00  0.00    +0.000 C 
BRANCH  12  13
ATOM     13  C   UNL     1       0.792   3.441  19.080  0.00  0.00    +0.000 C 
BRANCH  13  14
ATOM     14  C   UNL     1       1.491   2.337  19.881  0.00  0.00    +0.000 C 
BRANCH  14  16
ATOM     15  C   UNL     1       2.377   3.800  21.731  0.00  0.00    +0.000 C 
ATOM     16  C   UNL     1       1.439   2.652  21.376  0.00  0.00    +0.000 C 
ENDBRANCH  14  16
ENDBRANCH  13  14
ENDBRANCH  12  13
ENDBRANCH  11  12
ENDBRANCH  10  11
ENDBRANCH   9  10
ENDBRANCH   8   9
ENDBRANCH   7   8
ENDBRANCH   1   7
BRANCH   4  17
ATOM     17  C   UNL     1       0.247   9.842  20.397  0.00  0.00    +0.000 C 
BRANCH  17  18
ATOM     18  C   UNL     1       0.630  11.316  20.153  0.00  0.00    +0.000 C 
BRANCH  18  19
ATOM     19  C   UNL     1      -0.503  12.204  19.557  0.00  0.00    +0.000 C 
BRANCH  19  20
ATOM     20  N   UNL     1      -1.257  12.863  20.635  0.00  0.00    +0.000 NA
ATOM     21  H   UNL     1      -2.256  12.560  20.644  0.00  0.00    +0.000 HD
ATOM     22  H   UNL     1      -1.219  13.903  20.522  0.00  0.00    +0.000 HD
ENDBRANCH  19  20
BRANCH  19  23
ATOM     23  C   UNL     1       0.063  13.289  18.599  0.00  0.00    +0.000 C 
BRANCH  23  24
ATOM     24  O   UNL     1       1.184  12.827  17.893  0.00  0.00    +0.000 OA
ATOM     25  H   UNL     1       1.475  13.563  17.294  0.00  0.00    +0.000 HD
ENDBRANCH  23  24
ENDBRANCH  19  23
BRANCH  19  26
ATOM     26  C   UNL     1      -1.472  11.282  18.773  0.00  0.00    +0.000 C 
BRANCH  26  27
ATOM     27  O   UNL     1      -1.436  11.550  17.397  0.00  0.00    +0.000 OA
ATOM     28  H   UNL     1      -1.278  10.684  16.941  0.00  0.00    +0.000 HD
ENDBRANCH  26  27
ENDBRANCH  19  26
ENDBRANCH  18  19
ENDBRANCH  17  18
ENDBRANCH   4  17
TORSDOF 17
ENDMDL
MODEL 5
REMARK VINA RESULT:      -5.9      1.395      3.338
REMARK  Name = 
REMARK  18 active torsions:
REMARK  status: ('A' for Active; 'I' for Inactive)
REMARK    1  A    between atoms: C_1  and  C_2
REMARK    2  A    between atoms: C_2  and  C_3
REMARK    3  A    between atoms: C_3  and  C_4
REMARK    4  A    between atoms: C_4  and  C_5
REMARK    5  A    between atoms: C_5  and  C_6
REMARK    6  A    between atoms: C_6  and  C_7
REMARK    7  A    between atoms: C_7  and  C_8
REMARK    8  A    between atoms: C_8  and  C_9
REMARK    9  A    between atoms: C_9  and  C_10
REMARK   10  A    between atoms: C_10  and  C_11
REMARK   11  A    between atoms: C_14  and  C_15
REMARK   12  A    between atoms: C_15  and  C_16
REMARK   13  A    between atoms: C_16  and  C_17
REMARK   14  A    between atoms: C_17  and  N_18
REMARK   15  A    between atoms: C_17  and  C_19
REMARK   16  A    between atoms: C_17  and  C_21
REMARK   17  A    between atoms: C_19  and  O_20
REMARK   18  A    between atoms: C_21  and  O_22
REMARK                            x       y       z     vdW  Elec       q    Type
REMARK                         _______ _______ _______ _____ _____    ______ ____
ROOT
ATOM      1  C   UNL     1       2.663   7.195  18.904  0.00  0.00    +0.000 A 
ATOM      2  C   UNL     1       2.610   8.123  17.855  0.00  0.00    +0.000 A 
ATOM      3  C   UNL     1       1.868   9.293  17.993  0.00  0.00    +0.000 A 
ATOM      4  C   UNL     1       1.162   9.548  19.180  0.00  0.00    +0.000 A 
ATOM      5  C   UNL     1       1.224   8.623  20.235  0.00  0.00    +0.000 A 
ATOM      6  C   UNL     1       1.969   7.453  20.097  0.00  0.00    +0.000 A 
ENDROOT
BRANCH   1   7
ATOM      7  C   UNL     1       3.452   5.932  18.748  0.00  0.00    +0.000 C 
BRANCH   7   8
ATOM      8  C   UNL     1       4.023   5.811  17.332  0.00  0.00    +0.000 C 
BRANCH   8   9
ATOM      9  C   UNL     1       4.240   4.340  17.012  0.00  0.00    +0.000 C 
BRANCH   9  10
ATOM     10  C   UNL     1       4.908   3.594  18.171  0.00  0.00    +0.000 C 
BRANCH  10  11
ATOM     11  C   UNL     1       4.007   2.479  18.719  0.00  0.00    +0.000 C 
BRANCH  11  12
ATOM     12  C   UNL     1       2.710   2.321  17.908  0.00  0.00    +0.000 C 
BRANCH  12  13
ATOM     13  C   UNL     1       1.511   2.101  18.824  0.00  0.00    +0.000 C 
BRANCH  13  14
ATOM     14  C   UNL     1       0.948   3.445  19.298  0.00  0.00    +0.000 C 
BRANCH  14  16
ATOM     15  C   UNL     1       2.291   3.898  21.382  0.00  0.00    +0.000 C 
ATOM     16  C   UNL     1       0.928   3.503  20.826  0.00  0.00    +0.000 C 
ENDBRANCH  14  16
ENDBRANCH  13  14
ENDBRANCH  12  13
ENDBRANCH  11  12
ENDBRANCH  10  11
ENDBRANCH   9  10
ENDBRANCH   8   9
ENDBRANCH   7   8
ENDBRANCH   1   7
BRANCH   4  17
ATOM     17  C   UNL     1       0.346  10.801  19.312  0.00  0.00    +0.000 C 
BRANCH  17  18
ATOM     18  C   UNL     1      -0.998  10.640  18.571  0.00  0.00    +0.000 C 
BRANCH  18  19
ATOM     19  C   UNL     1      -1.711  11.974  18.199  0.00  0.00    +0.000 C 
BRANCH  19  20
ATOM     20  N   UNL     1      -2.146  11.947  16.794  0.00  0.00    +0.000 NA
ATOM     21  H   UNL     1      -2.577  11.029  16.544  0.00  0.00    +0.000 HD
ATOM     22  H   UNL     1      -1.334  12.125  16.158  0.00  0.00    +0.000 HD
ENDBRANCH  19  20
BRANCH  19  23
ATOM     23  C   UNL     1      -2.945  12.236  19.105  0.00  0.00    +0.000 C 
BRANCH  23  24
ATOM     24  O   UNL     1      -2.601  12.242  20.466  0.00  0.00    +0.000 OA
ATOM     25  H   UNL     1      -1.640  12.482  20.523  0.00  0.00    +0.000 HD
ENDBRANCH  23  24
ENDBRANCH  19  23
BRANCH  19  26
ATOM     26  C   UNL     1      -0.691  13.128  18.375  0.00  0.00    +0.000 C 
BRANCH  26  27
ATOM     27  O   UNL     1      -1.222  14.169  19.153  0.00  0.00    +0.000 OA
ATOM     28  H   UNL     1      -1.125  13.895  20.101  0.00  0.00    +0.000 HD
ENDBRANCH  26  27
ENDBRANCH  19  26
ENDBRANCH  18  19
ENDBRANCH  17  18
ENDBRANCH   4  17
TORSDOF 17
ENDMDL
MODEL 6
REMARK VINA RESULT:      -5.9      5.888      7.799
REMARK  Name = 
REMARK  18 active torsions:
REMARK  status: ('A' for Active; 'I' for Inactive)
REMARK    1  A    between atoms: C_1  and  C_2
REMARK    2  A    between atoms: C_2  and  C_3
REMARK    3  A    between atoms: C_3  and  C_4
REMARK    4  A    between atoms: C_4  and  C_5
REMARK    5  A    between atoms: C_5  and  C_6
REMARK    6  A    between atoms: C_6  and  C_7
REMARK    7  A    between atoms: C_7  and  C_8
REMARK    8  A    between atoms: C_8  and  C_9
REMARK    9  A    between atoms: C_9  and  C_10
REMARK   10  A    between atoms: C_10  and  C_11
REMARK   11  A    between atoms: C_14  and  C_15
REMARK   12  A    between atoms: C_15  and  C_16
REMARK   13  A    between atoms: C_16  and  C_17
REMARK   14  A    between atoms: C_17  and  N_18
REMARK   15  A    between atoms: C_17  and  C_19
REMARK   16  A    between atoms: C_17  and  C_21
REMARK   17  A    between atoms: C_19  and  O_20
REMARK   18  A    between atoms: C_21  and  O_22
REMARK                            x       y       z     vdW  Elec       q    Type
REMARK                         _______ _______ _______ _____ _____    ______ ____
ROOT
ATOM      1  C   UNL     1       6.319   5.398  18.209  0.00  0.00    +0.000 A 
ATOM      2  C   UNL     1       5.782   6.364  17.345  0.00  0.00    +0.000 A 
ATOM      3  C   UNL     1       6.443   7.573  17.149  0.00  0.00    +0.000 A 
ATOM      4  C   UNL     1       7.648   7.837  17.820  0.00  0.00    +0.000 A 
ATOM      5  C   UNL     1       8.192   6.866  18.677  0.00  0.00    +0.000 A 
ATOM      6  C   UNL     1       7.529   5.654  18.870  0.00  0.00    +0.000 A 
ENDROOT
BRANCH   1   7
ATOM      7  C   UNL     1       5.597   4.105  18.427  0.00  0.00    +0.000 C 
BRANCH   7   8
ATOM      8  C   UNL     1       4.453   3.935  17.423  0.00  0.00    +0.000 C 
BRANCH   8   9
ATOM      9  C   UNL     1       3.745   2.618  17.700  0.00  0.00    +0.000 C 
BRANCH   9  10
ATOM     10  C   UNL     1       2.277   2.828  18.086  0.00  0.00    +0.000 C 
BRANCH  10  11
ATOM     11  C   UNL     1       2.106   2.960  19.605  0.00  0.00    +0.000 C 
BRANCH  11  12
ATOM     12  C   UNL     1       1.048   4.009  19.987  0.00  0.00    +0.000 C 
BRANCH  12  13
ATOM     13  C   UNL     1       1.672   5.162  20.766  0.00  0.00    +0.000 C 
BRANCH  13  14
ATOM     14  C   UNL     1       2.704   5.893  19.901  0.00  0.00    +0.000 C 
BRANCH  14  16
ATOM     15  C   UNL     1       2.481   7.601  18.063  0.00  0.00    +0.000 C 
ATOM     16  C   UNL     1       2.192   7.284  19.525  0.00  0.00    +0.000 C 
ENDBRANCH  14  16
ENDBRANCH  13  14
ENDBRANCH  12  13
ENDBRANCH  11  12
ENDBRANCH  10  11
ENDBRANCH   9  10
ENDBRANCH   8   9
ENDBRANCH   7   8
ENDBRANCH   1   7
BRANCH   4  17
ATOM     17  C   UNL     1       8.345   9.152  17.621  0.00  0.00    +0.000 C 
BRANCH  17  18
ATOM     18  C   UNL     1       8.915   9.659  18.962  0.00  0.00    +0.000 C 
BRANCH  18  19
ATOM     19  C   UNL     1       9.452  11.122  18.942  0.00  0.00    +0.000 C 
BRANCH  19  20
ATOM     20  N   UNL     1       8.700  11.930  17.970  0.00  0.00    +0.000 NA
ATOM     21  H   UNL     1       7.679  11.708  17.996  0.00  0.00    +0.000 HD
ATOM     22  H   UNL     1       9.058  11.761  17.001  0.00  0.00    +0.000 HD
ENDBRANCH  19  20
BRANCH  19  23
ATOM     23  C   UNL     1       9.349  11.789  20.341  0.00  0.00    +0.000 C 
BRANCH  23  24
ATOM     24  O   UNL     1      10.616  12.065  20.881  0.00  0.00    +0.000 OA
ATOM     25  H   UNL     1      11.288  11.719  20.239  0.00  0.00    +0.000 HD
ENDBRANCH  23  24
ENDBRANCH  19  23
BRANCH  19  26
ATOM     26  C   UNL     1      10.937  11.080  18.500  0.00  0.00    +0.000 C 
BRANCH  26  27
ATOM     27  O   UNL     1      11.122  11.704  17.257  0.00  0.00    +0.000 OA
ATOM     28  H   UNL     1      10.248  12.095  17.001  0.00  0.00    +0.000 HD
ENDBRANCH  26  27
ENDBRANCH  19  26
ENDBRANCH  18  19
ENDBRANCH  17  18
ENDBRANCH   4  17
TORSDOF 17
ENDMDL
MODEL 7
REMARK VINA RESULT:      -5.9      6.293      9.122
REMARK  Name = 
REMARK  18 active torsions:
REMARK  status: ('A' for Active; 'I' for Inactive)
REMARK    1  A    between atoms: C_1  and  C_2
REMARK    2  A    between atoms: C_2  and  C_3
REMARK    3  A    between atoms: C_3  and  C_4
REMARK    4  A    between atoms: C_4  and  C_5
REMARK    5  A    between atoms: C_5  and  C_6
REMARK    6  A    between atoms: C_6  and  C_7
REMARK    7  A    between atoms: C_7  and  C_8
REMARK    8  A    between atoms: C_8  and  C_9
REMARK    9  A    between atoms: C_9  and  C_10
REMARK   10  A    between atoms: C_10  and  C_11
REMARK   11  A    between atoms: C_14  and  C_15
REMARK   12  A    between atoms: C_15  and  C_16
REMARK   13  A    between atoms: C_16  and  C_17
REMARK   14  A    between atoms: C_17  and  N_18
REMARK   15  A    between atoms: C_17  and  C_19
REMARK   16  A    between atoms: C_17  and  C_21
REMARK   17  A    between atoms: C_19  and  O_20
REMARK   18  A    between atoms: C_21  and  O_22
REMARK                            x       y       z     vdW  Elec       q    Type
REMARK                         _______ _______ _______ _____ _____    ______ ____
ROOT
ATOM      1  C   UNL     1       6.332   6.390  16.965  0.00  0.00    +0.000 A 
ATOM      2  C   UNL     1       5.172   7.029  17.424  0.00  0.00    +0.000 A 
ATOM      3  C   UNL     1       3.992   6.308  17.584  0.00  0.00    +0.000 A 
ATOM      4  C   UNL     1       3.954   4.938  17.279  0.00  0.00    +0.000 A 
ATOM      5  C   UNL     1       5.118   4.295  16.829  0.00  0.00    +0.000 A 
ATOM      6  C   UNL     1       6.300   5.018  16.672  0.00  0.00    +0.000 A 
ENDROOT
BRANCH   1   7
ATOM      7  C   UNL     1       7.596   7.172  16.782  0.00  0.00    +0.000 C 
BRANCH   7   8
ATOM      8  C   UNL     1       8.027   7.838  18.092  0.00  0.00    +0.000 C 
BRANCH   8   9
ATOM      9  C   UNL     1       8.102   9.342  17.879  0.00  0.00    +0.000 C 
BRANCH   9  10
ATOM     10  C   UNL     1       9.074  10.011  18.856  0.00  0.00    +0.000 C 
BRANCH  10  11
ATOM     11  C   UNL     1      10.115  10.865  18.120  0.00  0.00    +0.000 C 
BRANCH  11  12
ATOM     12  C   UNL     1      10.759  11.921  19.034  0.00  0.00    +0.000 C 
BRANCH  12  13
ATOM     13  C   UNL     1      10.326  11.732  20.484  0.00  0.00    +0.000 C 
BRANCH  13  14
ATOM     14  C   UNL     1       9.983  13.084  21.118  0.00  0.00    +0.000 C 
BRANCH  14  16
ATOM     15  C   UNL     1       8.277  11.653  22.298  0.00  0.00    +0.000 C 
ATOM     16  C   UNL     1       9.176  12.879  22.401  0.00  0.00    +0.000 C 
ENDBRANCH  14  16
ENDBRANCH  13  14
ENDBRANCH  12  13
ENDBRANCH  11  12
ENDBRANCH  10  11
ENDBRANCH   9  10
ENDBRANCH   8   9
ENDBRANCH   7   8
ENDBRANCH   1   7
BRANCH   4  17
ATOM     17  C   UNL     1       2.672   4.171  17.433  0.00  0.00    +0.000 C 
BRANCH  17  18
ATOM     18  C   UNL     1       2.375   3.928  18.927  0.00  0.00    +0.000 C 
BRANCH  18  19
ATOM     19  C   UNL     1       2.417   2.437  19.376  0.00  0.00    +0.000 C 
BRANCH  19  20
ATOM     20  N   UNL     1       1.410   1.654  18.644  0.00  0.00    +0.000 NA
ATOM     21  H   UNL     1       1.362   0.670  18.993  0.00  0.00    +0.000 HD
ATOM     22  H   UNL     1       1.631   1.640  17.621  0.00  0.00    +0.000 HD
ENDBRANCH  19  20
BRANCH  19  23
ATOM     23  C   UNL     1       3.817   1.807  19.139  0.00  0.00    +0.000 C 
BRANCH  23  24
ATOM     24  O   UNL     1       4.819   2.476  19.859  0.00  0.00    +0.000 OA
ATOM     25  H   UNL     1       5.692   2.178  19.491  0.00  0.00    +0.000 HD
ENDBRANCH  23  24
ENDBRANCH  19  23
BRANCH  19  26
ATOM     26  C   UNL     1       2.079   2.381  20.887  0.00  0.00    +0.000 C 
BRANCH  26  27
ATOM     27  O   UNL     1       0.824   2.949  21.155  0.00  0.00    +0.000 OA
ATOM     28  H   UNL     1       0.196   2.197  21.305  0.00  0.00    +0.000 HD
ENDBRANCH  26  27
ENDBRANCH  19  26
ENDBRANCH  18  19
ENDBRANCH  17  18
ENDBRANCH   4  17
TORSDOF 17
ENDMDL
MODEL 8
REMARK VINA RESULT:      -5.9      1.599      3.556
REMARK  Name = 
REMARK  18 active torsions:
REMARK  status: ('A' for Active; 'I' for Inactive)
REMARK    1  A    between atoms: C_1  and  C_2
REMARK    2  A    between atoms: C_2  and  C_3
REMARK    3  A    between atoms: C_3  and  C_4
REMARK    4  A    between atoms: C_4  and  C_5
REMARK    5  A    between atoms: C_5  and  C_6
REMARK    6  A    between atoms: C_6  and  C_7
REMARK    7  A    between atoms: C_7  and  C_8
REMARK    8  A    between atoms: C_8  and  C_9
REMARK    9  A    between atoms: C_9  and  C_10
REMARK   10  A    between atoms: C_10  and  C_11
REMARK   11  A    between atoms: C_14  and  C_15
REMARK   12  A    between atoms: C_15  and  C_16
REMARK   13  A    between atoms: C_16  and  C_17
REMARK   14  A    between atoms: C_17  and  N_18
REMARK   15  A    between atoms: C_17  and  C_19
REMARK   16  A    between atoms: C_17  and  C_21
REMARK   17  A    between atoms: C_19  and  O_20
REMARK   18  A    between atoms: C_21  and  O_22
REMARK                            x       y       z     vdW  Elec       q    Type
REMARK                         _______ _______ _______ _____ _____    ______ ____
ROOT
ATOM      1  C   UNL     1       2.328   7.159  19.637  0.00  0.00    +0.000 A 
ATOM      2  C   UNL     1       2.150   8.167  18.678  0.00  0.00    +0.000 A 
ATOM      3  C   UNL     1       1.352   9.271  18.963  0.00  0.00    +0.000 A 
ATOM      4  C   UNL     1       0.714   9.380  20.210  0.00  0.00    +0.000 A 
ATOM      5  C   UNL     1       0.902   8.377  21.174  0.00  0.00    +0.000 A 
ATOM      6  C   UNL     1       1.703   7.272  20.888  0.00  0.00    +0.000 A 
ENDROOT
BRANCH   1   7
ATOM      7  C   UNL     1       3.176   5.967  19.321  0.00  0.00    +0.000 C 
BRANCH   7   8
ATOM      8  C   UNL     1       3.589   5.958  17.846  0.00  0.00    +0.000 C 
BRANCH   8   9
ATOM      9  C   UNL     1       4.871   5.152  17.697  0.00  0.00    +0.000 C 
BRANCH   9  10
ATOM     10  C   UNL     1       4.603   3.645  17.716  0.00  0.00    +0.000 C 
BRANCH  10  11
ATOM     11  C   UNL     1       3.262   3.301  17.052  0.00  0.00    +0.000 C 
BRANCH  11  12
ATOM     12  C   UNL     1       2.346   2.478  17.973  0.00  0.00    +0.000 C 
BRANCH  12  13
ATOM     13  C   UNL     1       1.047   3.222  18.263  0.00  0.00    +0.000 C 
BRANCH  13  14
ATOM     14  C   UNL     1       0.796   3.288  19.773  0.00  0.00    +0.000 C 
BRANCH  14  16
ATOM     15  C   UNL     1       2.222   3.349  21.849  0.00  0.00    +0.000 C 
ATOM     16  C   UNL     1       1.950   2.632  20.532  0.00  0.00    +0.000 C 
ENDBRANCH  14  16
ENDBRANCH  13  14
ENDBRANCH  12  13
ENDBRANCH  11  12
ENDBRANCH  10  11
ENDBRANCH   9  10
ENDBRANCH   8   9
ENDBRANCH   7   8
ENDBRANCH   1   7
BRANCH   4  17
ATOM     17  C   UNL     1      -0.163  10.564  20.502  0.00  0.00    +0.000 C 
BRANCH  17  18
ATOM     18  C   UNL     1      -0.851  11.046  19.208  0.00  0.00    +0.000 C 
BRANCH  18  19
ATOM     19  C   UNL     1      -0.653  12.556  18.877  0.00  0.00    +0.000 C 
BRANCH  19  20
ATOM     20  N   UNL     1      -1.066  12.835  17.494  0.00  0.00    +0.000 NA
ATOM     21  H   UNL     1      -0.942  11.999  16.881  0.00  0.00    +0.000 HD
ATOM     22  H   UNL     1      -0.509  13.629  17.100  0.00  0.00    +0.000 HD
ENDBRANCH  19  20
BRANCH  19  23
ATOM     23  C   UNL     1      -1.465  13.465  19.841  0.00  0.00    +0.000 C 
BRANCH  23  24
ATOM     24  O   UNL     1      -2.838  13.174  19.799  0.00  0.00    +0.000 OA
ATOM     25  H   UNL     1      -3.179  13.503  18.927  0.00  0.00    +0.000 HD
ENDBRANCH  23  24
ENDBRANCH  19  23
BRANCH  19  26
ATOM     26  C   UNL     1       0.856  12.882  19.014  0.00  0.00    +0.000 C 
BRANCH  26  27
ATOM     27  O   UNL     1       1.530  12.722  17.794  0.00  0.00    +0.000 OA
ATOM     28  H   UNL     1       0.882  12.947  17.078  0.00  0.00    +0.000 HD
ENDBRANCH  26  27
ENDBRANCH  19  26
ENDBRANCH  18  19
ENDBRANCH  17  18
ENDBRANCH   4  17
TORSDOF 17
ENDMDL
MODEL 9
REMARK VINA RESULT:      -5.9      1.827      2.968
REMARK  Name = 
REMARK  18 active torsions:
REMARK  status: ('A' for Active; 'I' for Inactive)
REMARK    1  A    between atoms: C_1  and  C_2
REMARK    2  A    between atoms: C_2  and  C_3
REMARK    3  A    between atoms: C_3  and  C_4
REMARK    4  A    between atoms: C_4  and  C_5
REMARK    5  A    between atoms: C_5  and  C_6
REMARK    6  A    between atoms: C_6  and  C_7
REMARK    7  A    between atoms: C_7  and  C_8
REMARK    8  A    between atoms: C_8  and  C_9
REMARK    9  A    between atoms: C_9  and  C_10
REMARK   10  A    between atoms: C_10  and  C_11
REMARK   11  A    between atoms: C_14  and  C_15
REMARK   12  A    between atoms: C_15  and  C_16
REMARK   13  A    between atoms: C_16  and  C_17
REMARK   14  A    between atoms: C_17  and  N_18
REMARK   15  A    between atoms: C_17  and  C_19
REMARK   16  A    between atoms: C_17  and  C_21
REMARK   17  A    between atoms: C_19  and  O_20
REMARK   18  A    between atoms: C_21  and  O_22
REMARK                            x       y       z     vdW  Elec       q    Type
REMARK                         _______ _______ _______ _____ _____    ______ ____
ROOT
ATOM      1  C   UNL     1       1.488   4.225  19.305  0.00  0.00    +0.000 A 
ATOM      2  C   UNL     1       1.740   5.124  20.352  0.00  0.00    +0.000 A 
ATOM      3  C   UNL     1       2.093   6.442  20.074  0.00  0.00    +0.000 A 
ATOM      4  C   UNL     1       2.207   6.878  18.743  0.00  0.00    +0.000 A 
ATOM      5  C   UNL     1       1.944   5.981  17.695  0.00  0.00    +0.000 A 
ATOM      6  C   UNL     1       1.589   4.662  17.975  0.00  0.00    +0.000 A 
ENDROOT
BRANCH   1   7
ATOM      7  C   UNL     1       1.121   2.806  19.609  0.00  0.00    +0.000 C 
BRANCH   7   8
ATOM      8  C   UNL     1       2.265   2.082  20.325  0.00  0.00    +0.000 C 
BRANCH   8   9
ATOM      9  C   UNL     1       3.420   1.900  19.352  0.00  0.00    +0.000 C 
BRANCH   9  10
ATOM     10  C   UNL     1       4.602   2.813  19.690  0.00  0.00    +0.000 C 
BRANCH  10  11
ATOM     11  C   UNL     1       4.977   3.713  18.505  0.00  0.00    +0.000 C 
BRANCH  11  12
ATOM     12  C   UNL     1       5.456   5.104  18.953  0.00  0.00    +0.000 C 
BRANCH  12  13
ATOM     13  C   UNL     1       6.462   5.685  17.966  0.00  0.00    +0.000 C 
BRANCH  13  14
ATOM     14  C   UNL     1       5.872   6.911  17.261  0.00  0.00    +0.000 C 
BRANCH  14  16
ATOM     15  C   UNL     1       5.811   5.382  15.260  0.00  0.00    +0.000 C 
ATOM     16  C   UNL     1       5.086   6.484  16.021  0.00  0.00    +0.000 C 
ENDBRANCH  14  16
ENDBRANCH  13  14
ENDBRANCH  12  13
ENDBRANCH  11  12
ENDBRANCH  10  11
ENDBRANCH   9  10
ENDBRANCH   8   9
ENDBRANCH   7   8
ENDBRANCH   1   7
BRANCH   4  17
ATOM     17  C   UNL     1       2.610   8.294  18.451  0.00  0.00    +0.000 C 
BRANCH  17  18
ATOM     18  C   UNL     1       1.478   9.023  17.696  0.00  0.00    +0.000 C 
BRANCH  18  19
ATOM     19  C   UNL     1       0.790  10.175  18.488  0.00  0.00    +0.000 C 
BRANCH  19  20
ATOM     20  N   UNL     1       1.444  11.459  18.194  0.00  0.00    +0.000 NA
ATOM     21  H   UNL     1       2.118  11.726  18.946  0.00  0.00    +0.000 HD
ATOM     22  H   UNL     1       0.730  12.217  18.094  0.00  0.00    +0.000 HD
ENDBRANCH  19  20
BRANCH  19  23
ATOM     23  C   UNL     1      -0.720  10.286  18.142  0.00  0.00    +0.000 C 
BRANCH  23  24
ATOM     24  O   UNL     1      -1.285  11.470  18.641  0.00  0.00    +0.000 OA
ATOM     25  H   UNL     1      -1.085  11.501  19.613  0.00  0.00    +0.000 HD
ENDBRANCH  23  24
ENDBRANCH  19  23
BRANCH  19  26
ATOM     26  C   UNL     1       0.949   9.878  20.001  0.00  0.00    +0.000 C 
BRANCH  26  27
ATOM     27  O   UNL     1      -0.257   9.439  20.568  0.00  0.00    +0.000 OA
ATOM     28  H   UNL     1      -0.020   8.942  21.393  0.00  0.00    +0.000 HD
ENDBRANCH  26  27
ENDBRANCH  19  26
ENDBRANCH  18  19
ENDBRANCH  17  18
ENDBRANCH   4  17
TORSDOF 17
ENDMDL
