MODEL 1
REMARK VINA RESULT:      -8.3      0.000      0.000
REMARK  Name = 
REMARK  9 active torsions:
REMARK  status: ('A' for Active; 'I' for Inactive)
REMARK    1  A    between atoms: C_1  and  O_2
REMARK    2  A    between atoms: O_2  and  C_3
REMARK    3  A    between atoms: C_6  and  C_7
REMARK    4  A    between atoms: C_10  and  C_11
REMARK    5  A    between atoms: C_11  and  N_12
REMARK    6  A    between atoms: N_12  and  C_13
REMARK    7  A    between atoms: C_14  and  C_16
REMARK    8  A    between atoms: C_27  and  O_28
REMARK    9  A    between atoms: O_28  and  C_29
REMARK                            x       y       z     vdW  Elec       q    Type
REMARK                         _______ _______ _______ _____ _____    ______ ____
ROOT
ATOM      1  C   UNL     1       8.434   8.907  18.370  0.00  0.00    +0.000 A 
ATOM      2  N   UNL     1       8.657   7.747  19.010  0.00  0.00    +0.000 NA
ATOM      3  O   UNL     1       7.858   6.833  18.330  0.00  0.00    +0.000 OA
ATOM      4  C   UNL     1       7.225   7.531  17.348  0.00  0.00    +0.000 A 
ATOM      5  N   UNL     1       7.560   8.798  17.308  0.00  0.00    +0.000 NA
ENDROOT
BRANCH   1   9
ATOM      6  C   UNL     1      10.262  12.552  19.618  0.00  0.00    +0.000 A 
ATOM      7  C   UNL     1       9.886  11.582  20.560  0.00  0.00    +0.000 A 
ATOM      8  C   UNL     1       9.250  10.406  20.157  0.00  0.00    +0.000 A 
ATOM      9  C   UNL     1       8.941  10.197  18.813  0.00  0.00    +0.000 A 
ATOM     10  C   UNL     1       9.210  11.217  17.894  0.00  0.00    +0.000 A 
ATOM     11  C   UNL     1       9.874  12.393  18.277  0.00  0.00    +0.000 A 
BRANCH   6  13
ATOM     12  C   UNL     1      10.440  14.400  21.082  0.00  0.00    +0.000 C 
ATOM     13  O   UNL     1      10.982  13.654  19.993  0.00  0.00    +0.000 OA
ENDBRANCH   6  13
BRANCH  11  14
ATOM     14  O   UNL     1      10.084  13.229  17.214  0.00  0.00    +0.000 OA
ATOM     15  C   UNL     1      11.369  13.279  16.618  0.00  0.00    +0.000 C 
ENDBRANCH  11  14
ENDBRANCH   1   9
BRANCH   4  16
ATOM     16  C   UNL     1       6.237   6.768  16.535  0.00  0.00    +0.000 C 
BRANCH  16  17
ATOM     17  N   UNL     1       4.994   6.534  17.287  0.00  0.00    +0.000 N 
ATOM     18  C   UNL     1       4.078   7.657  17.413  0.00  0.00    +0.000 C 
ATOM     19  C   UNL     1       4.825   5.271  17.846  0.00  0.00    +0.000 C 
ATOM     20  O   UNL     1       5.751   4.461  17.867  0.00  0.00    +0.000 OA
BRANCH  19  21
ATOM     21  C   UNL     1       3.517   4.796  18.404  0.00  0.00    +0.000 A 
ATOM     22  C   UNL     1       2.529   4.129  17.642  0.00  0.00    +0.000 A 
ATOM     23  C   UNL     1       1.445   3.493  18.260  0.00  0.00    +0.000 A 
ATOM     24  C   UNL     1       1.439   3.458  19.634  0.00  0.00    +0.000 A 
ATOM     25  C   UNL     1       2.383   4.126  20.381  0.00  0.00    +0.000 A 
ATOM     26  C   UNL     1       3.397   4.847  19.801  0.00  0.00    +0.000 A 
ATOM     27  O   UNL     1       2.267   3.850  21.711  0.00  0.00    +0.000 OA
ATOM     28  C   UNL     1       1.422   2.686  21.623  0.00  0.00    +0.000 C 
ATOM     29  O   UNL     1       0.637   2.678  20.410  0.00  0.00    +0.000 OA
ENDBRANCH  19  21
ENDBRANCH  16  17
ENDBRANCH   4  16
TORSDOF 6
ENDMDL
MODEL 2
REMARK VINA RESULT:      -8.1      1.143      1.385
REMARK  Name = 
REMARK  9 active torsions:
REMARK  status: ('A' for Active; 'I' for Inactive)
REMARK    1  A    between atoms: C_1  and  O_2
REMARK    2  A    between atoms: O_2  and  C_3
REMARK    3  A    between atoms: C_6  and  C_7
REMARK    4  A    between atoms: C_10  and  C_11
REMARK    5  A    between atoms: C_11  and  N_12
REMARK    6  A    between atoms: N_12  and  C_13
REMARK    7  A    between atoms: C_14  and  C_16
REMARK    8  A    between atoms: C_27  and  O_28
REMARK    9  A    between atoms: O_28  and  C_29
REMARK                            x       y       z     vdW  Elec       q    Type
REMARK                         _______ _______ _______ _____ _____    ______ ____
ROOT
ATOM      1  C   UNL     1       8.520   8.958  18.214  0.00  0.00    +0.000 A 
ATOM      2  N   UNL     1       8.724   8.022  19.156  0.00  0.00    +0.000 NA
ATOM      3  O   UNL     1       8.106   6.888  18.638  0.00  0.00    +0.000 OA
ATOM      4  C   UNL     1       7.582   7.252  17.435  0.00  0.00    +0.000 A 
ATOM      5  N   UNL     1       7.828   8.499  17.112  0.00  0.00    +0.000 NA
ENDROOT
BRANCH   1   9
ATOM      6  C   UNL     1       9.719  13.048  18.362  0.00  0.00    +0.000 A 
ATOM      7  C   UNL     1      10.431  12.068  19.071  0.00  0.00    +0.000 A 
ATOM      8  C   UNL     1      10.016  10.735  19.057  0.00  0.00    +0.000 A 
ATOM      9  C   UNL     1       8.860  10.365  18.370  0.00  0.00    +0.000 A 
ATOM     10  C   UNL     1       8.088  11.362  17.765  0.00  0.00    +0.000 A 
ATOM     11  C   UNL     1       8.505  12.702  17.745  0.00  0.00    +0.000 A 
BRANCH   6  13
ATOM     12  C   UNL     1      11.558  14.514  18.612  0.00  0.00    +0.000 C 
ATOM     13  O   UNL     1      10.182  14.334  18.282  0.00  0.00    +0.000 OA
ENDBRANCH   6  13
BRANCH  11  14
ATOM     14  O   UNL     1       7.631  13.497  17.054  0.00  0.00    +0.000 OA
ATOM     15  C   UNL     1       6.760  14.353  17.773  0.00  0.00    +0.000 C 
ENDBRANCH  11  14
ENDBRANCH   1   9
BRANCH   4  16
ATOM     16  C   UNL     1       6.787   6.211  16.725  0.00  0.00    +0.000 C 
BRANCH  16  17
ATOM     17  N   UNL     1       5.441   6.081  17.304  0.00  0.00    +0.000 N 
ATOM     18  C   UNL     1       4.502   7.161  17.038  0.00  0.00    +0.000 C 
ATOM     19  C   UNL     1       5.197   4.958  18.089  0.00  0.00    +0.000 C 
ATOM     20  O   UNL     1       6.118   4.216  18.431  0.00  0.00    +0.000 OA
BRANCH  19  21
ATOM     21  C   UNL     1       3.822   4.549  18.523  0.00  0.00    +0.000 A 
ATOM     22  C   UNL     1       2.906   3.857  17.695  0.00  0.00    +0.000 A 
ATOM     23  C   UNL     1       1.741   3.287  18.224  0.00  0.00    +0.000 A 
ATOM     24  C   UNL     1       1.581   3.340  19.587  0.00  0.00    +0.000 A 
ATOM     25  C   UNL     1       2.454   4.033  20.395  0.00  0.00    +0.000 A 
ATOM     26  C   UNL     1       3.548   4.693  19.891  0.00  0.00    +0.000 A 
ATOM     27  O   UNL     1       2.181   3.847  21.718  0.00  0.00    +0.000 OA
ATOM     28  C   UNL     1       1.318   2.698  21.606  0.00  0.00    +0.000 C 
ATOM     29  O   UNL     1       0.674   2.630  20.314  0.00  0.00    +0.000 OA
ENDBRANCH  19  21
ENDBRANCH  16  17
ENDBRANCH   4  16
TORSDOF 6
ENDMDL
MODEL 3
REMARK VINA RESULT:      -8.0      1.263      1.506
REMARK  Name = 
REMARK  9 active torsions:
REMARK  status: ('A' for Active; 'I' for Inactive)
REMARK    1  A    between atoms: C_1  and  O_2
REMARK    2  A    between atoms: O_2  and  C_3
REMARK    3  A    between atoms: C_6  and  C_7
REMARK    4  A    between atoms: C_10  and  C_11
REMARK    5  A    between atoms: C_11  and  N_12
REMARK    6  A    between atoms: N_12  and  C_13
REMARK    7  A    between atoms: C_14  and  C_16
REMARK    8  A    between atoms: C_27  and  O_28
REMARK    9  A    between atoms: O_28  and  C_29
REMARK                            x       y       z     vdW  Elec       q    Type
REMARK                         _______ _______ _______ _____ _____    ______ ____
ROOT
ATOM      1  C   UNL     1       8.325   9.288  18.277  0.00  0.00    +0.000 A 
ATOM      2  N   UNL     1       7.455   9.306  17.253  0.00  0.00    +0.000 NA
ATOM      3  O   UNL     1       7.146   7.963  17.056  0.00  0.00    +0.000 OA
ATOM      4  C   UNL     1       7.866   7.264  17.977  0.00  0.00    +0.000 A 
ATOM      5  N   UNL     1       8.583   8.025  18.767  0.00  0.00    +0.000 NA
ENDROOT
BRANCH   1   9
ATOM      6  C   UNL     1      10.765  12.532  19.586  0.00  0.00    +0.000 A 
ATOM      7  C   UNL     1      10.333  11.551  20.492  0.00  0.00    +0.000 A 
ATOM      8  C   UNL     1       9.501  10.511  20.074  0.00  0.00    +0.000 A 
ATOM      9  C   UNL     1       9.051  10.456  18.755  0.00  0.00    +0.000 A 
ATOM     10  C   UNL     1       9.385  11.499  17.886  0.00  0.00    +0.000 A 
ATOM     11  C   UNL     1      10.244  12.537  18.281  0.00  0.00    +0.000 A 
BRANCH   6  13
ATOM     12  C   UNL     1      11.105  14.687  20.499  0.00  0.00    +0.000 C 
ATOM     13  O   UNL     1      11.667  13.490  19.963  0.00  0.00    +0.000 OA
ENDBRANCH   6  13
BRANCH  11  14
ATOM     14  O   UNL     1      10.481  13.419  17.261  0.00  0.00    +0.000 OA
ATOM     15  C   UNL     1      11.707  13.344  16.554  0.00  0.00    +0.000 C 
ENDBRANCH  11  14
ENDBRANCH   1   9
BRANCH   4  16
ATOM     16  C   UNL     1       7.762   5.780  17.899  0.00  0.00    +0.000 C 
BRANCH  16  17
ATOM     17  N   UNL     1       6.399   5.358  17.541  0.00  0.00    +0.000 N 
ATOM     18  C   UNL     1       6.028   5.449  16.137  0.00  0.00    +0.000 C 
ATOM     19  C   UNL     1       5.572   4.949  18.584  0.00  0.00    +0.000 C 
ATOM     20  O   UNL     1       5.906   5.114  19.756  0.00  0.00    +0.000 OA
BRANCH  19  21
ATOM     21  C   UNL     1       4.266   4.247  18.360  0.00  0.00    +0.000 A 
ATOM     22  C   UNL     1       4.143   3.001  17.702  0.00  0.00    +0.000 A 
ATOM     23  C   UNL     1       2.943   2.278  17.739  0.00  0.00    +0.000 A 
ATOM     24  C   UNL     1       1.933   2.782  18.523  0.00  0.00    +0.000 A 
ATOM     25  C   UNL     1       2.037   4.005  19.145  0.00  0.00    +0.000 A 
ATOM     26  C   UNL     1       3.162   4.785  19.038  0.00  0.00    +0.000 A 
ATOM     27  O   UNL     1       0.980   4.248  19.971  0.00  0.00    +0.000 OA
ATOM     28  C   UNL     1       0.454   2.909  20.056  0.00  0.00    +0.000 C 
ATOM     29  O   UNL     1       0.808   2.115  18.902  0.00  0.00    +0.000 OA
ENDBRANCH  19  21
ENDBRANCH  16  17
ENDBRANCH   4  16
TORSDOF 6
ENDMDL
MODEL 4
REMARK VINA RESULT:      -7.9      0.896      1.873
REMARK  Name = 
REMARK  9 active torsions:
REMARK  status: ('A' for Active; 'I' for Inactive)
REMARK    1  A    between atoms: C_1  and  O_2
REMARK    2  A    between atoms: O_2  and  C_3
REMARK    3  A    between atoms: C_6  and  C_7
REMARK    4  A    between atoms: C_10  and  C_11
REMARK    5  A    between atoms: C_11  and  N_12
REMARK    6  A    between atoms: N_12  and  C_13
REMARK    7  A    between atoms: C_14  and  C_16
REMARK    8  A    between atoms: C_27  and  O_28
REMARK    9  A    between atoms: O_28  and  C_29
REMARK                            x       y       z     vdW  Elec       q    Type
REMARK                         _______ _______ _______ _____ _____    ______ ____
ROOT
ATOM      1  C   UNL     1       8.576   8.859  18.424  0.00  0.00    +0.000 A 
ATOM      2  N   UNL     1       8.737   7.757  19.175  0.00  0.00    +0.000 NA
ATOM      3  O   UNL     1       7.956   6.800  18.534  0.00  0.00    +0.000 OA
ATOM      4  C   UNL     1       7.393   7.419  17.460  0.00  0.00    +0.000 A 
ATOM      5  N   UNL     1       7.758   8.672  17.328  0.00  0.00    +0.000 NA
ENDROOT
BRANCH   1   9
ATOM      6  C   UNL     1       9.723  12.840  19.434  0.00  0.00    +0.000 A 
ATOM      7  C   UNL     1       9.811  12.385  18.109  0.00  0.00    +0.000 A 
ATOM      8  C   UNL     1       9.475  11.070  17.783  0.00  0.00    +0.000 A 
ATOM      9  C   UNL     1       9.086  10.175  18.780  0.00  0.00    +0.000 A 
ATOM     10  C   UNL     1       9.114  10.598  20.112  0.00  0.00    +0.000 A 
ATOM     11  C   UNL     1       9.421  11.924  20.454  0.00  0.00    +0.000 A 
BRANCH   6  13
ATOM     12  C   UNL     1      10.717  14.888  18.790  0.00  0.00    +0.000 C 
ATOM     13  O   UNL     1       9.945  14.156  19.741  0.00  0.00    +0.000 OA
ENDBRANCH   6  13
BRANCH  11  14
ATOM     14  O   UNL     1       9.336  12.135  21.805  0.00  0.00    +0.000 OA
ATOM     15  C   UNL     1       8.290  11.518  22.536  0.00  0.00    +0.000 C 
ENDBRANCH  11  14
ENDBRANCH   1   9
BRANCH   4  16
ATOM     16  C   UNL     1       6.434   6.604  16.663  0.00  0.00    +0.000 C 
BRANCH  16  17
ATOM     17  N   UNL     1       5.156   6.439  17.373  0.00  0.00    +0.000 N 
ATOM     18  C   UNL     1       4.268   7.591  17.409  0.00  0.00    +0.000 C 
ATOM     19  C   UNL     1       4.928   5.208  17.982  0.00  0.00    +0.000 C 
ATOM     20  O   UNL     1       5.829   4.376  18.078  0.00  0.00    +0.000 OA
BRANCH  19  21
ATOM     21  C   UNL     1       3.586   4.795  18.506  0.00  0.00    +0.000 A 
ATOM     22  C   UNL     1       2.567   4.225  17.706  0.00  0.00    +0.000 A 
ATOM     23  C   UNL     1       1.437   3.634  18.286  0.00  0.00    +0.000 A 
ATOM     24  C   UNL     1       1.412   3.542  19.656  0.00  0.00    +0.000 A 
ATOM     25  C   UNL     1       2.387   4.116  20.441  0.00  0.00    +0.000 A 
ATOM     26  C   UNL     1       3.452   4.795  19.902  0.00  0.00    +0.000 A 
ATOM     27  O   UNL     1       2.237   3.793  21.757  0.00  0.00    +0.000 OA
ATOM     28  C   UNL     1       1.321   2.690  21.611  0.00  0.00    +0.000 C 
ATOM     29  O   UNL     1       0.553   2.784  20.391  0.00  0.00    +0.000 OA
ENDBRANCH  19  21
ENDBRANCH  16  17
ENDBRANCH   4  16
TORSDOF 6
ENDMDL
MODEL 5
REMARK VINA RESULT:      -7.8      1.400      2.266
REMARK  Name = 
REMARK  9 active torsions:
REMARK  status: ('A' for Active; 'I' for Inactive)
REMARK    1  A    between atoms: C_1  and  O_2
REMARK    2  A    between atoms: O_2  and  C_3
REMARK    3  A    between atoms: C_6  and  C_7
REMARK    4  A    between atoms: C_10  and  C_11
REMARK    5  A    between atoms: C_11  and  N_12
REMARK    6  A    between atoms: N_12  and  C_13
REMARK    7  A    between atoms: C_14  and  C_16
REMARK    8  A    between atoms: C_27  and  O_28
REMARK    9  A    between atoms: O_28  and  C_29
REMARK                            x       y       z     vdW  Elec       q    Type
REMARK                         _______ _______ _______ _____ _____    ______ ____
ROOT
ATOM      1  C   UNL     1       8.529   9.401  18.378  0.00  0.00    +0.000 A 
ATOM      2  N   UNL     1       7.685   9.563  17.345  0.00  0.00    +0.000 NA
ATOM      3  O   UNL     1       7.252   8.271  17.063  0.00  0.00    +0.000 OA
ATOM      4  C   UNL     1       7.882   7.452  17.950  0.00  0.00    +0.000 A 
ATOM      5  N   UNL     1       8.654   8.091  18.795  0.00  0.00    +0.000 NA
ENDROOT
BRANCH   1   9
ATOM      6  C   UNL     1      10.682  12.749  19.906  0.00  0.00    +0.000 A 
ATOM      7  C   UNL     1      10.932  12.269  18.611  0.00  0.00    +0.000 A 
ATOM      8  C   UNL     1      10.258  11.148  18.123  0.00  0.00    +0.000 A 
ATOM      9  C   UNL     1       9.355  10.462  18.935  0.00  0.00    +0.000 A 
ATOM     10  C   UNL     1       9.198  10.871  20.263  0.00  0.00    +0.000 A 
ATOM     11  C   UNL     1       9.845  12.013  20.760  0.00  0.00    +0.000 A 
BRANCH   6  13
ATOM     12  C   UNL     1      10.907  15.087  19.622  0.00  0.00    +0.000 C 
ATOM     13  O   UNL     1      11.258  13.910  20.349  0.00  0.00    +0.000 OA
ENDBRANCH   6  13
BRANCH  11  14
ATOM     14  O   UNL     1       9.509  12.263  22.064  0.00  0.00    +0.000 OA
ATOM     15  C   UNL     1       8.299  11.733  22.579  0.00  0.00    +0.000 C 
ENDBRANCH  11  14
ENDBRANCH   1   9
BRANCH   4  16
ATOM     16  C   UNL     1       7.637   5.992  17.782  0.00  0.00    +0.000 C 
BRANCH  16  17
ATOM     17  N   UNL     1       6.211   5.715  17.545  0.00  0.00    +0.000 N 
ATOM     18  C   UNL     1       5.648   6.183  16.288  0.00  0.00    +0.000 C 
ATOM     19  C   UNL     1       5.518   5.065  18.563  0.00  0.00    +0.000 C 
ATOM     20  O   UNL     1       6.028   4.906  19.671  0.00  0.00    +0.000 OA
BRANCH  19  21
ATOM     21  C   UNL     1       4.151   4.481  18.373  0.00  0.00    +0.000 A 
ATOM     22  C   UNL     1       3.873   3.382  17.525  0.00  0.00    +0.000 A 
ATOM     23  C   UNL     1       2.637   2.725  17.574  0.00  0.00    +0.000 A 
ATOM     24  C   UNL     1       1.752   3.126  18.546  0.00  0.00    +0.000 A 
ATOM     25  C   UNL     1       2.006   4.210  19.357  0.00  0.00    +0.000 A 
ATOM     26  C   UNL     1       3.165   4.940  19.259  0.00  0.00    +0.000 A 
ATOM     27  O   UNL     1       1.061   4.349  20.330  0.00  0.00    +0.000 OA
ATOM     28  C   UNL     1       0.455   3.045  20.239  0.00  0.00    +0.000 C 
ATOM     29  O   UNL     1       0.630   2.458  18.930  0.00  0.00    +0.000 OA
ENDBRANCH  19  21
ENDBRANCH  16  17
ENDBRANCH   4  16
TORSDOF 6
ENDMDL
MODEL 6
REMARK VINA RESULT:      -7.6      1.422      2.298
REMARK  Name = 
REMARK  9 active torsions:
REMARK  status: ('A' for Active; 'I' for Inactive)
REMARK    1  A    between atoms: C_1  and  O_2
REMARK    2  A    between atoms: O_2  and  C_3
REMARK    3  A    between atoms: C_6  and  C_7
REMARK    4  A    between atoms: C_10  and  C_11
REMARK    5  A    between atoms: C_11  and  N_12
REMARK    6  A    between atoms: N_12  and  C_13
REMARK    7  A    between atoms: C_14  and  C_16
REMARK    8  A    between atoms: C_27  and  O_28
REMARK    9  A    between atoms: O_28  and  C_29
REMARK                            x       y       z     vdW  Elec       q    Type
REMARK                         _______ _______ _______ _____ _____    ______ ____
ROOT
ATOM      1  C   UNL     1       8.481   9.219  18.198  0.00  0.00    +0.000 A 
ATOM      2  N   UNL     1       8.872   8.330  19.127  0.00  0.00    +0.000 NA
ATOM      3  O   UNL     1       8.306   7.132  18.699  0.00  0.00    +0.000 OA
ATOM      4  C   UNL     1       7.623   7.416  17.556  0.00  0.00    +0.000 A 
ATOM      5  N   UNL     1       7.718   8.671  17.188  0.00  0.00    +0.000 NA
ENDROOT
BRANCH   1   9
ATOM      6  C   UNL     1       8.828  13.442  18.676  0.00  0.00    +0.000 A 
ATOM      7  C   UNL     1       8.210  12.900  17.539  0.00  0.00    +0.000 A 
ATOM      8  C   UNL     1       8.132  11.518  17.360  0.00  0.00    +0.000 A 
ATOM      9  C   UNL     1       8.707  10.654  18.293  0.00  0.00    +0.000 A 
ATOM     10  C   UNL     1       9.425  11.199  19.362  0.00  0.00    +0.000 A 
ATOM     11  C   UNL     1       9.488  12.585  19.572  0.00  0.00    +0.000 A 
BRANCH   6  13
ATOM     12  C   UNL     1       7.775  15.516  18.249  0.00  0.00    +0.000 C 
ATOM     13  O   UNL     1       8.811  14.791  18.910  0.00  0.00    +0.000 OA
ENDBRANCH   6  13
BRANCH  11  14
ATOM     14  O   UNL     1      10.193  12.898  20.704  0.00  0.00    +0.000 OA
ATOM     15  C   UNL     1       9.491  13.130  21.913  0.00  0.00    +0.000 C 
ENDBRANCH  11  14
ENDBRANCH   1   9
BRANCH   4  16
ATOM     16  C   UNL     1       6.853   6.290  16.956  0.00  0.00    +0.000 C 
BRANCH  16  17
ATOM     17  N   UNL     1       5.582   6.076  17.666  0.00  0.00    +0.000 N 
ATOM     18  C   UNL     1       4.467   6.933  17.293  0.00  0.00    +0.000 C 
ATOM     19  C   UNL     1       5.571   5.100  18.658  0.00  0.00    +0.000 C 
ATOM     20  O   UNL     1       6.618   4.582  19.045  0.00  0.00    +0.000 OA
BRANCH  19  21
ATOM     21  C   UNL     1       4.308   4.583  19.277  0.00  0.00    +0.000 A 
ATOM     22  C   UNL     1       3.415   5.379  20.033  0.00  0.00    +0.000 A 
ATOM     23  C   UNL     1       2.140   4.911  20.374  0.00  0.00    +0.000 A 
ATOM     24  C   UNL     1       1.760   3.696  19.858  0.00  0.00    +0.000 A 
ATOM     25  C   UNL     1       2.631   2.905  19.144  0.00  0.00    +0.000 A 
ATOM     26  C   UNL     1       3.923   3.292  18.885  0.00  0.00    +0.000 A 
ATOM     27  O   UNL     1       2.011   1.810  18.619  0.00  0.00    +0.000 OA
ATOM     28  C   UNL     1       0.643   2.233  18.777  0.00  0.00    +0.000 C 
ATOM     29  O   UNL     1       0.494   3.192  19.848  0.00  0.00    +0.000 OA
ENDBRANCH  19  21
ENDBRANCH  16  17
ENDBRANCH   4  16
TORSDOF 6
ENDMDL
MODEL 7
REMARK VINA RESULT:      -7.6      6.418      9.727
REMARK  Name = 
REMARK  9 active torsions:
REMARK  status: ('A' for Active; 'I' for Inactive)
REMARK    1  A    between atoms: C_1  and  O_2
REMARK    2  A    between atoms: O_2  and  C_3
REMARK    3  A    between atoms: C_6  and  C_7
REMARK    4  A    between atoms: C_10  and  C_11
REMARK    5  A    between atoms: C_11  and  N_12
REMARK    6  A    between atoms: N_12  and  C_13
REMARK    7  A    between atoms: C_14  and  C_16
REMARK    8  A    between atoms: C_27  and  O_28
REMARK    9  A    between atoms: O_28  and  C_29
REMARK                            x       y       z     vdW  Elec       q    Type
REMARK                         _______ _______ _______ _____ _____    ______ ____
ROOT
ATOM      1  C   UNL     1      -0.973  10.738  18.842  0.00  0.00    +0.000 A 
ATOM      2  N   UNL     1      -0.061  11.692  19.096  0.00  0.00    +0.000 NA
ATOM      3  O   UNL     1       1.007  10.992  19.648  0.00  0.00    +0.000 OA
ATOM      4  C   UNL     1       0.634   9.682  19.680  0.00  0.00    +0.000 A 
ATOM      5  N   UNL     1      -0.556   9.466  19.175  0.00  0.00    +0.000 NA
ENDROOT
BRANCH   1   9
ATOM      6  C   UNL     1      -4.825  11.834  17.377  0.00  0.00    +0.000 A 
ATOM      7  C   UNL     1      -4.451  12.131  18.697  0.00  0.00    +0.000 A 
ATOM      8  C   UNL     1      -3.206  11.737  19.191  0.00  0.00    +0.000 A 
ATOM      9  C   UNL     1      -2.331  11.003  18.391  0.00  0.00    +0.000 A 
ATOM     10  C   UNL     1      -2.755  10.606  17.118  0.00  0.00    +0.000 A 
ATOM     11  C   UNL     1      -3.991  11.018  16.595  0.00  0.00    +0.000 A 
BRANCH   6  13
ATOM     12  C   UNL     1      -6.537  13.462  17.505  0.00  0.00    +0.000 C 
ATOM     13  O   UNL     1      -5.996  12.313  16.854  0.00  0.00    +0.000 OA
ENDBRANCH   6  13
BRANCH  11  14
ATOM     14  O   UNL     1      -4.180  10.564  15.318  0.00  0.00    +0.000 OA
ATOM     15  C   UNL     1      -3.057  10.164  14.552  0.00  0.00    +0.000 C 
ENDBRANCH  11  14
ENDBRANCH   1   9
BRANCH   4  16
ATOM     16  C   UNL     1       1.597   8.742  20.320  0.00  0.00    +0.000 C 
BRANCH  16  17
ATOM     17  N   UNL     1       2.163   7.807  19.335  0.00  0.00    +0.000 N 
ATOM     18  C   UNL     1       2.535   8.359  18.041  0.00  0.00    +0.000 C 
ATOM     19  C   UNL     1       2.255   6.471  19.714  0.00  0.00    +0.000 C 
ATOM     20  O   UNL     1       1.715   6.070  20.744  0.00  0.00    +0.000 OA
BRANCH  19  21
ATOM     21  C   UNL     1       3.043   5.457  18.941  0.00  0.00    +0.000 A 
ATOM     22  C   UNL     1       2.510   4.682  17.884  0.00  0.00    +0.000 A 
ATOM     23  C   UNL     1       3.345   3.938  17.040  0.00  0.00    +0.000 A 
ATOM     24  C   UNL     1       4.700   4.075  17.220  0.00  0.00    +0.000 A 
ATOM     25  C   UNL     1       5.225   4.807  18.261  0.00  0.00    +0.000 A 
ATOM     26  C   UNL     1       4.427   5.461  19.168  0.00  0.00    +0.000 A 
ATOM     27  O   UNL     1       6.580   4.917  18.174  0.00  0.00    +0.000 OA
ATOM     28  C   UNL     1       6.748   4.507  16.803  0.00  0.00    +0.000 C 
ATOM     29  O   UNL     1       5.667   3.659  16.357  0.00  0.00    +0.000 OA
ENDBRANCH  19  21
ENDBRANCH  16  17
ENDBRANCH   4  16
TORSDOF 6
ENDMDL
MODEL 8
REMARK VINA RESULT:      -7.6      1.556      2.488
REMARK  Name = 
REMARK  9 active torsions:
REMARK  status: ('A' for Active; 'I' for Inactive)
REMARK    1  A    between atoms: C_1  and  O_2
REMARK    2  A    between atoms: O_2  and  C_3
REMARK    3  A    between atoms: C_6  and  C_7
REMARK    4  A    between atoms: C_10  and  C_11
REMARK    5  A    between atoms: C_11  and  N_12
REMARK    6  A    between atoms: N_12  and  C_13
REMARK    7  A    between atoms: C_14  and  C_16
REMARK    8  A    between atoms: C_27  and  O_28
REMARK    9  A    between atoms: O_28  and  C_29
REMARK                            x       y       z     vdW  Elec       q    Type
REMARK                         _______ _______ _______ _____ _____    ______ ____
ROOT
ATOM      1  C   UNL     1       8.468   9.542  18.293  0.00  0.00    +0.000 A 
ATOM      2  N   UNL     1       7.426   9.827  17.493  0.00  0.00    +0.000 NA
ATOM      3  O   UNL     1       6.957   8.578  17.100  0.00  0.00    +0.000 OA
ATOM      4  C   UNL     1       7.765   7.658  17.696  0.00  0.00    +0.000 A 
ATOM      5  N   UNL     1       8.689   8.190  18.458  0.00  0.00    +0.000 NA
ENDROOT
BRANCH   1   9
ATOM      6  C   UNL     1      10.890  12.716  19.790  0.00  0.00    +0.000 A 
ATOM      7  C   UNL     1      11.063  12.241  18.481  0.00  0.00    +0.000 A 
ATOM      8  C   UNL     1      10.299  11.175  18.002  0.00  0.00    +0.000 A 
ATOM      9  C   UNL     1       9.380  10.537  18.836  0.00  0.00    +0.000 A 
ATOM     10  C   UNL     1       9.296  10.935  20.174  0.00  0.00    +0.000 A 
ATOM     11  C   UNL     1      10.035  12.023  20.663  0.00  0.00    +0.000 A 
BRANCH   6  13
ATOM     12  C   UNL     1      11.822  14.818  19.234  0.00  0.00    +0.000 C 
ATOM     13  O   UNL     1      11.556  13.829  20.228  0.00  0.00    +0.000 OA
ENDBRANCH   6  13
BRANCH  11  14
ATOM     14  O   UNL     1       9.760  12.275  21.980  0.00  0.00    +0.000 OA
ATOM     15  C   UNL     1       8.585  12.992  22.317  0.00  0.00    +0.000 C 
ENDBRANCH  11  14
ENDBRANCH   1   9
BRANCH   4  16
ATOM     16  C   UNL     1       7.504   6.233  17.346  0.00  0.00    +0.000 C 
BRANCH  16  17
ATOM     17  N   UNL     1       6.575   5.611  18.302  0.00  0.00    +0.000 N 
ATOM     18  C   UNL     1       7.081   5.354  19.642  0.00  0.00    +0.000 C 
ATOM     19  C   UNL     1       5.307   5.287  17.829  0.00  0.00    +0.000 C 
ATOM     20  O   UNL     1       5.049   5.345  16.627  0.00  0.00    +0.000 OA
BRANCH  19  21
ATOM     21  C   UNL     1       4.174   4.902  18.732  0.00  0.00    +0.000 A 
ATOM     22  C   UNL     1       3.372   5.832  19.433  0.00  0.00    +0.000 A 
ATOM     23  C   UNL     1       2.184   5.436  20.060  0.00  0.00    +0.000 A 
ATOM     24  C   UNL     1       1.782   4.135  19.876  0.00  0.00    +0.000 A 
ATOM     25  C   UNL     1       2.570   3.218  19.216  0.00  0.00    +0.000 A 
ATOM     26  C   UNL     1       3.790   3.553  18.684  0.00  0.00    +0.000 A 
ATOM     27  O   UNL     1       1.925   2.030  19.036  0.00  0.00    +0.000 OA
ATOM     28  C   UNL     1       0.579   2.464  19.313  0.00  0.00    +0.000 C 
ATOM     29  O   UNL     1       0.553   3.628  20.168  0.00  0.00    +0.000 OA
ENDBRANCH  19  21
ENDBRANCH  16  17
ENDBRANCH   4  16
TORSDOF 6
ENDMDL
MODEL 9
REMARK VINA RESULT:      -7.5      1.349      2.379
REMARK  Name = 
REMARK  9 active torsions:
REMARK  status: ('A' for Active; 'I' for Inactive)
REMARK    1  A    between atoms: C_1  and  O_2
REMARK    2  A    between atoms: O_2  and  C_3
REMARK    3  A    between atoms: C_6  and  C_7
REMARK    4  A    between atoms: C_10  and  C_11
REMARK    5  A    between atoms: C_11  and  N_12
REMARK    6  A    between atoms: N_12  and  C_13
REMARK    7  A    between atoms: C_14  and  C_16
REMARK    8  A    between atoms: C_27  and  O_28
REMARK    9  A    between atoms: O_28  and  C_29
REMARK                            x       y       z     vdW  Elec       q    Type
REMARK                         _______ _______ _______ _____ _____    ______ ____
ROOT
ATOM      1  C   UNL     1       8.486   9.033  18.339  0.00  0.00    +0.000 A 
ATOM      2  N   UNL     1       8.698   7.905  19.038  0.00  0.00    +0.000 NA
ATOM      3  O   UNL     1       7.912   6.958  18.390  0.00  0.00    +0.000 OA
ATOM      4  C   UNL     1       7.295   7.607  17.364  0.00  0.00    +0.000 A 
ATOM      5  N   UNL     1       7.630   8.872  17.269  0.00  0.00    +0.000 NA
ENDROOT
BRANCH   1   9
ATOM      6  C   UNL     1       9.590  12.975  19.531  0.00  0.00    +0.000 A 
ATOM      7  C   UNL     1       9.429  12.657  18.174  0.00  0.00    +0.000 A 
ATOM      8  C   UNL     1       9.108  11.358  17.778  0.00  0.00    +0.000 A 
ATOM      9  C   UNL     1       8.983  10.344  18.729  0.00  0.00    +0.000 A 
ATOM     10  C   UNL     1       9.261  10.638  20.067  0.00  0.00    +0.000 A 
ATOM     11  C   UNL     1       9.557  11.945  20.485  0.00  0.00    +0.000 A 
BRANCH   6  13
ATOM     12  C   UNL     1      11.158  14.692  19.962  0.00  0.00    +0.000 C 
ATOM     13  O   UNL     1       9.796  14.268  19.931  0.00  0.00    +0.000 OA
ENDBRANCH   6  13
BRANCH  11  14
ATOM     14  O   UNL     1       9.739  12.018  21.840  0.00  0.00    +0.000 OA
ATOM     15  C   UNL     1       8.618  12.248  22.677  0.00  0.00    +0.000 C 
ENDBRANCH  11  14
ENDBRANCH   1   9
BRANCH   4  16
ATOM     16  C   UNL     1       6.322   6.805  16.571  0.00  0.00    +0.000 C 
BRANCH  16  17
ATOM     17  N   UNL     1       5.417   6.047  17.448  0.00  0.00    +0.000 N 
ATOM     18  C   UNL     1       4.375   6.801  18.129  0.00  0.00    +0.000 C 
ATOM     19  C   UNL     1       5.662   4.683  17.581  0.00  0.00    +0.000 C 
ATOM     20  O   UNL     1       6.694   4.182  17.137  0.00  0.00    +0.000 OA
BRANCH  19  21
ATOM     21  C   UNL     1       4.685   3.738  18.214  0.00  0.00    +0.000 A 
ATOM     22  C   UNL     1       4.827   3.214  19.520  0.00  0.00    +0.000 A 
ATOM     23  C   UNL     1       3.772   2.540  20.148  0.00  0.00    +0.000 A 
ATOM     24  C   UNL     1       2.570   2.501  19.483  0.00  0.00    +0.000 A 
ATOM     25  C   UNL     1       2.432   2.986  18.202  0.00  0.00    +0.000 A 
ATOM     26  C   UNL     1       3.479   3.557  17.521  0.00  0.00    +0.000 A 
ATOM     27  O   UNL     1       1.133   2.966  17.787  0.00  0.00    +0.000 OA
ATOM     28  C   UNL     1       0.495   2.779  19.066  0.00  0.00    +0.000 C 
ATOM     29  O   UNL     1       1.371   2.137  20.018  0.00  0.00    +0.000 OA
ENDBRANCH  19  21
ENDBRANCH  16  17
ENDBRANCH   4  16
TORSDOF 6
ENDMDL
