MODEL 1
REMARK VINA RESULT:      -8.3      0.000      0.000
REMARK  Name = 
REMARK  7 active torsions:
REMARK  status: ('A' for Active; 'I' for Inactive)
REMARK    1  A    between atoms: C_1  and  C_2
REMARK    2  A    between atoms: C_2  and  S_3
REMARK    3  A    between atoms: S_3  and  C_4
REMARK    4  A    between atoms: C_6  and  C_7
REMARK    5  A    between atoms: C_14  and  C_15
REMARK    6  A    between atoms: C_18  and  S_19
REMARK    7  A    between atoms: S_19  and  C_20
REMARK                            x       y       z     vdW  Elec       q    Type
REMARK                         _______ _______ _______ _____ _____    ______ ____
ROOT
ATOM      1  C   UNL     1       4.951   5.441  16.619  0.00  0.00    +0.000 A 
ATOM      2  N   UNL     1       4.506   4.448  17.344  0.00  0.00    +0.000 NA
ATOM      3  C   UNL     1       3.514   4.999  18.136  0.00  0.00    +0.000 A 
ATOM      4  C   UNL     1       3.373   6.365  17.887  0.00  0.00    +0.000 A 
ATOM      5  N   UNL     1       4.294   6.600  16.888  0.00  0.00    +0.000 N 
ATOM      6  H   UNL     1       4.502   7.486  16.453  0.00  0.00    +0.000 HD
ENDROOT
BRANCH   3   7
ATOM      7  C   UNL     1       2.802   4.208  19.133  0.00  0.00    +0.000 A 
ATOM      8  C   UNL     1       3.509   3.676  20.222  0.00  0.00    +0.000 A 
ATOM      9  C   UNL     1       2.837   3.002  21.246  0.00  0.00    +0.000 A 
ATOM     10  C   UNL     1       1.458   2.858  21.180  0.00  0.00    +0.000 A 
ATOM     11  F   UNL     1       0.808   2.245  22.179  0.00  0.00    +0.000 F 
ATOM     12  C   UNL     1       0.741   3.342  20.094  0.00  0.00    +0.000 A 
ATOM     13  C   UNL     1       1.416   3.994  19.059  0.00  0.00    +0.000 A 
ENDBRANCH   3   7
BRANCH   4  14
ATOM     14  C   UNL     1       2.572   7.442  18.475  0.00  0.00    +0.000 A 
ATOM     15  C   UNL     1       2.175   8.544  17.702  0.00  0.00    +0.000 A 
ATOM     16  C   UNL     1       1.445   9.594  18.262  0.00  0.00    +0.000 A 
ATOM     17  C   UNL     1       1.053   9.515  19.595  0.00  0.00    +0.000 A 
ATOM     18  C   UNL     1       1.423   8.425  20.385  0.00  0.00    +0.000 A 
ATOM     19  C   UNL     1       2.183   7.393  19.824  0.00  0.00    +0.000 A 
BRANCH  17  20
ATOM     20  S   UNL     1       0.070  10.822  20.289  0.00  0.00    +0.000 S 
ATOM     21  C   UNL     1      -0.167  10.275  21.961  0.00  0.00    +0.000 C 
ATOM     22  O   UNL     1       0.890  12.020  20.314  0.00  0.00    +0.000 OA
ATOM     23  O   UNL     1      -1.214  10.809  19.617  0.00  0.00    +0.000 OA
ENDBRANCH  17  20
ENDBRANCH   4  14
BRANCH   1  24
ATOM     24  S   UNL     1       6.233   5.449  15.469  0.00  0.00    +0.000 S 
BRANCH  24  26
ATOM     25  C   UNL     1       6.114   3.781  13.311  0.00  0.00    +0.000 C 
ATOM     26  C   UNL     1       6.150   3.753  14.831  0.00  0.00    +0.000 C 
ENDBRANCH  24  26
ENDBRANCH   1  24
TORSDOF 5
ENDMDL
MODEL 2
REMARK VINA RESULT:      -8.3      0.739      1.301
REMARK  Name = 
REMARK  7 active torsions:
REMARK  status: ('A' for Active; 'I' for Inactive)
REMARK    1  A    between atoms: C_1  and  C_2
REMARK    2  A    between atoms: C_2  and  S_3
REMARK    3  A    between atoms: S_3  and  C_4
REMARK    4  A    between atoms: C_6  and  C_7
REMARK    5  A    between atoms: C_14  and  C_15
REMARK    6  A    between atoms: C_18  and  S_19
REMARK    7  A    between atoms: S_19  and  C_20
REMARK                            x       y       z     vdW  Elec       q    Type
REMARK                         _______ _______ _______ _____ _____    ______ ____
ROOT
ATOM      1  C   UNL     1       4.968   5.388  16.757  0.00  0.00    +0.000 A 
ATOM      2  N   UNL     1       4.515   4.396  17.478  0.00  0.00    +0.000 NA
ATOM      3  C   UNL     1       3.503   4.945  18.247  0.00  0.00    +0.000 A 
ATOM      4  C   UNL     1       3.360   6.309  17.988  0.00  0.00    +0.000 A 
ATOM      5  N   UNL     1       4.300   6.544  17.007  0.00  0.00    +0.000 N 
ATOM      6  H   UNL     1       4.512   7.430  16.574  0.00  0.00    +0.000 HD
ENDROOT
BRANCH   3   7
ATOM      7  C   UNL     1       2.776   4.154  19.232  0.00  0.00    +0.000 A 
ATOM      8  C   UNL     1       3.479   3.552  20.286  0.00  0.00    +0.000 A 
ATOM      9  C   UNL     1       2.797   2.876  21.302  0.00  0.00    +0.000 A 
ATOM     10  C   UNL     1       1.411   2.799  21.262  0.00  0.00    +0.000 A 
ATOM     11  F   UNL     1       0.755   2.183  22.255  0.00  0.00    +0.000 F 
ATOM     12  C   UNL     1       0.696   3.353  20.210  0.00  0.00    +0.000 A 
ATOM     13  C   UNL     1       1.380   4.009  19.183  0.00  0.00    +0.000 A 
ENDBRANCH   3   7
BRANCH   4  14
ATOM     14  C   UNL     1       2.541   7.384  18.555  0.00  0.00    +0.000 A 
ATOM     15  C   UNL     1       2.208   7.389  19.918  0.00  0.00    +0.000 A 
ATOM     16  C   UNL     1       1.396   8.386  20.460  0.00  0.00    +0.000 A 
ATOM     17  C   UNL     1       0.961   9.427  19.645  0.00  0.00    +0.000 A 
ATOM     18  C   UNL     1       1.286   9.455  18.287  0.00  0.00    +0.000 A 
ATOM     19  C   UNL     1       2.073   8.432  17.746  0.00  0.00    +0.000 A 
BRANCH  17  20
ATOM     20  S   UNL     1      -0.019  10.731  20.350  0.00  0.00    +0.000 S 
ATOM     21  C   UNL     1       1.123  12.089  20.388  0.00  0.00    +0.000 C 
ATOM     22  O   UNL     1      -1.072  11.047  19.402  0.00  0.00    +0.000 OA
ATOM     23  O   UNL     1      -0.330  10.356  21.715  0.00  0.00    +0.000 OA
ENDBRANCH  17  20
ENDBRANCH   4  14
BRANCH   1  24
ATOM     24  S   UNL     1       6.274   5.399  15.635  0.00  0.00    +0.000 S 
BRANCH  24  26
ATOM     25  C   UNL     1       5.739   3.802  13.484  0.00  0.00    +0.000 C 
ATOM     26  C   UNL     1       6.163   3.725  14.942  0.00  0.00    +0.000 C 
ENDBRANCH  24  26
ENDBRANCH   1  24
TORSDOF 5
ENDMDL
MODEL 3
REMARK VINA RESULT:      -8.3      0.915      1.385
REMARK  Name = 
REMARK  7 active torsions:
REMARK  status: ('A' for Active; 'I' for Inactive)
REMARK    1  A    between atoms: C_1  and  C_2
REMARK    2  A    between atoms: C_2  and  S_3
REMARK    3  A    between atoms: S_3  and  C_4
REMARK    4  A    between atoms: C_6  and  C_7
REMARK    5  A    between atoms: C_14  and  C_15
REMARK    6  A    between atoms: C_18  and  S_19
REMARK    7  A    between atoms: S_19  and  C_20
REMARK                            x       y       z     vdW  Elec       q    Type
REMARK                         _______ _______ _______ _____ _____    ______ ____
ROOT
ATOM      1  C   UNL     1       5.096   4.836  16.594  0.00  0.00    +0.000 A 
ATOM      2  N   UNL     1       4.581   3.917  17.369  0.00  0.00    +0.000 NA
ATOM      3  C   UNL     1       3.623   4.577  18.119  0.00  0.00    +0.000 A 
ATOM      4  C   UNL     1       3.576   5.933  17.793  0.00  0.00    +0.000 A 
ATOM      5  N   UNL     1       4.517   6.050  16.792  0.00  0.00    +0.000 N 
ATOM      6  H   UNL     1       4.787   6.895  16.311  0.00  0.00    +0.000 HD
ENDROOT
BRANCH   3   7
ATOM      7  C   UNL     1       2.854   3.892  19.150  0.00  0.00    +0.000 A 
ATOM      8  C   UNL     1       3.520   3.353  20.262  0.00  0.00    +0.000 A 
ATOM      9  C   UNL     1       2.800   2.783  21.316  0.00  0.00    +0.000 A 
ATOM     10  C   UNL     1       1.413   2.749  21.257  0.00  0.00    +0.000 A 
ATOM     11  F   UNL     1       0.720   2.237  22.283  0.00  0.00    +0.000 F 
ATOM     12  C   UNL     1       0.733   3.242  20.152  0.00  0.00    +0.000 A 
ATOM     13  C   UNL     1       1.455   3.790  19.088  0.00  0.00    +0.000 A 
ENDBRANCH   3   7
BRANCH   4  14
ATOM     14  C   UNL     1       2.846   7.092  18.312  0.00  0.00    +0.000 A 
ATOM     15  C   UNL     1       2.395   7.119  19.641  0.00  0.00    +0.000 A 
ATOM     16  C   UNL     1       1.664   8.201  20.134  0.00  0.00    +0.000 A 
ATOM     17  C   UNL     1       1.433   9.299  19.311  0.00  0.00    +0.000 A 
ATOM     18  C   UNL     1       1.880   9.305  17.988  0.00  0.00    +0.000 A 
ATOM     19  C   UNL     1       2.582   8.201  17.492  0.00  0.00    +0.000 A 
BRANCH  17  20
ATOM     20  S   UNL     1       0.558  10.702  19.960  0.00  0.00    +0.000 S 
ATOM     21  C   UNL     1      -1.051  10.519  19.232  0.00  0.00    +0.000 C 
ATOM     22  O   UNL     1       0.434  10.514  21.394  0.00  0.00    +0.000 OA
ATOM     23  O   UNL     1       1.175  11.894  19.413  0.00  0.00    +0.000 OA
ENDBRANCH  17  20
ENDBRANCH   4  14
BRANCH   1  24
ATOM     24  S   UNL     1       6.383   4.695  15.459  0.00  0.00    +0.000 S 
BRANCH  24  26
ATOM     25  C   UNL     1       6.491   3.852  12.863  0.00  0.00    +0.000 C 
ATOM     26  C   UNL     1       5.515   4.016  14.017  0.00  0.00    +0.000 C 
ENDBRANCH  24  26
ENDBRANCH   1  24
TORSDOF 5
ENDMDL
MODEL 4
REMARK VINA RESULT:      -8.3      1.073      1.449
REMARK  Name = 
REMARK  7 active torsions:
REMARK  status: ('A' for Active; 'I' for Inactive)
REMARK    1  A    between atoms: C_1  and  C_2
REMARK    2  A    between atoms: C_2  and  S_3
REMARK    3  A    between atoms: S_3  and  C_4
REMARK    4  A    between atoms: C_6  and  C_7
REMARK    5  A    between atoms: C_14  and  C_15
REMARK    6  A    between atoms: C_18  and  S_19
REMARK    7  A    between atoms: S_19  and  C_20
REMARK                            x       y       z     vdW  Elec       q    Type
REMARK                         _______ _______ _______ _____ _____    ______ ____
ROOT
ATOM      1  C   UNL     1       4.750   5.216  16.639  0.00  0.00    +0.000 A 
ATOM      2  N   UNL     1       4.300   4.242  17.386  0.00  0.00    +0.000 NA
ATOM      3  C   UNL     1       3.367   4.832  18.221  0.00  0.00    +0.000 A 
ATOM      4  C   UNL     1       3.271   6.203  17.976  0.00  0.00    +0.000 A 
ATOM      5  N   UNL     1       4.154   6.400  16.936  0.00  0.00    +0.000 N 
ATOM      6  H   UNL     1       4.377   7.278  16.490  0.00  0.00    +0.000 HD
ENDROOT
BRANCH   3   7
ATOM      7  C   UNL     1       2.671   4.071  19.251  0.00  0.00    +0.000 A 
ATOM      8  C   UNL     1       3.399   3.542  20.328  0.00  0.00    +0.000 A 
ATOM      9  C   UNL     1       2.745   2.898  21.381  0.00  0.00    +0.000 A 
ATOM     10  C   UNL     1       1.362   2.779  21.358  0.00  0.00    +0.000 A 
ATOM     11  F   UNL     1       0.731   2.195  22.385  0.00  0.00    +0.000 F 
ATOM     12  C   UNL     1       0.622   3.260  20.286  0.00  0.00    +0.000 A 
ATOM     13  C   UNL     1       1.279   3.883  19.221  0.00  0.00    +0.000 A 
ENDBRANCH   3   7
BRANCH   4  14
ATOM     14  C   UNL     1       2.541   7.311  18.598  0.00  0.00    +0.000 A 
ATOM     15  C   UNL     1       2.171   8.437  17.846  0.00  0.00    +0.000 A 
ATOM     16  C   UNL     1       1.511   9.515  18.437  0.00  0.00    +0.000 A 
ATOM     17  C   UNL     1       1.161   9.445  19.782  0.00  0.00    +0.000 A 
ATOM     18  C   UNL     1       1.506   8.332  20.552  0.00  0.00    +0.000 A 
ATOM     19  C   UNL     1       2.197   7.271  19.959  0.00  0.00    +0.000 A 
BRANCH  17  20
ATOM     20  S   UNL     1       0.264  10.791  20.518  0.00  0.00    +0.000 S 
ATOM     21  C   UNL     1       1.101  12.212  19.860  0.00  0.00    +0.000 C 
ATOM     22  O   UNL     1      -1.083  10.765  19.977  0.00  0.00    +0.000 OA
ATOM     23  O   UNL     1       0.497  10.743  21.947  0.00  0.00    +0.000 OA
ENDBRANCH  17  20
ENDBRANCH   4  14
BRANCH   1  24
ATOM     24  S   UNL     1       5.978   5.172  15.433  0.00  0.00    +0.000 S 
BRANCH  24  26
ATOM     25  C   UNL     1       7.491   5.199  17.706  0.00  0.00    +0.000 C 
ATOM     26  C   UNL     1       7.373   4.486  16.368  0.00  0.00    +0.000 C 
ENDBRANCH  24  26
ENDBRANCH   1  24
TORSDOF 5
ENDMDL
MODEL 5
REMARK VINA RESULT:      -8.2      1.085      1.760
REMARK  Name = 
REMARK  7 active torsions:
REMARK  status: ('A' for Active; 'I' for Inactive)
REMARK    1  A    between atoms: C_1  and  C_2
REMARK    2  A    between atoms: C_2  and  S_3
REMARK    3  A    between atoms: S_3  and  C_4
REMARK    4  A    between atoms: C_6  and  C_7
REMARK    5  A    between atoms: C_14  and  C_15
REMARK    6  A    between atoms: C_18  and  S_19
REMARK    7  A    between atoms: S_19  and  C_20
REMARK                            x       y       z     vdW  Elec       q    Type
REMARK                         _______ _______ _______ _____ _____    ______ ____
ROOT
ATOM      1  C   UNL     1       4.684   5.288  16.661  0.00  0.00    +0.000 A 
ATOM      2  N   UNL     1       4.247   4.301  17.401  0.00  0.00    +0.000 NA
ATOM      3  C   UNL     1       3.323   4.876  18.255  0.00  0.00    +0.000 A 
ATOM      4  C   UNL     1       3.216   6.249  18.029  0.00  0.00    +0.000 A 
ATOM      5  N   UNL     1       4.085   6.465  16.981  0.00  0.00    +0.000 N 
ATOM      6  H   UNL     1       4.298   7.349  16.545  0.00  0.00    +0.000 HD
ENDROOT
BRANCH   3   7
ATOM      7  C   UNL     1       2.643   4.097  19.283  0.00  0.00    +0.000 A 
ATOM      8  C   UNL     1       3.380   3.593  20.366  0.00  0.00    +0.000 A 
ATOM      9  C   UNL     1       2.740   2.933  21.418  0.00  0.00    +0.000 A 
ATOM     10  C   UNL     1       1.361   2.773  21.386  0.00  0.00    +0.000 A 
ATOM     11  F   UNL     1       0.741   2.173  22.412  0.00  0.00    +0.000 F 
ATOM     12  C   UNL     1       0.614   3.229  20.309  0.00  0.00    +0.000 A 
ATOM     13  C   UNL     1       1.258   3.868  19.246  0.00  0.00    +0.000 A 
ENDBRANCH   3   7
BRANCH   4  14
ATOM     14  C   UNL     1       2.489   7.345  18.675  0.00  0.00    +0.000 A 
ATOM     15  C   UNL     1       2.165   7.285  20.039  0.00  0.00    +0.000 A 
ATOM     16  C   UNL     1       1.440   8.306  20.655  0.00  0.00    +0.000 A 
ATOM     17  C   UNL     1       1.083   9.430  19.915  0.00  0.00    +0.000 A 
ATOM     18  C   UNL     1       1.402   9.523  18.559  0.00  0.00    +0.000 A 
ATOM     19  C   UNL     1       2.101   8.479  17.943  0.00  0.00    +0.000 A 
BRANCH  17  20
ATOM     20  S   UNL     1       0.215  10.757  20.717  0.00  0.00    +0.000 S 
ATOM     21  C   UNL     1      -0.771  11.420  19.396  0.00  0.00    +0.000 C 
ATOM     22  O   UNL     1      -0.677  10.166  21.698  0.00  0.00    +0.000 OA
ATOM     23  O   UNL     1       1.195  11.753  21.101  0.00  0.00    +0.000 OA
ENDBRANCH  17  20
ENDBRANCH   4  14
BRANCH   1  24
ATOM     24  S   UNL     1       5.896   5.266  15.439  0.00  0.00    +0.000 S 
BRANCH  24  26
ATOM     25  C   UNL     1       7.466   5.289  17.673  0.00  0.00    +0.000 C 
ATOM     26  C   UNL     1       7.304   4.567  16.345  0.00  0.00    +0.000 C 
ENDBRANCH  24  26
ENDBRANCH   1  24
TORSDOF 5
ENDMDL
MODEL 6
REMARK VINA RESULT:      -8.1      0.960      1.463
REMARK  Name = 
REMARK  7 active torsions:
REMARK  status: ('A' for Active; 'I' for Inactive)
REMARK    1  A    between atoms: C_1  and  C_2
REMARK    2  A    between atoms: C_2  and  S_3
REMARK    3  A    between atoms: S_3  and  C_4
REMARK    4  A    between atoms: C_6  and  C_7
REMARK    5  A    between atoms: C_14  and  C_15
REMARK    6  A    between atoms: C_18  and  S_19
REMARK    7  A    between atoms: S_19  and  C_20
REMARK                            x       y       z     vdW  Elec       q    Type
REMARK                         _______ _______ _______ _____ _____    ______ ____
ROOT
ATOM      1  C   UNL     1       4.706   5.050  16.606  0.00  0.00    +0.000 A 
ATOM      2  N   UNL     1       4.257   4.093  17.376  0.00  0.00    +0.000 NA
ATOM      3  C   UNL     1       3.339   4.706  18.211  0.00  0.00    +0.000 A 
ATOM      4  C   UNL     1       3.250   6.072  17.942  0.00  0.00    +0.000 A 
ATOM      5  N   UNL     1       4.122   6.244  16.888  0.00  0.00    +0.000 N 
ATOM      6  H   UNL     1       4.346   7.111  16.424  0.00  0.00    +0.000 HD
ENDROOT
BRANCH   3   7
ATOM      7  C   UNL     1       2.650   3.969  19.263  0.00  0.00    +0.000 A 
ATOM      8  C   UNL     1       3.392   3.417  20.318  0.00  0.00    +0.000 A 
ATOM      9  C   UNL     1       2.750   2.796  21.393  0.00  0.00    +0.000 A 
ATOM     10  C   UNL     1       1.363   2.722  21.411  0.00  0.00    +0.000 A 
ATOM     11  F   UNL     1       0.745   2.160  22.458  0.00  0.00    +0.000 F 
ATOM     12  C   UNL     1       0.608   3.226  20.361  0.00  0.00    +0.000 A 
ATOM     13  C   UNL     1       1.253   3.826  19.276  0.00  0.00    +0.000 A 
ENDBRANCH   3   7
BRANCH   4  14
ATOM     14  C   UNL     1       2.536   7.197  18.552  0.00  0.00    +0.000 A 
ATOM     15  C   UNL     1       2.219   7.189  19.919  0.00  0.00    +0.000 A 
ATOM     16  C   UNL     1       1.506   8.237  20.502  0.00  0.00    +0.000 A 
ATOM     17  C   UNL     1       1.157   9.338  19.725  0.00  0.00    +0.000 A 
ATOM     18  C   UNL     1       1.470   9.380  18.365  0.00  0.00    +0.000 A 
ATOM     19  C   UNL     1       2.156   8.309  17.782  0.00  0.00    +0.000 A 
BRANCH  17  20
ATOM     20  S   UNL     1       0.305  10.701  20.484  0.00  0.00    +0.000 S 
ATOM     21  C   UNL     1       0.001  10.095  22.125  0.00  0.00    +0.000 C 
ATOM     22  O   UNL     1       1.242  11.806  20.572  0.00  0.00    +0.000 OA
ATOM     23  O   UNL     1      -0.967  10.852  19.808  0.00  0.00    +0.000 OA
ENDBRANCH  17  20
ENDBRANCH   4  14
BRANCH   1  24
ATOM     24  S   UNL     1       5.918   4.974  15.386  0.00  0.00    +0.000 S 
BRANCH  24  26
ATOM     25  C   UNL     1       7.575   4.630  17.529  0.00  0.00    +0.000 C 
ATOM     26  C   UNL     1       7.385   5.514  16.307  0.00  0.00    +0.000 C 
ENDBRANCH  24  26
ENDBRANCH   1  24
TORSDOF 5
ENDMDL
MODEL 7
REMARK VINA RESULT:      -8.1      4.259      6.113
REMARK  Name = 
REMARK  7 active torsions:
REMARK  status: ('A' for Active; 'I' for Inactive)
REMARK    1  A    between atoms: C_1  and  C_2
REMARK    2  A    between atoms: C_2  and  S_3
REMARK    3  A    between atoms: S_3  and  C_4
REMARK    4  A    between atoms: C_6  and  C_7
REMARK    5  A    between atoms: C_14  and  C_15
REMARK    6  A    between atoms: C_18  and  S_19
REMARK    7  A    between atoms: S_19  and  C_20
REMARK                            x       y       z     vdW  Elec       q    Type
REMARK                         _______ _______ _______ _____ _____    ______ ____
ROOT
ATOM      1  C   UNL     1       6.537   4.254  13.892  0.00  0.00    +0.000 A 
ATOM      2  N   UNL     1       7.269   5.106  14.561  0.00  0.00    +0.000 NA
ATOM      3  C   UNL     1       6.663   5.202  15.801  0.00  0.00    +0.000 A 
ATOM      4  C   UNL     1       5.526   4.396  15.869  0.00  0.00    +0.000 A 
ATOM      5  N   UNL     1       5.499   3.785  14.633  0.00  0.00    +0.000 N 
ATOM      6  H   UNL     1       4.803   3.138  14.294  0.00  0.00    +0.000 HD
ENDROOT
BRANCH   3   7
ATOM      7  C   UNL     1       7.163   6.108  16.829  0.00  0.00    +0.000 A 
ATOM      8  C   UNL     1       7.631   5.581  18.042  0.00  0.00    +0.000 A 
ATOM      9  C   UNL     1       8.211   6.414  19.004  0.00  0.00    +0.000 A 
ATOM     10  C   UNL     1       8.319   7.776  18.753  0.00  0.00    +0.000 A 
ATOM     11  F   UNL     1       8.908   8.569  19.658  0.00  0.00    +0.000 F 
ATOM     12  C   UNL     1       7.829   8.326  17.577  0.00  0.00    +0.000 A 
ATOM     13  C   UNL     1       7.228   7.496  16.627  0.00  0.00    +0.000 A 
ENDBRANCH   3   7
BRANCH   4  14
ATOM     14  C   UNL     1       4.476   4.178  16.867  0.00  0.00    +0.000 A 
ATOM     15  C   UNL     1       4.121   2.879  17.263  0.00  0.00    +0.000 A 
ATOM     16  C   UNL     1       3.096   2.659  18.184  0.00  0.00    +0.000 A 
ATOM     17  C   UNL     1       2.456   3.750  18.765  0.00  0.00    +0.000 A 
ATOM     18  C   UNL     1       2.796   5.054  18.400  0.00  0.00    +0.000 A 
ATOM     19  C   UNL     1       3.803   5.264  17.450  0.00  0.00    +0.000 A 
BRANCH  17  20
ATOM     20  S   UNL     1       1.195   3.469  19.984  0.00  0.00    +0.000 S 
ATOM     21  C   UNL     1       2.083   2.609  21.259  0.00  0.00    +0.000 C 
ATOM     22  O   UNL     1       0.794   4.764  20.503  0.00  0.00    +0.000 OA
ATOM     23  O   UNL     1       0.224   2.561  19.409  0.00  0.00    +0.000 OA
ENDBRANCH  17  20
ENDBRANCH   4  14
BRANCH   1  24
ATOM     24  S   UNL     1       6.704   3.736  12.258  0.00  0.00    +0.000 S 
BRANCH  24  26
ATOM     25  C   UNL     1       4.193   3.303  11.276  0.00  0.00    +0.000 C 
ATOM     26  C   UNL     1       5.282   2.622  12.089  0.00  0.00    +0.000 C 
ENDBRANCH  24  26
ENDBRANCH   1  24
TORSDOF 5
ENDMDL
MODEL 8
REMARK VINA RESULT:      -8.1      1.098      1.794
REMARK  Name = 
REMARK  7 active torsions:
REMARK  status: ('A' for Active; 'I' for Inactive)
REMARK    1  A    between atoms: C_1  and  C_2
REMARK    2  A    between atoms: C_2  and  S_3
REMARK    3  A    between atoms: S_3  and  C_4
REMARK    4  A    between atoms: C_6  and  C_7
REMARK    5  A    between atoms: C_14  and  C_15
REMARK    6  A    between atoms: C_18  and  S_19
REMARK    7  A    between atoms: S_19  and  C_20
REMARK                            x       y       z     vdW  Elec       q    Type
REMARK                         _______ _______ _______ _____ _____    ______ ____
ROOT
ATOM      1  C   UNL     1       4.671   5.422  16.735  0.00  0.00    +0.000 A 
ATOM      2  N   UNL     1       4.200   4.496  17.529  0.00  0.00    +0.000 NA
ATOM      3  C   UNL     1       3.261   5.141  18.315  0.00  0.00    +0.000 A 
ATOM      4  C   UNL     1       3.181   6.496  17.991  0.00  0.00    +0.000 A 
ATOM      5  N   UNL     1       4.082   6.626  16.955  0.00  0.00    +0.000 N 
ATOM      6  H   UNL     1       4.320   7.475  16.464  0.00  0.00    +0.000 HD
ENDROOT
BRANCH   3   7
ATOM      7  C   UNL     1       2.543   4.445  19.376  0.00  0.00    +0.000 A 
ATOM      8  C   UNL     1       1.387   3.715  19.060  0.00  0.00    +0.000 A 
ATOM      9  C   UNL     1       0.736   2.954  20.036  0.00  0.00    +0.000 A 
ATOM     10  C   UNL     1       1.240   2.926  21.330  0.00  0.00    +0.000 A 
ATOM     11  F   UNL     1       0.639   2.168  22.256  0.00  0.00    +0.000 F 
ATOM     12  C   UNL     1       2.360   3.669  21.676  0.00  0.00    +0.000 A 
ATOM     13  C   UNL     1       2.996   4.449  20.705  0.00  0.00    +0.000 A 
ENDBRANCH   3   7
BRANCH   4  14
ATOM     14  C   UNL     1       2.454   7.644  18.538  0.00  0.00    +0.000 A 
ATOM     15  C   UNL     1       2.184   8.767  17.741  0.00  0.00    +0.000 A 
ATOM     16  C   UNL     1       1.526   9.882  18.263  0.00  0.00    +0.000 A 
ATOM     17  C   UNL     1       1.077   9.853  19.580  0.00  0.00    +0.000 A 
ATOM     18  C   UNL     1       1.320   8.744  20.393  0.00  0.00    +0.000 A 
ATOM     19  C   UNL     1       2.010   7.645  19.871  0.00  0.00    +0.000 A 
BRANCH  17  20
ATOM     20  S   UNL     1       0.183  11.248  20.224  0.00  0.00    +0.000 S 
ATOM     21  C   UNL     1       0.771  12.579  19.207  0.00  0.00    +0.000 C 
ATOM     22  O   UNL     1      -1.223  11.038  19.932  0.00  0.00    +0.000 OA
ATOM     23  O   UNL     1       0.639  11.471  21.581  0.00  0.00    +0.000 OA
ENDBRANCH  17  20
ENDBRANCH   4  14
BRANCH   1  24
ATOM     24  S   UNL     1       5.916   5.299  15.552  0.00  0.00    +0.000 S 
BRANCH  24  26
ATOM     25  C   UNL     1       7.506   5.451  17.767  0.00  0.00    +0.000 C 
ATOM     26  C   UNL     1       7.271   4.596  16.532  0.00  0.00    +0.000 C 
ENDBRANCH  24  26
ENDBRANCH   1  24
TORSDOF 5
ENDMDL
MODEL 9
REMARK VINA RESULT:      -8.0      0.512      1.414
REMARK  Name = 
REMARK  7 active torsions:
REMARK  status: ('A' for Active; 'I' for Inactive)
REMARK    1  A    between atoms: C_1  and  C_2
REMARK    2  A    between atoms: C_2  and  S_3
REMARK    3  A    between atoms: S_3  and  C_4
REMARK    4  A    between atoms: C_6  and  C_7
REMARK    5  A    between atoms: C_14  and  C_15
REMARK    6  A    between atoms: C_18  and  S_19
REMARK    7  A    between atoms: S_19  and  C_20
REMARK                            x       y       z     vdW  Elec       q    Type
REMARK                         _______ _______ _______ _____ _____    ______ ____
ROOT
ATOM      1  C   UNL     1       4.735   5.767  16.824  0.00  0.00    +0.000 A 
ATOM      2  N   UNL     1       4.290   4.796  17.579  0.00  0.00    +0.000 NA
ATOM      3  C   UNL     1       3.289   5.368  18.345  0.00  0.00    +0.000 A 
ATOM      4  C   UNL     1       3.144   6.724  18.050  0.00  0.00    +0.000 A 
ATOM      5  N   UNL     1       4.072   6.931  17.051  0.00  0.00    +0.000 N 
ATOM      6  H   UNL     1       4.279   7.804  16.589  0.00  0.00    +0.000 HD
ENDROOT
BRANCH   3   7
ATOM      7  C   UNL     1       2.574   4.607  19.362  0.00  0.00    +0.000 A 
ATOM      8  C   UNL     1       1.446   3.856  18.995  0.00  0.00    +0.000 A 
ATOM      9  C   UNL     1       0.803   3.036  19.925  0.00  0.00    +0.000 A 
ATOM     10  C   UNL     1       1.285   2.968  21.226  0.00  0.00    +0.000 A 
ATOM     11  F   UNL     1       0.692   2.153  22.109  0.00  0.00    +0.000 F 
ATOM     12  C   UNL     1       2.376   3.729  21.623  0.00  0.00    +0.000 A 
ATOM     13  C   UNL     1       3.004   4.567  20.698  0.00  0.00    +0.000 A 
ENDBRANCH   3   7
BRANCH   4  14
ATOM     14  C   UNL     1       2.335   7.816  18.597  0.00  0.00    +0.000 A 
ATOM     15  C   UNL     1       1.975   7.832  19.954  0.00  0.00    +0.000 A 
ATOM     16  C   UNL     1       1.172   8.846  20.476  0.00  0.00    +0.000 A 
ATOM     17  C   UNL     1       0.772   9.893  19.650  0.00  0.00    +0.000 A 
ATOM     18  C   UNL     1       1.125   9.910  18.299  0.00  0.00    +0.000 A 
ATOM     19  C   UNL     1       1.903   8.871  17.776  0.00  0.00    +0.000 A 
BRANCH  17  20
ATOM     20  S   UNL     1      -0.197  11.217  20.332  0.00  0.00    +0.000 S 
ATOM     21  C   UNL     1      -0.515  10.645  21.982  0.00  0.00    +0.000 C 
ATOM     22  O   UNL     1       0.657  12.387  20.411  0.00  0.00    +0.000 OA
ATOM     23  O   UNL     1      -1.453  11.256  19.610  0.00  0.00    +0.000 OA
ENDBRANCH  17  20
ENDBRANCH   4  14
BRANCH   1  24
ATOM     24  S   UNL     1       6.026   5.743  15.684  0.00  0.00    +0.000 S 
BRANCH  24  26
ATOM     25  C   UNL     1       6.022   3.825  13.741  0.00  0.00    +0.000 C 
ATOM     26  C   UNL     1       6.087   3.982  15.251  0.00  0.00    +0.000 C 
ENDBRANCH  24  26
ENDBRANCH   1  24
TORSDOF 5
ENDMDL
