MODEL 1
REMARK VINA RESULT:      -7.7      0.000      0.000
REMARK  Name = 
REMARK  14 active torsions:
REMARK  status: ('A' for Active; 'I' for Inactive)
REMARK    1  A    between atoms: C_1  and  O_2
REMARK    2  A    between atoms: O_2  and  C_3
REMARK    3  A    between atoms: C_3  and  C_5
REMARK    4  A    between atoms: C_8  and  C_9
REMARK    5  A    between atoms: C_9  and  C_10
REMARK    6  A    between atoms: C_10  and  C_11
REMARK    7  A    between atoms: C_10  and  N_12
REMARK    8  A    between atoms: N_12  and  C_13
REMARK    9  A    between atoms: C_13  and  C_14
REMARK   10  A    between atoms: C_14  and  O_15
REMARK   11  A    between atoms: C_14  and  C_16
REMARK   12  A    between atoms: C_20  and  O_21
REMARK   13  A    between atoms: O_21  and  C_22
REMARK   14  A    between atoms: C_22  and  C_23
REMARK                            x       y       z     vdW  Elec       q    Type
REMARK                         _______ _______ _______ _____ _____    ______ ____
ROOT
ATOM      1  C   UNL     1       2.463   6.831  19.920  0.00  0.00    +0.000 C 
ENDROOT
BRANCH   1   2
ATOM      2  C   UNL     1       1.614   8.056  20.209  0.00  0.00    +0.000 A 
ATOM      3  C   UNL     1       1.190   8.362  21.513  0.00  0.00    +0.000 A 
ATOM      4  C   UNL     1       0.426   9.506  21.755  0.00  0.00    +0.000 A 
ATOM      5  C   UNL     1       0.076  10.356  20.700  0.00  0.00    +0.000 A 
ATOM      6  C   UNL     1       0.500  10.079  19.394  0.00  0.00    +0.000 A 
ATOM      7  C   UNL     1       1.271   8.921  19.159  0.00  0.00    +0.000 A 
BRANCH   6   8
ATOM      8  O   UNL     1       0.159  10.939  18.396  0.00  0.00    +0.000 OA
BRANCH   8   9
ATOM      9  C   UNL     1      -0.676  12.031  18.550  0.00  0.00    +0.000 C 
BRANCH   9  10
ATOM     10  C   UNL     1      -2.068  11.705  18.095  0.00  0.00    +0.000 A 
ATOM     11  C   UNL     1      -3.171  11.927  18.937  0.00  0.00    +0.000 A 
ATOM     12  C   UNL     1      -4.466  11.655  18.482  0.00  0.00    +0.000 A 
ATOM     13  C   UNL     1      -4.667  11.167  17.189  0.00  0.00    +0.000 A 
ATOM     14  C   UNL     1      -3.572  10.942  16.348  0.00  0.00    +0.000 A 
ATOM     15  C   UNL     1      -2.277  11.207  16.800  0.00  0.00    +0.000 A 
ENDBRANCH   9  10
ENDBRANCH   8   9
ENDBRANCH   6   8
ENDBRANCH   1   2
BRANCH   1  16
ATOM     16  O   UNL     1       2.654   6.664  18.536  0.00  0.00    +0.000 OA
ATOM     17  H   UNL     1       3.578   6.948  18.315  0.00  0.00    +0.000 HD
ENDBRANCH   1  16
BRANCH   1  18
ATOM     18  C   UNL     1       1.842   5.588  20.579  0.00  0.00    +0.000 C 
BRANCH  18  19
ATOM     19  N   UNL     1       1.522   4.555  19.582  0.00  0.00    +0.000 NA
ATOM     20  H   UNL     1       0.557   4.744  19.222  0.00  0.00    +0.000 HD
BRANCH  19  21
ATOM     21  C   UNL     1       1.540   3.189  20.151  0.00  0.00    +0.000 C 
ATOM     22  C   UNL     1       2.026   3.187  21.615  0.00  0.00    +0.000 C 
BRANCH  21  23
ATOM     23  C   UNL     1       2.466   2.302  19.286  0.00  0.00    +0.000 C 
BRANCH  23  27
ATOM     24  C   UNL     1       5.538   4.594  17.252  0.00  0.00    +0.000 A 
ATOM     25  C   UNL     1       4.459   4.044  16.530  0.00  0.00    +0.000 A 
ATOM     26  C   UNL     1       3.471   3.309  17.189  0.00  0.00    +0.000 A 
ATOM     27  C   UNL     1       3.542   3.096  18.575  0.00  0.00    +0.000 A 
ATOM     28  C   UNL     1       4.620   3.637  19.293  0.00  0.00    +0.000 A 
ATOM     29  C   UNL     1       5.607   4.382  18.638  0.00  0.00    +0.000 A 
BRANCH  24  30
ATOM     30  C   UNL     1       6.581   5.395  16.561  0.00  0.00    +0.000 C 
ATOM     31  O   UNL     1       7.565   5.776  17.180  0.00  0.00    +0.000 OA
BRANCH  30  33
ATOM     32  C   UNL     1       7.094   5.004  14.212  0.00  0.00    +0.000 C 
ATOM     33  O   UNL     1       6.449   5.671  15.237  0.00  0.00    +0.000 OA
ENDBRANCH  30  33
ENDBRANCH  24  30
ENDBRANCH  23  27
ENDBRANCH  21  23
ENDBRANCH  19  21
ENDBRANCH  18  19
ENDBRANCH   1  18
TORSDOF 12
ENDMDL
MODEL 2
REMARK VINA RESULT:      -7.6      1.116      1.570
REMARK  Name = 
REMARK  14 active torsions:
REMARK  status: ('A' for Active; 'I' for Inactive)
REMARK    1  A    between atoms: C_1  and  O_2
REMARK    2  A    between atoms: O_2  and  C_3
REMARK    3  A    between atoms: C_3  and  C_5
REMARK    4  A    between atoms: C_8  and  C_9
REMARK    5  A    between atoms: C_9  and  C_10
REMARK    6  A    between atoms: C_10  and  C_11
REMARK    7  A    between atoms: C_10  and  N_12
REMARK    8  A    between atoms: N_12  and  C_13
REMARK    9  A    between atoms: C_13  and  C_14
REMARK   10  A    between atoms: C_14  and  O_15
REMARK   11  A    between atoms: C_14  and  C_16
REMARK   12  A    between atoms: C_20  and  O_21
REMARK   13  A    between atoms: O_21  and  C_22
REMARK   14  A    between atoms: C_22  and  C_23
REMARK                            x       y       z     vdW  Elec       q    Type
REMARK                         _______ _______ _______ _____ _____    ______ ____
ROOT
ATOM      1  C   UNL     1       2.103   7.377  20.204  0.00  0.00    +0.000 C 
ENDROOT
BRANCH   1   2
ATOM      2  C   UNL     1       1.204   8.464  20.766  0.00  0.00    +0.000 A 
ATOM      3  C   UNL     1       0.545   8.306  21.996  0.00  0.00    +0.000 A 
ATOM      4  C   UNL     1      -0.262   9.330  22.499  0.00  0.00    +0.000 A 
ATOM      5  C   UNL     1      -0.421  10.520  21.782  0.00  0.00    +0.000 A 
ATOM      6  C   UNL     1       0.239  10.705  20.560  0.00  0.00    +0.000 A 
ATOM      7  C   UNL     1       1.051   9.666  20.059  0.00  0.00    +0.000 A 
BRANCH   6   8
ATOM      8  O   UNL     1       0.079  11.884  19.899  0.00  0.00    +0.000 OA
BRANCH   8   9
ATOM      9  C   UNL     1      -0.192  11.997  18.548  0.00  0.00    +0.000 C 
BRANCH   9  10
ATOM     10  C   UNL     1      -1.551  11.446  18.230  0.00  0.00    +0.000 A 
ATOM     11  C   UNL     1      -1.692  10.280  17.459  0.00  0.00    +0.000 A 
ATOM     12  C   UNL     1      -2.964   9.757  17.206  0.00  0.00    +0.000 A 
ATOM     13  C   UNL     1      -4.099  10.389  17.721  0.00  0.00    +0.000 A 
ATOM     14  C   UNL     1      -3.963  11.552  18.487  0.00  0.00    +0.000 A 
ATOM     15  C   UNL     1      -2.695  12.081  18.738  0.00  0.00    +0.000 A 
ENDBRANCH   9  10
ENDBRANCH   8   9
ENDBRANCH   6   8
ENDBRANCH   1   2
BRANCH   1  16
ATOM     16  O   UNL     1       2.195   7.471  18.804  0.00  0.00    +0.000 OA
ATOM     17  H   UNL     1       1.422   8.002  18.478  0.00  0.00    +0.000 HD
ENDBRANCH   1  16
BRANCH   1  18
ATOM     18  C   UNL     1       1.616   5.994  20.667  0.00  0.00    +0.000 C 
BRANCH  18  19
ATOM     19  N   UNL     1       2.652   4.968  20.475  0.00  0.00    +0.000 NA
ATOM     20  H   UNL     1       3.228   5.244  19.645  0.00  0.00    +0.000 HD
BRANCH  19  21
ATOM     21  C   UNL     1       2.085   3.626  20.213  0.00  0.00    +0.000 C 
ATOM     22  C   UNL     1       1.718   2.897  21.523  0.00  0.00    +0.000 C 
BRANCH  21  23
ATOM     23  C   UNL     1       3.117   2.796  19.417  0.00  0.00    +0.000 C 
BRANCH  23  27
ATOM     24  C   UNL     1       5.906   5.285  17.213  0.00  0.00    +0.000 A 
ATOM     25  C   UNL     1       4.703   4.855  16.616  0.00  0.00    +0.000 A 
ATOM     26  C   UNL     1       3.807   4.056  17.329  0.00  0.00    +0.000 A 
ATOM     27  C   UNL     1       4.094   3.659  18.645  0.00  0.00    +0.000 A 
ATOM     28  C   UNL     1       5.295   4.080  19.238  0.00  0.00    +0.000 A 
ATOM     29  C   UNL     1       6.191   4.888  18.530  0.00  0.00    +0.000 A 
BRANCH  24  30
ATOM     30  C   UNL     1       6.854   6.153  16.468  0.00  0.00    +0.000 C 
ATOM     31  O   UNL     1       7.524   5.683  15.560  0.00  0.00    +0.000 OA
BRANCH  30  33
ATOM     32  C   UNL     1       7.845   8.023  17.674  0.00  0.00    +0.000 C 
ATOM     33  O   UNL     1       6.944   7.473  16.781  0.00  0.00    +0.000 OA
ENDBRANCH  30  33
ENDBRANCH  24  30
ENDBRANCH  23  27
ENDBRANCH  21  23
ENDBRANCH  19  21
ENDBRANCH  18  19
ENDBRANCH   1  18
TORSDOF 12
ENDMDL
MODEL 3
REMARK VINA RESULT:      -7.6      4.024      8.540
REMARK  Name = 
REMARK  14 active torsions:
REMARK  status: ('A' for Active; 'I' for Inactive)
REMARK    1  A    between atoms: C_1  and  O_2
REMARK    2  A    between atoms: O_2  and  C_3
REMARK    3  A    between atoms: C_3  and  C_5
REMARK    4  A    between atoms: C_8  and  C_9
REMARK    5  A    between atoms: C_9  and  C_10
REMARK    6  A    between atoms: C_10  and  C_11
REMARK    7  A    between atoms: C_10  and  N_12
REMARK    8  A    between atoms: N_12  and  C_13
REMARK    9  A    between atoms: C_13  and  C_14
REMARK   10  A    between atoms: C_14  and  O_15
REMARK   11  A    between atoms: C_14  and  C_16
REMARK   12  A    between atoms: C_20  and  O_21
REMARK   13  A    between atoms: O_21  and  C_22
REMARK   14  A    between atoms: C_22  and  C_23
REMARK                            x       y       z     vdW  Elec       q    Type
REMARK                         _______ _______ _______ _____ _____    ______ ____
ROOT
ATOM      1  C   UNL     1       6.259   5.019  15.785  0.00  0.00    +0.000 C 
ENDROOT
BRANCH   1   2
ATOM      2  C   UNL     1       6.972   5.661  16.960  0.00  0.00    +0.000 A 
ATOM      3  C   UNL     1       7.413   4.899  18.055  0.00  0.00    +0.000 A 
ATOM      4  C   UNL     1       8.084   5.513  19.116  0.00  0.00    +0.000 A 
ATOM      5  C   UNL     1       8.320   6.891  19.098  0.00  0.00    +0.000 A 
ATOM      6  C   UNL     1       7.903   7.669  18.010  0.00  0.00    +0.000 A 
ATOM      7  C   UNL     1       7.226   7.041  16.943  0.00  0.00    +0.000 A 
BRANCH   6   8
ATOM      8  O   UNL     1       8.169   9.003  18.015  0.00  0.00    +0.000 OA
BRANCH   8   9
ATOM      9  C   UNL     1       8.996   9.637  18.926  0.00  0.00    +0.000 C 
BRANCH   9  10
ATOM     10  C   UNL     1       9.476  10.951  18.385  0.00  0.00    +0.000 A 
ATOM     11  C   UNL     1      10.849  11.239  18.307  0.00  0.00    +0.000 A 
ATOM     12  C   UNL     1      11.281  12.453  17.762  0.00  0.00    +0.000 A 
ATOM     13  C   UNL     1      10.349  13.381  17.291  0.00  0.00    +0.000 A 
ATOM     14  C   UNL     1       8.981  13.100  17.369  0.00  0.00    +0.000 A 
ATOM     15  C   UNL     1       8.545  11.891  17.917  0.00  0.00    +0.000 A 
ENDBRANCH   9  10
ENDBRANCH   8   9
ENDBRANCH   6   8
ENDBRANCH   1   2
BRANCH   1  16
ATOM     16  O   UNL     1       6.002   5.962  14.773  0.00  0.00    +0.000 OA
ATOM     17  H   UNL     1       6.302   6.851  15.095  0.00  0.00    +0.000 HD
ENDBRANCH   1  16
BRANCH   1  18
ATOM     18  C   UNL     1       4.980   4.310  16.262  0.00  0.00    +0.000 C 
BRANCH  18  19
ATOM     19  N   UNL     1       5.166   3.704  17.589  0.00  0.00    +0.000 NA
ATOM     20  H   UNL     1       5.575   2.750  17.453  0.00  0.00    +0.000 HD
BRANCH  19  21
ATOM     21  C   UNL     1       3.894   3.557  18.331  0.00  0.00    +0.000 C 
ATOM     22  C   UNL     1       3.414   2.090  18.353  0.00  0.00    +0.000 C 
BRANCH  21  23
ATOM     23  C   UNL     1       2.823   4.454  17.669  0.00  0.00    +0.000 C 
BRANCH  23  27
ATOM     24  C   UNL     1       1.704   7.854  20.123  0.00  0.00    +0.000 A 
ATOM     25  C   UNL     1       2.174   8.043  18.808  0.00  0.00    +0.000 A 
ATOM     26  C   UNL     1       2.531   6.947  18.020  0.00  0.00    +0.000 A 
ATOM     27  C   UNL     1       2.440   5.641  18.528  0.00  0.00    +0.000 A 
ATOM     28  C   UNL     1       1.978   5.451  19.840  0.00  0.00    +0.000 A 
ATOM     29  C   UNL     1       1.610   6.547  20.629  0.00  0.00    +0.000 A 
BRANCH  24  30
ATOM     30  C   UNL     1       1.302   9.014  20.959  0.00  0.00    +0.000 C 
ATOM     31  O   UNL     1       1.080  10.095  20.433  0.00  0.00    +0.000 OA
BRANCH  30  33
ATOM     32  C   UNL     1       0.075   9.302  23.044  0.00  0.00    +0.000 C 
ATOM     33  O   UNL     1       1.152   8.855  22.301  0.00  0.00    +0.000 OA
ENDBRANCH  30  33
ENDBRANCH  24  30
ENDBRANCH  23  27
ENDBRANCH  21  23
ENDBRANCH  19  21
ENDBRANCH  18  19
ENDBRANCH   1  18
TORSDOF 12
ENDMDL
MODEL 4
REMARK VINA RESULT:      -7.4      3.814      8.427
REMARK  Name = 
REMARK  14 active torsions:
REMARK  status: ('A' for Active; 'I' for Inactive)
REMARK    1  A    between atoms: C_1  and  O_2
REMARK    2  A    between atoms: O_2  and  C_3
REMARK    3  A    between atoms: C_3  and  C_5
REMARK    4  A    between atoms: C_8  and  C_9
REMARK    5  A    between atoms: C_9  and  C_10
REMARK    6  A    between atoms: C_10  and  C_11
REMARK    7  A    between atoms: C_10  and  N_12
REMARK    8  A    between atoms: N_12  and  C_13
REMARK    9  A    between atoms: C_13  and  C_14
REMARK   10  A    between atoms: C_14  and  O_15
REMARK   11  A    between atoms: C_14  and  C_16
REMARK   12  A    between atoms: C_20  and  O_21
REMARK   13  A    between atoms: O_21  and  C_22
REMARK   14  A    between atoms: C_22  and  C_23
REMARK                            x       y       z     vdW  Elec       q    Type
REMARK                         _______ _______ _______ _____ _____    ______ ____
ROOT
ATOM      1  C   UNL     1       5.938   4.572  15.977  0.00  0.00    +0.000 C 
ENDROOT
BRANCH   1   2
ATOM      2  C   UNL     1       6.725   5.408  16.970  0.00  0.00    +0.000 A 
ATOM      3  C   UNL     1       7.200   4.861  18.173  0.00  0.00    +0.000 A 
ATOM      4  C   UNL     1       7.939   5.647  19.062  0.00  0.00    +0.000 A 
ATOM      5  C   UNL     1       8.209   6.985  18.761  0.00  0.00    +0.000 A 
ATOM      6  C   UNL     1       7.759   7.548  17.560  0.00  0.00    +0.000 A 
ATOM      7  C   UNL     1       7.013   6.747  16.669  0.00  0.00    +0.000 A 
BRANCH   6   8
ATOM      8  O   UNL     1       8.059   8.847  17.289  0.00  0.00    +0.000 OA
BRANCH   8   9
ATOM      9  C   UNL     1       7.698   9.920  18.084  0.00  0.00    +0.000 C 
BRANCH   9  10
ATOM     10  C   UNL     1       8.852  10.861  18.266  0.00  0.00    +0.000 A 
ATOM     11  C   UNL     1       8.891  12.093  17.590  0.00  0.00    +0.000 A 
ATOM     12  C   UNL     1       9.954  12.976  17.802  0.00  0.00    +0.000 A 
ATOM     13  C   UNL     1      10.980  12.639  18.689  0.00  0.00    +0.000 A 
ATOM     14  C   UNL     1      10.948  11.413  19.362  0.00  0.00    +0.000 A 
ATOM     15  C   UNL     1       9.890  10.525  19.149  0.00  0.00    +0.000 A 
ENDBRANCH   9  10
ENDBRANCH   8   9
ENDBRANCH   6   8
ENDBRANCH   1   2
BRANCH   1  16
ATOM     16  O   UNL     1       6.050   5.095  14.676  0.00  0.00    +0.000 OA
ATOM     17  H   UNL     1       5.196   5.546  14.449  0.00  0.00    +0.000 HD
ENDBRANCH   1  16
BRANCH   1  18
ATOM     18  C   UNL     1       4.474   4.445  16.433  0.00  0.00    +0.000 C 
BRANCH  18  19
ATOM     19  N   UNL     1       4.352   3.567  17.606  0.00  0.00    +0.000 NA
ATOM     20  H   UNL     1       4.096   2.610  17.266  0.00  0.00    +0.000 HD
BRANCH  19  21
ATOM     21  C   UNL     1       3.301   4.016  18.546  0.00  0.00    +0.000 C 
ATOM     22  C   UNL     1       2.020   4.452  17.804  0.00  0.00    +0.000 C 
BRANCH  21  23
ATOM     23  C   UNL     1       3.852   5.191  19.386  0.00  0.00    +0.000 C 
BRANCH  23  27
ATOM     24  C   UNL     1       1.650   8.883  18.793  0.00  0.00    +0.000 A 
ATOM     25  C   UNL     1       1.475   8.125  19.969  0.00  0.00    +0.000 A 
ATOM     26  C   UNL     1       2.188   6.939  20.157  0.00  0.00    +0.000 A 
ATOM     27  C   UNL     1       3.078   6.476  19.175  0.00  0.00    +0.000 A 
ATOM     28  C   UNL     1       3.249   7.226  18.001  0.00  0.00    +0.000 A 
ATOM     29  C   UNL     1       2.544   8.420  17.813  0.00  0.00    +0.000 A 
BRANCH  24  30
ATOM     30  C   UNL     1       0.912  10.157  18.596  0.00  0.00    +0.000 C 
ATOM     31  O   UNL     1      -0.172  10.151  18.031  0.00  0.00    +0.000 OA
BRANCH  30  33
ATOM     32  C   UNL     1       2.180  12.222  18.340  0.00  0.00    +0.000 C 
ATOM     33  O   UNL     1       1.435  11.317  19.074  0.00  0.00    +0.000 OA
ENDBRANCH  30  33
ENDBRANCH  24  30
ENDBRANCH  23  27
ENDBRANCH  21  23
ENDBRANCH  19  21
ENDBRANCH  18  19
ENDBRANCH   1  18
TORSDOF 12
ENDMDL
MODEL 5
REMARK VINA RESULT:      -7.3      0.910      1.642
REMARK  Name = 
REMARK  14 active torsions:
REMARK  status: ('A' for Active; 'I' for Inactive)
REMARK    1  A    between atoms: C_1  and  O_2
REMARK    2  A    between atoms: O_2  and  C_3
REMARK    3  A    between atoms: C_3  and  C_5
REMARK    4  A    between atoms: C_8  and  C_9
REMARK    5  A    between atoms: C_9  and  C_10
REMARK    6  A    between atoms: C_10  and  C_11
REMARK    7  A    between atoms: C_10  and  N_12
REMARK    8  A    between atoms: N_12  and  C_13
REMARK    9  A    between atoms: C_13  and  C_14
REMARK   10  A    between atoms: C_14  and  O_15
REMARK   11  A    between atoms: C_14  and  C_16
REMARK   12  A    between atoms: C_20  and  O_21
REMARK   13  A    between atoms: O_21  and  C_22
REMARK   14  A    between atoms: C_22  and  C_23
REMARK                            x       y       z     vdW  Elec       q    Type
REMARK                         _______ _______ _______ _____ _____    ______ ____
ROOT
ATOM      1  C   UNL     1       2.503   7.044  19.510  0.00  0.00    +0.000 C 
ENDROOT
BRANCH   1   2
ATOM      2  C   UNL     1       1.647   8.220  19.943  0.00  0.00    +0.000 A 
ATOM      3  C   UNL     1       1.193   8.347  21.266  0.00  0.00    +0.000 A 
ATOM      4  C   UNL     1       0.422   9.450  21.644  0.00  0.00    +0.000 A 
ATOM      5  C   UNL     1       0.094  10.435  20.707  0.00  0.00    +0.000 A 
ATOM      6  C   UNL     1       0.549  10.337  19.385  0.00  0.00    +0.000 A 
ATOM      7  C   UNL     1       1.326   9.220  19.013  0.00  0.00    +0.000 A 
BRANCH   6   8
ATOM      8  O   UNL     1       0.229  11.324  18.506  0.00  0.00    +0.000 OA
BRANCH   8   9
ATOM      9  C   UNL     1      -0.732  12.294  18.727  0.00  0.00    +0.000 C 
BRANCH   9  10
ATOM     10  C   UNL     1      -2.060  11.863  18.178  0.00  0.00    +0.000 A 
ATOM     11  C   UNL     1      -2.183  11.431  16.847  0.00  0.00    +0.000 A 
ATOM     12  C   UNL     1      -3.421  10.994  16.363  0.00  0.00    +0.000 A 
ATOM     13  C   UNL     1      -4.537  10.981  17.203  0.00  0.00    +0.000 A 
ATOM     14  C   UNL     1      -4.421  11.412  18.528  0.00  0.00    +0.000 A 
ATOM     15  C   UNL     1      -3.188  11.855  19.014  0.00  0.00    +0.000 A 
ENDBRANCH   9  10
ENDBRANCH   8   9
ENDBRANCH   6   8
ENDBRANCH   1   2
BRANCH   1  16
ATOM     16  O   UNL     1       2.431   6.852  18.118  0.00  0.00    +0.000 OA
ATOM     17  H   UNL     1       2.945   7.579  17.679  0.00  0.00    +0.000 HD
ENDBRANCH   1  16
BRANCH   1  18
ATOM     18  C   UNL     1       2.109   5.782  20.296  0.00  0.00    +0.000 C 
BRANCH  18  19
ATOM     19  N   UNL     1       1.982   4.616  19.410  0.00  0.00    +0.000 NA
ATOM     20  H   UNL     1       1.018   4.224  19.530  0.00  0.00    +0.000 HD
BRANCH  19  21
ATOM     21  C   UNL     1       2.954   3.547  19.730  0.00  0.00    +0.000 C 
ATOM     22  C   UNL     1       2.653   2.893  21.095  0.00  0.00    +0.000 C 
BRANCH  21  23
ATOM     23  C   UNL     1       4.377   4.153  19.736  0.00  0.00    +0.000 C 
BRANCH  23  27
ATOM     24  C   UNL     1       6.139   4.346  15.775  0.00  0.00    +0.000 A 
ATOM     25  C   UNL     1       4.821   3.877  15.951  0.00  0.00    +0.000 A 
ATOM     26  C   UNL     1       4.256   3.819  17.227  0.00  0.00    +0.000 A 
ATOM     27  C   UNL     1       4.994   4.214  18.354  0.00  0.00    +0.000 A 
ATOM     28  C   UNL     1       6.309   4.675  18.181  0.00  0.00    +0.000 A 
ATOM     29  C   UNL     1       6.875   4.743  16.904  0.00  0.00    +0.000 A 
BRANCH  24  30
ATOM     30  C   UNL     1       6.738   4.431  14.419  0.00  0.00    +0.000 C 
ATOM     31  O   UNL     1       6.332   3.700  13.527  0.00  0.00    +0.000 OA
BRANCH  30  33
ATOM     32  C   UNL     1       8.219   5.658  12.923  0.00  0.00    +0.000 C 
ATOM     33  O   UNL     1       7.712   5.347  14.171  0.00  0.00    +0.000 OA
ENDBRANCH  30  33
ENDBRANCH  24  30
ENDBRANCH  23  27
ENDBRANCH  21  23
ENDBRANCH  19  21
ENDBRANCH  18  19
ENDBRANCH   1  18
TORSDOF 12
ENDMDL
MODEL 6
REMARK VINA RESULT:      -7.2      2.325      3.065
REMARK  Name = 
REMARK  14 active torsions:
REMARK  status: ('A' for Active; 'I' for Inactive)
REMARK    1  A    between atoms: C_1  and  O_2
REMARK    2  A    between atoms: O_2  and  C_3
REMARK    3  A    between atoms: C_3  and  C_5
REMARK    4  A    between atoms: C_8  and  C_9
REMARK    5  A    between atoms: C_9  and  C_10
REMARK    6  A    between atoms: C_10  and  C_11
REMARK    7  A    between atoms: C_10  and  N_12
REMARK    8  A    between atoms: N_12  and  C_13
REMARK    9  A    between atoms: C_13  and  C_14
REMARK   10  A    between atoms: C_14  and  O_15
REMARK   11  A    between atoms: C_14  and  C_16
REMARK   12  A    between atoms: C_20  and  O_21
REMARK   13  A    between atoms: O_21  and  C_22
REMARK   14  A    between atoms: C_22  and  C_23
REMARK                            x       y       z     vdW  Elec       q    Type
REMARK                         _______ _______ _______ _____ _____    ______ ____
ROOT
ATOM      1  C   UNL     1       2.374   6.845  19.712  0.00  0.00    +0.000 C 
ENDROOT
BRANCH   1   2
ATOM      2  C   UNL     1       1.664   8.127  20.104  0.00  0.00    +0.000 A 
ATOM      3  C   UNL     1       1.088   8.286  21.376  0.00  0.00    +0.000 A 
ATOM      4  C   UNL     1       0.455   9.484  21.719  0.00  0.00    +0.000 A 
ATOM      5  C   UNL     1       0.390  10.535  20.799  0.00  0.00    +0.000 A 
ATOM      6  C   UNL     1       0.970  10.405  19.530  0.00  0.00    +0.000 A 
ATOM      7  C   UNL     1       1.606   9.191  19.192  0.00  0.00    +0.000 A 
BRANCH   6   8
ATOM      8  O   UNL     1       0.906  11.455  18.668  0.00  0.00    +0.000 OA
BRANCH   8   9
ATOM      9  C   UNL     1       1.959  12.309  18.388  0.00  0.00    +0.000 C 
BRANCH   9  10
ATOM     10  C   UNL     1       1.550  13.739  18.581  0.00  0.00    +0.000 A 
ATOM     11  C   UNL     1       2.501  14.772  18.532  0.00  0.00    +0.000 A 
ATOM     12  C   UNL     1       2.098  16.104  18.673  0.00  0.00    +0.000 A 
ATOM     13  C   UNL     1       0.747  16.412  18.859  0.00  0.00    +0.000 A 
ATOM     14  C   UNL     1      -0.203  15.387  18.910  0.00  0.00    +0.000 A 
ATOM     15  C   UNL     1       0.197  14.055  18.775  0.00  0.00    +0.000 A 
ENDBRANCH   9  10
ENDBRANCH   8   9
ENDBRANCH   6   8
ENDBRANCH   1   2
BRANCH   1  16
ATOM     16  O   UNL     1       2.647   6.821  18.332  0.00  0.00    +0.000 OA
ATOM     17  H   UNL     1       1.792   6.949  17.845  0.00  0.00    +0.000 HD
ENDBRANCH   1  16
BRANCH   1  18
ATOM     18  C   UNL     1       1.558   5.624  20.168  0.00  0.00    +0.000 C 
BRANCH  18  19
ATOM     19  N   UNL     1       2.321   4.789  21.108  0.00  0.00    +0.000 NA
ATOM     20  H   UNL     1       3.328   5.067  21.040  0.00  0.00    +0.000 HD
BRANCH  19  21
ATOM     21  C   UNL     1       2.221   3.346  20.798  0.00  0.00    +0.000 C 
ATOM     22  C   UNL     1       1.649   2.546  21.987  0.00  0.00    +0.000 C 
BRANCH  21  23
ATOM     23  C   UNL     1       3.628   2.817  20.433  0.00  0.00    +0.000 C 
BRANCH  23  27
ATOM     24  C   UNL     1       5.204   4.562  16.786  0.00  0.00    +0.000 A 
ATOM     25  C   UNL     1       5.859   4.762  18.018  0.00  0.00    +0.000 A 
ATOM     26  C   UNL     1       5.350   4.197  19.189  0.00  0.00    +0.000 A 
ATOM     27  C   UNL     1       4.174   3.432  19.161  0.00  0.00    +0.000 A 
ATOM     28  C   UNL     1       3.516   3.236  17.936  0.00  0.00    +0.000 A 
ATOM     29  C   UNL     1       4.028   3.793  16.759  0.00  0.00    +0.000 A 
BRANCH  24  30
ATOM     30  C   UNL     1       5.751   5.142  15.533  0.00  0.00    +0.000 C 
ATOM     31  O   UNL     1       5.580   6.327  15.285  0.00  0.00    +0.000 OA
BRANCH  30  33
ATOM     32  C   UNL     1       6.033   3.907  13.451  0.00  0.00    +0.000 C 
ATOM     33  O   UNL     1       6.467   4.356  14.685  0.00  0.00    +0.000 OA
ENDBRANCH  30  33
ENDBRANCH  24  30
ENDBRANCH  23  27
ENDBRANCH  21  23
ENDBRANCH  19  21
ENDBRANCH  18  19
ENDBRANCH   1  18
TORSDOF 12
ENDMDL
MODEL 7
REMARK VINA RESULT:      -7.2      2.062      3.468
REMARK  Name = 
REMARK  14 active torsions:
REMARK  status: ('A' for Active; 'I' for Inactive)
REMARK    1  A    between atoms: C_1  and  O_2
REMARK    2  A    between atoms: O_2  and  C_3
REMARK    3  A    between atoms: C_3  and  C_5
REMARK    4  A    between atoms: C_8  and  C_9
REMARK    5  A    between atoms: C_9  and  C_10
REMARK    6  A    between atoms: C_10  and  C_11
REMARK    7  A    between atoms: C_10  and  N_12
REMARK    8  A    between atoms: N_12  and  C_13
REMARK    9  A    between atoms: C_13  and  C_14
REMARK   10  A    between atoms: C_14  and  O_15
REMARK   11  A    between atoms: C_14  and  C_16
REMARK   12  A    between atoms: C_20  and  O_21
REMARK   13  A    between atoms: O_21  and  C_22
REMARK   14  A    between atoms: C_22  and  C_23
REMARK                            x       y       z     vdW  Elec       q    Type
REMARK                         _______ _______ _______ _____ _____    ______ ____
ROOT
ATOM      1  C   UNL     1       2.479   6.549  19.539  0.00  0.00    +0.000 C 
ENDROOT
BRANCH   1   2
ATOM      2  C   UNL     1       1.727   7.774  20.027  0.00  0.00    +0.000 A 
ATOM      3  C   UNL     1       1.160   7.822  21.311  0.00  0.00    +0.000 A 
ATOM      4  C   UNL     1       0.489   8.969  21.743  0.00  0.00    +0.000 A 
ATOM      5  C   UNL     1       0.375  10.079  20.899  0.00  0.00    +0.000 A 
ATOM      6  C   UNL     1       0.946  10.060  19.620  0.00  0.00    +0.000 A 
ATOM      7  C   UNL     1       1.621   8.897  19.192  0.00  0.00    +0.000 A 
BRANCH   6   8
ATOM      8  O   UNL     1       0.835  11.165  18.834  0.00  0.00    +0.000 OA
BRANCH   8   9
ATOM      9  C   UNL     1       0.245  12.353  19.227  0.00  0.00    +0.000 C 
BRANCH   9  10
ATOM     10  C   UNL     1       1.283  13.408  19.470  0.00  0.00    +0.000 A 
ATOM     11  C   UNL     1       1.371  14.538  18.639  0.00  0.00    +0.000 A 
ATOM     12  C   UNL     1       2.318  15.532  18.904  0.00  0.00    +0.000 A 
ATOM     13  C   UNL     1       3.178  15.408  19.998  0.00  0.00    +0.000 A 
ATOM     14  C   UNL     1       3.097  14.284  20.827  0.00  0.00    +0.000 A 
ATOM     15  C   UNL     1       2.156  13.286  20.563  0.00  0.00    +0.000 A 
ENDBRANCH   9  10
ENDBRANCH   8   9
ENDBRANCH   6   8
ENDBRANCH   1   2
BRANCH   1  16
ATOM     16  O   UNL     1       2.646   6.583  18.142  0.00  0.00    +0.000 OA
ATOM     17  H   UNL     1       3.619   6.595  17.948  0.00  0.00    +0.000 HD
ENDBRANCH   1  16
BRANCH   1  18
ATOM     18  C   UNL     1       1.771   5.269  20.013  0.00  0.00    +0.000 C 
BRANCH  18  19
ATOM     19  N   UNL     1       1.650   4.288  18.924  0.00  0.00    +0.000 NA
ATOM     20  H   UNL     1       0.714   4.420  18.475  0.00  0.00    +0.000 HD
BRANCH  19  21
ATOM     21  C   UNL     1       1.736   2.890  19.403  0.00  0.00    +0.000 C 
ATOM     22  C   UNL     1       1.869   2.821  20.939  0.00  0.00    +0.000 C 
BRANCH  21  23
ATOM     23  C   UNL     1       2.953   2.208  18.735  0.00  0.00    +0.000 C 
BRANCH  23  27
ATOM     24  C   UNL     1       5.995   5.029  17.462  0.00  0.00    +0.000 A 
ATOM     25  C   UNL     1       5.892   4.648  18.816  0.00  0.00    +0.000 A 
ATOM     26  C   UNL     1       4.913   3.739  19.221  0.00  0.00    +0.000 A 
ATOM     27  C   UNL     1       4.010   3.198  18.292  0.00  0.00    +0.000 A 
ATOM     28  C   UNL     1       4.107   3.581  16.945  0.00  0.00    +0.000 A 
ATOM     29  C   UNL     1       5.092   4.485  16.533  0.00  0.00    +0.000 A 
BRANCH  24  30
ATOM     30  C   UNL     1       7.047   5.979  17.020  0.00  0.00    +0.000 C 
ATOM     31  O   UNL     1       7.420   5.976  15.855  0.00  0.00    +0.000 OA
BRANCH  30  33
ATOM     32  C   UNL     1       7.818   8.203  17.649  0.00  0.00    +0.000 C 
ATOM     33  O   UNL     1       7.566   6.869  17.908  0.00  0.00    +0.000 OA
ENDBRANCH  30  33
ENDBRANCH  24  30
ENDBRANCH  23  27
ENDBRANCH  21  23
ENDBRANCH  19  21
ENDBRANCH  18  19
ENDBRANCH   1  18
TORSDOF 12
ENDMDL
MODEL 8
REMARK VINA RESULT:      -7.2      2.915      5.273
REMARK  Name = 
REMARK  14 active torsions:
REMARK  status: ('A' for Active; 'I' for Inactive)
REMARK    1  A    between atoms: C_1  and  O_2
REMARK    2  A    between atoms: O_2  and  C_3
REMARK    3  A    between atoms: C_3  and  C_5
REMARK    4  A    between atoms: C_8  and  C_9
REMARK    5  A    between atoms: C_9  and  C_10
REMARK    6  A    between atoms: C_10  and  C_11
REMARK    7  A    between atoms: C_10  and  N_12
REMARK    8  A    between atoms: N_12  and  C_13
REMARK    9  A    between atoms: C_13  and  C_14
REMARK   10  A    between atoms: C_14  and  O_15
REMARK   11  A    between atoms: C_14  and  C_16
REMARK   12  A    between atoms: C_20  and  O_21
REMARK   13  A    between atoms: O_21  and  C_22
REMARK   14  A    between atoms: C_22  and  C_23
REMARK                            x       y       z     vdW  Elec       q    Type
REMARK                         _______ _______ _______ _____ _____    ______ ____
ROOT
ATOM      1  C   UNL     1       4.571   3.105  19.338  0.00  0.00    +0.000 C 
ENDROOT
BRANCH   1   2
ATOM      2  C   UNL     1       3.510   4.051  18.807  0.00  0.00    +0.000 A 
ATOM      3  C   UNL     1       2.400   3.577  18.089  0.00  0.00    +0.000 A 
ATOM      4  C   UNL     1       1.427   4.468  17.627  0.00  0.00    +0.000 A 
ATOM      5  C   UNL     1       1.551   5.838  17.876  0.00  0.00    +0.000 A 
ATOM      6  C   UNL     1       2.642   6.332  18.603  0.00  0.00    +0.000 A 
ATOM      7  C   UNL     1       3.620   5.426  19.065  0.00  0.00    +0.000 A 
BRANCH   6   8
ATOM      8  O   UNL     1       2.720   7.669  18.845  0.00  0.00    +0.000 OA
BRANCH   8   9
ATOM      9  C   UNL     1       1.723   8.581  18.548  0.00  0.00    +0.000 C 
BRANCH   9  10
ATOM     10  C   UNL     1       1.057   9.069  19.800  0.00  0.00    +0.000 A 
ATOM     11  C   UNL     1       1.331   8.471  21.042  0.00  0.00    +0.000 A 
ATOM     12  C   UNL     1       0.732   8.965  22.205  0.00  0.00    +0.000 A 
ATOM     13  C   UNL     1      -0.138  10.057  22.137  0.00  0.00    +0.000 A 
ATOM     14  C   UNL     1      -0.416  10.653  20.904  0.00  0.00    +0.000 A 
ATOM     15  C   UNL     1       0.176  10.160  19.738  0.00  0.00    +0.000 A 
ENDBRANCH   9  10
ENDBRANCH   8   9
ENDBRANCH   6   8
ENDBRANCH   1   2
BRANCH   1  16
ATOM     16  O   UNL     1       4.173   2.533  20.560  0.00  0.00    +0.000 OA
ATOM     17  H   UNL     1       3.444   3.090  20.939  0.00  0.00    +0.000 HD
ENDBRANCH   1  16
BRANCH   1  18
ATOM     18  C   UNL     1       5.923   3.830  19.444  0.00  0.00    +0.000 C 
BRANCH  18  19
ATOM     19  N   UNL     1       6.567   3.960  18.129  0.00  0.00    +0.000 NA
ATOM     20  H   UNL     1       7.110   3.082  17.948  0.00  0.00    +0.000 HD
BRANCH  19  21
ATOM     21  C   UNL     1       7.507   5.101  18.064  0.00  0.00    +0.000 C 
ATOM     22  C   UNL     1       7.550   5.880  19.395  0.00  0.00    +0.000 C 
BRANCH  21  23
ATOM     23  C   UNL     1       7.072   6.040  16.915  0.00  0.00    +0.000 C 
BRANCH  23  27
ATOM     24  C   UNL     1       5.947   3.870  13.330  0.00  0.00    +0.000 A 
ATOM     25  C   UNL     1       7.173   4.563  13.393  0.00  0.00    +0.000 A 
ATOM     26  C   UNL     1       7.533   5.259  14.549  0.00  0.00    +0.000 A 
ATOM     27  C   UNL     1       6.676   5.289  15.661  0.00  0.00    +0.000 A 
ATOM     28  C   UNL     1       5.452   4.604  15.598  0.00  0.00    +0.000 A 
ATOM     29  C   UNL     1       5.092   3.899  14.445  0.00  0.00    +0.000 A 
BRANCH  24  30
ATOM     30  C   UNL     1       5.567   3.110  12.112  0.00  0.00    +0.000 C 
ATOM     31  O   UNL     1       4.485   3.314  11.579  0.00  0.00    +0.000 OA
BRANCH  30  33
ATOM     32  C   UNL     1       6.097   1.005  11.006  0.00  0.00    +0.000 C 
ATOM     33  O   UNL     1       6.441   2.216  11.578  0.00  0.00    +0.000 OA
ENDBRANCH  30  33
ENDBRANCH  24  30
ENDBRANCH  23  27
ENDBRANCH  21  23
ENDBRANCH  19  21
ENDBRANCH  18  19
ENDBRANCH   1  18
TORSDOF 12
ENDMDL
MODEL 9
REMARK VINA RESULT:      -7.2      2.102      9.353
REMARK  Name = 
REMARK  14 active torsions:
REMARK  status: ('A' for Active; 'I' for Inactive)
REMARK    1  A    between atoms: C_1  and  O_2
REMARK    2  A    between atoms: O_2  and  C_3
REMARK    3  A    between atoms: C_3  and  C_5
REMARK    4  A    between atoms: C_8  and  C_9
REMARK    5  A    between atoms: C_9  and  C_10
REMARK    6  A    between atoms: C_10  and  C_11
REMARK    7  A    between atoms: C_10  and  N_12
REMARK    8  A    between atoms: N_12  and  C_13
REMARK    9  A    between atoms: C_13  and  C_14
REMARK   10  A    between atoms: C_14  and  O_15
REMARK   11  A    between atoms: C_14  and  C_16
REMARK   12  A    between atoms: C_20  and  O_21
REMARK   13  A    between atoms: O_21  and  C_22
REMARK   14  A    between atoms: C_22  and  C_23
REMARK                            x       y       z     vdW  Elec       q    Type
REMARK                         _______ _______ _______ _____ _____    ______ ____
ROOT
ATOM      1  C   UNL     1       2.486   5.984  20.331  0.00  0.00    +0.000 C 
ENDROOT
BRANCH   1   2
ATOM      2  C   UNL     1       2.589   4.993  19.186  0.00  0.00    +0.000 A 
ATOM      3  C   UNL     1       1.707   3.905  19.077  0.00  0.00    +0.000 A 
ATOM      4  C   UNL     1       1.812   3.018  18.002  0.00  0.00    +0.000 A 
ATOM      5  C   UNL     1       2.797   3.205  17.027  0.00  0.00    +0.000 A 
ATOM      6  C   UNL     1       3.678   4.291  17.107  0.00  0.00    +0.000 A 
ATOM      7  C   UNL     1       3.566   5.181  18.196  0.00  0.00    +0.000 A 
BRANCH   6   8
ATOM      8  O   UNL     1       4.610   4.454  16.130  0.00  0.00    +0.000 OA
BRANCH   8   9
ATOM      9  C   UNL     1       5.947   4.120  16.253  0.00  0.00    +0.000 C 
BRANCH   9  10
ATOM     10  C   UNL     1       6.671   5.124  17.100  0.00  0.00    +0.000 A 
ATOM     11  C   UNL     1       7.273   4.744  18.312  0.00  0.00    +0.000 A 
ATOM     12  C   UNL     1       7.979   5.684  19.069  0.00  0.00    +0.000 A 
ATOM     13  C   UNL     1       8.091   7.003  18.623  0.00  0.00    +0.000 A 
ATOM     14  C   UNL     1       7.491   7.387  17.420  0.00  0.00    +0.000 A 
ATOM     15  C   UNL     1       6.780   6.453  16.662  0.00  0.00    +0.000 A 
ENDBRANCH   9  10
ENDBRANCH   8   9
ENDBRANCH   6   8
ENDBRANCH   1   2
BRANCH   1  16
ATOM     16  O   UNL     1       2.452   5.321  21.571  0.00  0.00    +0.000 OA
ATOM     17  H   UNL     1       2.138   5.965  22.257  0.00  0.00    +0.000 HD
ENDBRANCH   1  16
BRANCH   1  18
ATOM     18  C   UNL     1       1.273   6.906  20.127  0.00  0.00    +0.000 C 
BRANCH  18  19
ATOM     19  N   UNL     1       1.677   8.318  20.060  0.00  0.00    +0.000 NA
ATOM     20  H   UNL     1       2.713   8.364  20.208  0.00  0.00    +0.000 HD
BRANCH  19  21
ATOM     21  C   UNL     1       1.028   9.147  21.101  0.00  0.00    +0.000 C 
ATOM     22  C   UNL     1      -0.362   8.597  21.483  0.00  0.00    +0.000 C 
BRANCH  21  23
ATOM     23  C   UNL     1       0.898  10.595  20.575  0.00  0.00    +0.000 C 
BRANCH  23  27
ATOM     24  C   UNL     1      -2.532  11.114  17.967  0.00  0.00    +0.000 A 
ATOM     25  C   UNL     1      -1.482  10.245  17.606  0.00  0.00    +0.000 A 
ATOM     26  C   UNL     1      -0.381  10.079  18.449  0.00  0.00    +0.000 A 
ATOM     27  C   UNL     1      -0.296  10.782  19.661  0.00  0.00    +0.000 A 
ATOM     28  C   UNL     1      -1.337  11.652  20.019  0.00  0.00    +0.000 A 
ATOM     29  C   UNL     1      -2.446  11.815  19.181  0.00  0.00    +0.000 A 
BRANCH  24  30
ATOM     30  C   UNL     1      -3.716  11.279  17.086  0.00  0.00    +0.000 C 
ATOM     31  O   UNL     1      -3.657  10.930  15.916  0.00  0.00    +0.000 OA
BRANCH  30  33
ATOM     32  C   UNL     1      -5.905  11.046  18.130  0.00  0.00    +0.000 C 
ATOM     33  O   UNL     1      -4.868  11.789  17.597  0.00  0.00    +0.000 OA
ENDBRANCH  30  33
ENDBRANCH  24  30
ENDBRANCH  23  27
ENDBRANCH  21  23
ENDBRANCH  19  21
ENDBRANCH  18  19
ENDBRANCH   1  18
TORSDOF 12
ENDMDL
