MODEL 1
REMARK VINA RESULT:      -6.8      0.000      0.000
REMARK  Name = 
REMARK  5 active torsions:
REMARK  status: ('A' for Active; 'I' for Inactive)
REMARK    1  A    between atoms: C_1  and  O_2
REMARK    2  A    between atoms: O_2  and  C_3
REMARK    3  A    between atoms: C_13  and  C_14
REMARK    4  A    between atoms: N_22  and  C_23
REMARK    5  A    between atoms: C_25  and  C_26
REMARK                            x       y       z     vdW  Elec       q    Type
REMARK                         _______ _______ _______ _____ _____    ______ ____
ROOT
ATOM      1  C   UNL     1      -3.524  12.928  23.192  0.00  0.00    +0.000 A 
ATOM      2  C   UNL     1      -2.660  11.953  23.739  0.00  0.00    +0.000 A 
ATOM      3  C   UNL     1      -1.536  11.467  23.031  0.00  0.00    +0.000 A 
ATOM      4  C   UNL     1      -1.227  12.025  21.806  0.00  0.00    +0.000 A 
ATOM      5  C   UNL     1      -1.990  13.156  21.407  0.00  0.00    +0.000 A 
ATOM      6  C   UNL     1      -3.194  13.498  21.978  0.00  0.00    +0.000 A 
ATOM      7  S   UNL     1      -1.322  13.948  19.971  0.00  0.00    +0.000 S 
ATOM      8  C   UNL     1      -0.626  12.404  19.631  0.00  0.00    +0.000 C 
ATOM      9  N   UNL     1      -0.772  12.013  18.405  0.00  0.00    +0.000 NA
ATOM     10  C   UNL     1      -0.820  10.639  18.244  0.00  0.00    +0.000 C 
ATOM     11  C   UNL     1      -1.845  10.126  17.543  0.00  0.00    +0.000 C 
ATOM     12  C   UNL     1      -0.062   9.827  19.194  0.00  0.00    +0.000 C 
ATOM     13  C   UNL     1       0.120  10.307  20.461  0.00  0.00    +0.000 C 
ATOM     14  C   UNL     1       0.946   9.509  21.448  0.00  0.00    +0.000 C 
ATOM     15  N   UNL     1      -0.327  11.612  20.758  0.00  0.00    +0.000 N 
ENDROOT
BRANCH  11  16
ATOM     16  C   UNL     1      -3.094  10.822  17.654  0.00  0.00    +0.000 A 
ATOM     17  O   UNL     1      -3.661  11.079  18.896  0.00  0.00    +0.000 OA
ATOM     18  C   UNL     1      -4.843  11.726  18.603  0.00  0.00    +0.000 A 
ATOM     19  C   UNL     1      -5.878  12.032  19.479  0.00  0.00    +0.000 A 
ATOM     20  C   UNL     1      -7.023  12.595  18.894  0.00  0.00    +0.000 A 
ATOM     21  C   UNL     1      -7.067  12.931  17.534  0.00  0.00    +0.000 A 
ATOM     22  C   UNL     1      -5.996  12.637  16.676  0.00  0.00    +0.000 A 
ATOM     23  C   UNL     1      -4.909  11.952  17.228  0.00  0.00    +0.000 A 
ATOM     24  N   UNL     1      -3.833  11.291  16.658  0.00  0.00    +0.000 N 
ATOM     25  C   UNL     1      -3.742  10.875  15.288  0.00  0.00    +0.000 C 
ENDBRANCH  11  16
BRANCH   1  27
ATOM     26  C   UNL     1      -5.923  12.983  23.338  0.00  0.00    +0.000 C 
ATOM     27  O   UNL     1      -4.638  13.246  23.913  0.00  0.00    +0.000 OA
ENDBRANCH   1  27
TORSDOF 2
ENDMDL
MODEL 2
REMARK VINA RESULT:      -6.3     11.220     13.157
REMARK  Name = 
REMARK  5 active torsions:
REMARK  status: ('A' for Active; 'I' for Inactive)
REMARK    1  A    between atoms: C_1  and  O_2
REMARK    2  A    between atoms: O_2  and  C_3
REMARK    3  A    between atoms: C_13  and  C_14
REMARK    4  A    between atoms: N_22  and  C_23
REMARK    5  A    between atoms: C_25  and  C_26
REMARK                            x       y       z     vdW  Elec       q    Type
REMARK                         _______ _______ _______ _____ _____    ______ ____
ROOT
ATOM      1  C   UNL     1       7.395  12.465  24.365  0.00  0.00    +0.000 A 
ATOM      2  C   UNL     1       8.129  13.113  25.384  0.00  0.00    +0.000 A 
ATOM      3  C   UNL     1       8.737  14.374  25.183  0.00  0.00    +0.000 A 
ATOM      4  C   UNL     1       8.533  15.029  23.983  0.00  0.00    +0.000 A 
ATOM      5  C   UNL     1       7.603  14.443  23.084  0.00  0.00    +0.000 A 
ATOM      6  C   UNL     1       7.176  13.138  23.179  0.00  0.00    +0.000 A 
ATOM      7  S   UNL     1       7.216  15.508  21.723  0.00  0.00    +0.000 S 
ATOM      8  C   UNL     1       8.755  16.224  22.045  0.00  0.00    +0.000 C 
ATOM      9  N   UNL     1       9.484  16.414  20.991  0.00  0.00    +0.000 NA
ATOM     10  C   UNL     1      10.848  16.370  21.224  0.00  0.00    +0.000 C 
ATOM     11  C   UNL     1      11.591  15.566  20.444  0.00  0.00    +0.000 C 
ATOM     12  C   UNL     1      11.318  16.808  22.537  0.00  0.00    +0.000 C 
ATOM     13  C   UNL     1      10.490  16.645  23.613  0.00  0.00    +0.000 C 
ATOM     14  C   UNL     1      10.932  17.139  24.974  0.00  0.00    +0.000 C 
ATOM     15  N   UNL     1       9.179  16.172  23.389  0.00  0.00    +0.000 N 
ENDROOT
BRANCH  11  16
ATOM     16  C   UNL     1      10.958  14.358  20.003  0.00  0.00    +0.000 A 
ATOM     17  O   UNL     1      10.570  13.381  20.912  0.00  0.00    +0.000 OA
ATOM     18  C   UNL     1      10.036  12.380  20.128  0.00  0.00    +0.000 A 
ATOM     19  C   UNL     1       9.675  11.097  20.526  0.00  0.00    +0.000 A 
ATOM     20  C   UNL     1       9.260  10.237  19.497  0.00  0.00    +0.000 A 
ATOM     21  C   UNL     1       9.110  10.684  18.177  0.00  0.00    +0.000 A 
ATOM     22  C   UNL     1       9.454  11.992  17.808  0.00  0.00    +0.000 A 
ATOM     23  C   UNL     1       9.998  12.812  18.802  0.00  0.00    +0.000 A 
ATOM     24  N   UNL     1      10.667  14.024  18.753  0.00  0.00    +0.000 N 
ATOM     25  C   UNL     1      11.255  14.604  17.580  0.00  0.00    +0.000 C 
ENDBRANCH  11  16
BRANCH   1  27
ATOM     26  C   UNL     1       5.778  11.052  25.444  0.00  0.00    +0.000 C 
ATOM     27  O   UNL     1       6.944  11.205  24.628  0.00  0.00    +0.000 OA
ENDBRANCH   1  27
TORSDOF 2
ENDMDL
MODEL 3
REMARK VINA RESULT:      -6.2      2.501      5.168
REMARK  Name = 
REMARK  5 active torsions:
REMARK  status: ('A' for Active; 'I' for Inactive)
REMARK    1  A    between atoms: C_1  and  O_2
REMARK    2  A    between atoms: O_2  and  C_3
REMARK    3  A    between atoms: C_13  and  C_14
REMARK    4  A    between atoms: N_22  and  C_23
REMARK    5  A    between atoms: C_25  and  C_26
REMARK                            x       y       z     vdW  Elec       q    Type
REMARK                         _______ _______ _______ _____ _____    ______ ____
ROOT
ATOM      1  C   UNL     1       0.238  10.814  19.247  0.00  0.00    +0.000 A 
ATOM      2  C   UNL     1       1.158  11.885  19.301  0.00  0.00    +0.000 A 
ATOM      3  C   UNL     1       1.126  12.849  20.336  0.00  0.00    +0.000 A 
ATOM      4  C   UNL     1       0.222  12.688  21.369  0.00  0.00    +0.000 A 
ATOM      5  C   UNL     1      -0.520  11.477  21.387  0.00  0.00    +0.000 A 
ATOM      6  C   UNL     1      -0.644  10.647  20.296  0.00  0.00    +0.000 A 
ATOM      7  S   UNL     1      -1.423  11.261  22.895  0.00  0.00    +0.000 S 
ATOM      8  C   UNL     1      -1.347  12.983  23.007  0.00  0.00    +0.000 C 
ATOM      9  N   UNL     1      -2.473  13.547  23.310  0.00  0.00    +0.000 NA
ATOM     10  C   UNL     1      -2.623  14.830  22.813  0.00  0.00    +0.000 C 
ATOM     11  C   UNL     1      -3.743  15.109  22.126  0.00  0.00    +0.000 C 
ATOM     12  C   UNL     1      -1.411  15.634  22.658  0.00  0.00    +0.000 C 
ATOM     13  C   UNL     1      -0.232  14.991  22.399  0.00  0.00    +0.000 C 
ATOM     14  C   UNL     1       1.045  15.797  22.286  0.00  0.00    +0.000 C 
ATOM     15  N   UNL     1      -0.217  13.580  22.412  0.00  0.00    +0.000 N 
ENDROOT
BRANCH  11  16
ATOM     16  C   UNL     1      -4.290  14.033  21.351  0.00  0.00    +0.000 A 
ATOM     17  O   UNL     1      -3.561  13.453  20.320  0.00  0.00    +0.000 OA
ATOM     18  C   UNL     1      -4.408  12.495  19.803  0.00  0.00    +0.000 A 
ATOM     19  C   UNL     1      -4.239  11.760  18.635  0.00  0.00    +0.000 A 
ATOM     20  C   UNL     1      -5.313  10.929  18.280  0.00  0.00    +0.000 A 
ATOM     21  C   UNL     1      -6.428  10.768  19.113  0.00  0.00    +0.000 A 
ATOM     22  C   UNL     1      -6.561  11.500  20.302  0.00  0.00    +0.000 A 
ATOM     23  C   UNL     1      -5.558  12.431  20.591  0.00  0.00    +0.000 A 
ATOM     24  N   UNL     1      -5.482  13.474  21.500  0.00  0.00    +0.000 N 
ATOM     25  C   UNL     1      -6.597  14.062  22.186  0.00  0.00    +0.000 C 
ENDBRANCH  11  16
BRANCH   1  27
ATOM     26  C   UNL     1       1.494   9.279  17.889  0.00  0.00    +0.000 C 
ATOM     27  O   UNL     1       0.288  10.006  18.149  0.00  0.00    +0.000 OA
ENDBRANCH   1  27
TORSDOF 2
ENDMDL
MODEL 4
REMARK VINA RESULT:      -6.1      2.627      5.081
REMARK  Name = 
REMARK  5 active torsions:
REMARK  status: ('A' for Active; 'I' for Inactive)
REMARK    1  A    between atoms: C_1  and  O_2
REMARK    2  A    between atoms: O_2  and  C_3
REMARK    3  A    between atoms: C_13  and  C_14
REMARK    4  A    between atoms: N_22  and  C_23
REMARK    5  A    between atoms: C_25  and  C_26
REMARK                            x       y       z     vdW  Elec       q    Type
REMARK                         _______ _______ _______ _____ _____    ______ ____
ROOT
ATOM      1  C   UNL     1       1.219  13.369  20.854  0.00  0.00    +0.000 A 
ATOM      2  C   UNL     1       1.120  14.603  21.537  0.00  0.00    +0.000 A 
ATOM      3  C   UNL     1       0.083  14.865  22.462  0.00  0.00    +0.000 A 
ATOM      4  C   UNL     1      -0.809  13.855  22.769  0.00  0.00    +0.000 A 
ATOM      5  C   UNL     1      -0.530  12.570  22.232  0.00  0.00    +0.000 A 
ATOM      6  C   UNL     1       0.339  12.358  21.186  0.00  0.00    +0.000 A 
ATOM      7  S   UNL     1      -1.568  11.311  22.919  0.00  0.00    +0.000 S 
ATOM      8  C   UNL     1      -2.667  12.606  23.235  0.00  0.00    +0.000 C 
ATOM      9  N   UNL     1      -3.893  12.357  22.898  0.00  0.00    +0.000 NA
ATOM     10  C   UNL     1      -4.626  13.476  22.543  0.00  0.00    +0.000 C 
ATOM     11  C   UNL     1      -5.286  13.447  21.372  0.00  0.00    +0.000 C 
ATOM     12  C   UNL     1      -4.280  14.738  23.194  0.00  0.00    +0.000 C 
ATOM     13  C   UNL     1      -2.986  14.933  23.590  0.00  0.00    +0.000 C 
ATOM     14  C   UNL     1      -2.613  16.210  24.314  0.00  0.00    +0.000 C 
ATOM     15  N   UNL     1      -2.074  13.864  23.460  0.00  0.00    +0.000 N 
ENDROOT
BRANCH  11  16
ATOM     16  C   UNL     1      -4.660  12.706  20.316  0.00  0.00    +0.000 A 
ATOM     17  O   UNL     1      -3.300  12.834  20.062  0.00  0.00    +0.000 OA
ATOM     18  C   UNL     1      -3.078  12.007  18.981  0.00  0.00    +0.000 A 
ATOM     19  C   UNL     1      -1.923  11.914  18.212  0.00  0.00    +0.000 A 
ATOM     20  C   UNL     1      -2.004  11.069  17.095  0.00  0.00    +0.000 A 
ATOM     21  C   UNL     1      -3.137  10.284  16.844  0.00  0.00    +0.000 A 
ATOM     22  C   UNL     1      -4.280  10.375  17.653  0.00  0.00    +0.000 A 
ATOM     23  C   UNL     1      -4.254  11.317  18.687  0.00  0.00    +0.000 A 
ATOM     24  N   UNL     1      -5.247  11.850  19.492  0.00  0.00    +0.000 N 
ATOM     25  C   UNL     1      -6.656  11.777  19.233  0.00  0.00    +0.000 C 
ENDBRANCH  11  16
BRANCH   1  27
ATOM     26  C   UNL     1       1.896  12.547  18.700  0.00  0.00    +0.000 C 
ATOM     27  O   UNL     1       2.192  13.261  19.905  0.00  0.00    +0.000 OA
ENDBRANCH   1  27
TORSDOF 2
ENDMDL
MODEL 5
REMARK VINA RESULT:      -5.9      2.810      5.253
REMARK  Name = 
REMARK  5 active torsions:
REMARK  status: ('A' for Active; 'I' for Inactive)
REMARK    1  A    between atoms: C_1  and  O_2
REMARK    2  A    between atoms: O_2  and  C_3
REMARK    3  A    between atoms: C_13  and  C_14
REMARK    4  A    between atoms: N_22  and  C_23
REMARK    5  A    between atoms: C_25  and  C_26
REMARK                            x       y       z     vdW  Elec       q    Type
REMARK                         _______ _______ _______ _____ _____    ______ ____
ROOT
ATOM      1  C   UNL     1       0.070  14.323  22.461  0.00  0.00    +0.000 A 
ATOM      2  C   UNL     1      -0.457  15.586  22.816  0.00  0.00    +0.000 A 
ATOM      3  C   UNL     1      -1.820  15.760  23.153  0.00  0.00    +0.000 A 
ATOM      4  C   UNL     1      -2.638  14.649  23.221  0.00  0.00    +0.000 A 
ATOM      5  C   UNL     1      -2.010  13.382  23.080  0.00  0.00    +0.000 A 
ATOM      6  C   UNL     1      -0.749  13.215  22.555  0.00  0.00    +0.000 A 
ATOM      7  S   UNL     1      -3.101  12.042  23.465  0.00  0.00    +0.000 S 
ATOM      8  C   UNL     1      -4.361  13.152  23.059  0.00  0.00    +0.000 C 
ATOM      9  N   UNL     1      -5.273  12.661  22.282  0.00  0.00    +0.000 NA
ATOM     10  C   UNL     1      -5.889  13.593  21.464  0.00  0.00    +0.000 C 
ATOM     11  C   UNL     1      -5.951  13.328  20.148  0.00  0.00    +0.000 C 
ATOM     12  C   UNL     1      -6.009  14.957  21.975  0.00  0.00    +0.000 C 
ATOM     13  C   UNL     1      -5.056  15.414  22.843  0.00  0.00    +0.000 C 
ATOM     14  C   UNL     1      -5.187  16.805  23.428  0.00  0.00    +0.000 C 
ATOM     15  N   UNL     1      -4.071  14.511  23.297  0.00  0.00    +0.000 N 
ENDROOT
BRANCH  11  16
ATOM     16  C   UNL     1      -4.844  12.599  19.601  0.00  0.00    +0.000 A 
ATOM     17  O   UNL     1      -3.537  12.912  19.956  0.00  0.00    +0.000 OA
ATOM     18  C   UNL     1      -2.767  12.034  19.222  0.00  0.00    +0.000 A 
ATOM     19  C   UNL     1      -1.385  12.051  19.064  0.00  0.00    +0.000 A 
ATOM     20  C   UNL     1      -0.865  11.106  18.166  0.00  0.00    +0.000 A 
ATOM     21  C   UNL     1      -1.677  10.136  17.563  0.00  0.00    +0.000 A 
ATOM     22  C   UNL     1      -3.066  10.123  17.762  0.00  0.00    +0.000 A 
ATOM     23  C   UNL     1      -3.606  11.147  18.547  0.00  0.00    +0.000 A 
ATOM     24  N   UNL     1      -4.903  11.591  18.742  0.00  0.00    +0.000 N 
ATOM     25  C   UNL     1      -6.025  11.279  17.903  0.00  0.00    +0.000 C 
ENDBRANCH  11  16
BRANCH   1  27
ATOM     26  C   UNL     1       1.654  13.817  20.726  0.00  0.00    +0.000 C 
ATOM     27  O   UNL     1       1.369  14.285  22.048  0.00  0.00    +0.000 OA
ENDBRANCH   1  27
TORSDOF 2
ENDMDL
MODEL 6
REMARK VINA RESULT:      -5.9      2.765      5.686
REMARK  Name = 
REMARK  5 active torsions:
REMARK  status: ('A' for Active; 'I' for Inactive)
REMARK    1  A    between atoms: C_1  and  O_2
REMARK    2  A    between atoms: O_2  and  C_3
REMARK    3  A    between atoms: C_13  and  C_14
REMARK    4  A    between atoms: N_22  and  C_23
REMARK    5  A    between atoms: C_25  and  C_26
REMARK                            x       y       z     vdW  Elec       q    Type
REMARK                         _______ _______ _______ _____ _____    ______ ____
ROOT
ATOM      1  C   UNL     1      -1.409  12.427  19.096  0.00  0.00    +0.000 A 
ATOM      2  C   UNL     1      -0.709  13.653  19.142  0.00  0.00    +0.000 A 
ATOM      3  C   UNL     1      -0.586  14.401  20.337  0.00  0.00    +0.000 A 
ATOM      4  C   UNL     1      -1.092  13.872  21.509  0.00  0.00    +0.000 A 
ATOM      5  C   UNL     1      -1.580  12.540  21.453  0.00  0.00    +0.000 A 
ATOM      6  C   UNL     1      -1.889  11.895  20.277  0.00  0.00    +0.000 A 
ATOM      7  S   UNL     1      -1.933  11.881  23.058  0.00  0.00    +0.000 S 
ATOM      8  C   UNL     1      -2.115  13.533  23.527  0.00  0.00    +0.000 C 
ATOM      9  N   UNL     1      -3.173  13.772  24.236  0.00  0.00    +0.000 NA
ATOM     10  C   UNL     1      -3.679  15.052  24.095  0.00  0.00    +0.000 C 
ATOM     11  C   UNL     1      -4.985  15.182  23.809  0.00  0.00    +0.000 C 
ATOM     12  C   UNL     1      -2.724  16.122  23.808  0.00  0.00    +0.000 C 
ATOM     13  C   UNL     1      -1.590  15.813  23.110  0.00  0.00    +0.000 C 
ATOM     14  C   UNL     1      -0.561  16.892  22.846  0.00  0.00    +0.000 C 
ATOM     15  N   UNL     1      -1.336  14.459  22.803  0.00  0.00    +0.000 N 
ENDROOT
BRANCH  11  16
ATOM     16  C   UNL     1      -5.554  14.154  22.987  0.00  0.00    +0.000 A 
ATOM     17  O   UNL     1      -4.976  13.810  21.770  0.00  0.00    +0.000 OA
ATOM     18  C   UNL     1      -5.801  12.826  21.269  0.00  0.00    +0.000 A 
ATOM     19  C   UNL     1      -5.780  12.276  19.991  0.00  0.00    +0.000 A 
ATOM     20  C   UNL     1      -6.810  11.366  19.705  0.00  0.00    +0.000 A 
ATOM     21  C   UNL     1      -7.726  10.956  20.683  0.00  0.00    +0.000 A 
ATOM     22  C   UNL     1      -7.707  11.506  21.974  0.00  0.00    +0.000 A 
ATOM     23  C   UNL     1      -6.769  12.513  22.223  0.00  0.00    +0.000 A 
ATOM     24  N   UNL     1      -6.633  13.430  23.252  0.00  0.00    +0.000 N 
ATOM     25  C   UNL     1      -7.653  13.776  24.200  0.00  0.00    +0.000 C 
ENDBRANCH  11  16
BRANCH   1  27
ATOM     26  C   UNL     1      -2.860  11.379  17.492  0.00  0.00    +0.000 C 
ATOM     27  O   UNL     1      -1.561  11.843  17.873  0.00  0.00    +0.000 OA
ENDBRANCH   1  27
TORSDOF 2
ENDMDL
MODEL 7
REMARK VINA RESULT:      -5.9      3.758      7.023
REMARK  Name = 
REMARK  5 active torsions:
REMARK  status: ('A' for Active; 'I' for Inactive)
REMARK    1  A    between atoms: C_1  and  O_2
REMARK    2  A    between atoms: O_2  and  C_3
REMARK    3  A    between atoms: C_13  and  C_14
REMARK    4  A    between atoms: N_22  and  C_23
REMARK    5  A    between atoms: C_25  and  C_26
REMARK                            x       y       z     vdW  Elec       q    Type
REMARK                         _______ _______ _______ _____ _____    ______ ____
ROOT
ATOM      1  C   UNL     1       1.595   9.691  18.294  0.00  0.00    +0.000 A 
ATOM      2  C   UNL     1       1.368   8.970  19.488  0.00  0.00    +0.000 A 
ATOM      3  C   UNL     1       0.433   9.402  20.458  0.00  0.00    +0.000 A 
ATOM      4  C   UNL     1      -0.341  10.515  20.188  0.00  0.00    +0.000 A 
ATOM      5  C   UNL     1      -0.237  11.066  18.883  0.00  0.00    +0.000 A 
ATOM      6  C   UNL     1       0.800  10.787  18.023  0.00  0.00    +0.000 A 
ATOM      7  S   UNL     1      -1.472  12.296  18.570  0.00  0.00    +0.000 S 
ATOM      8  C   UNL     1      -1.501  12.484  20.287  0.00  0.00    +0.000 C 
ATOM      9  N   UNL     1      -1.473  13.715  20.688  0.00  0.00    +0.000 NA
ATOM     10  C   UNL     1      -0.881  13.900  21.925  0.00  0.00    +0.000 C 
ATOM     11  C   UNL     1       0.086  14.828  22.025  0.00  0.00    +0.000 C 
ATOM     12  C   UNL     1      -0.996  12.809  22.893  0.00  0.00    +0.000 C 
ATOM     13  C   UNL     1      -1.086  11.529  22.422  0.00  0.00    +0.000 C 
ATOM     14  C   UNL     1      -1.259  10.387  23.402  0.00  0.00    +0.000 C 
ATOM     15  N   UNL     1      -1.183  11.328  21.029  0.00  0.00    +0.000 N 
ENDROOT
BRANCH  11  16
ATOM     16  C   UNL     1       0.912  15.003  20.867  0.00  0.00    +0.000 A 
ATOM     17  O   UNL     1       1.695  13.961  20.383  0.00  0.00    +0.000 OA
ATOM     18  C   UNL     1       2.353  14.505  19.301  0.00  0.00    +0.000 A 
ATOM     19  C   UNL     1       3.400  13.942  18.578  0.00  0.00    +0.000 A 
ATOM     20  C   UNL     1       3.966  14.763  17.590  0.00  0.00    +0.000 A 
ATOM     21  C   UNL     1       3.430  16.020  17.279  0.00  0.00    +0.000 A 
ATOM     22  C   UNL     1       2.354  16.553  18.004  0.00  0.00    +0.000 A 
ATOM     23  C   UNL     1       1.875  15.797  19.079  0.00  0.00    +0.000 A 
ATOM     24  N   UNL     1       1.035  16.103  20.138  0.00  0.00    +0.000 N 
ATOM     25  C   UNL     1       0.683  17.427  20.565  0.00  0.00    +0.000 C 
ENDBRANCH  11  16
BRANCH   1  27
ATOM     26  C   UNL     1       3.074   7.909  17.652  0.00  0.00    +0.000 C 
ATOM     27  O   UNL     1       2.596   9.247  17.480  0.00  0.00    +0.000 OA
ENDBRANCH   1  27
TORSDOF 2
ENDMDL
MODEL 8
REMARK VINA RESULT:      -5.9     12.059     13.777
REMARK  Name = 
REMARK  5 active torsions:
REMARK  status: ('A' for Active; 'I' for Inactive)
REMARK    1  A    between atoms: C_1  and  O_2
REMARK    2  A    between atoms: O_2  and  C_3
REMARK    3  A    between atoms: C_13  and  C_14
REMARK    4  A    between atoms: N_22  and  C_23
REMARK    5  A    between atoms: C_25  and  C_26
REMARK                            x       y       z     vdW  Elec       q    Type
REMARK                         _______ _______ _______ _____ _____    ______ ____
ROOT
ATOM      1  C   UNL     1       8.132  14.318  23.876  0.00  0.00    +0.000 A 
ATOM      2  C   UNL     1       9.001  15.189  24.571  0.00  0.00    +0.000 A 
ATOM      3  C   UNL     1       9.711  16.221  23.913  0.00  0.00    +0.000 A 
ATOM      4  C   UNL     1       9.481  16.435  22.567  0.00  0.00    +0.000 A 
ATOM      5  C   UNL     1       8.433  15.686  21.970  0.00  0.00    +0.000 A 
ATOM      6  C   UNL     1       7.889  14.556  22.537  0.00  0.00    +0.000 A 
ATOM      7  S   UNL     1       8.048  16.247  20.335  0.00  0.00    +0.000 S 
ATOM      8  C   UNL     1       9.669  16.844  20.324  0.00  0.00    +0.000 C 
ATOM      9  N   UNL     1      10.331  16.567  19.246  0.00  0.00    +0.000 NA
ATOM     10  C   UNL     1      11.698  16.447  19.428  0.00  0.00    +0.000 C 
ATOM     11  C   UNL     1      12.298  15.340  18.958  0.00  0.00    +0.000 C 
ATOM     12  C   UNL     1      12.307  17.257  20.482  0.00  0.00    +0.000 C 
ATOM     13  C   UNL     1      11.551  17.578  21.575  0.00  0.00    +0.000 C 
ATOM     14  C   UNL     1      12.142  18.460  22.656  0.00  0.00    +0.000 C 
ATOM     15  N   UNL     1      10.188  17.215  21.582  0.00  0.00    +0.000 N 
ENDROOT
BRANCH  11  16
ATOM     16  C   UNL     1      11.519  14.137  18.998  0.00  0.00    +0.000 A 
ATOM     17  O   UNL     1      11.029  13.643  20.201  0.00  0.00    +0.000 OA
ATOM     18  C   UNL     1      10.368  12.485  19.848  0.00  0.00    +0.000 A 
ATOM     19  C   UNL     1       9.861  11.509  20.700  0.00  0.00    +0.000 A 
ATOM     20  C   UNL     1       9.332  10.371  20.071  0.00  0.00    +0.000 A 
ATOM     21  C   UNL     1       9.220  10.282  18.677  0.00  0.00    +0.000 A 
ATOM     22  C   UNL     1       9.714  11.295  17.841  0.00  0.00    +0.000 A 
ATOM     23  C   UNL     1      10.364  12.368  18.458  0.00  0.00    +0.000 A 
ATOM     24  N   UNL     1      11.173  13.380  17.966  0.00  0.00    +0.000 N 
ATOM     25  C   UNL     1      11.811  13.385  16.681  0.00  0.00    +0.000 C 
ENDBRANCH  11  16
BRANCH   1  27
ATOM     26  C   UNL     1       7.775  11.953  24.115  0.00  0.00    +0.000 C 
ATOM     27  O   UNL     1       7.582  13.291  24.586  0.00  0.00    +0.000 OA
ENDBRANCH   1  27
TORSDOF 2
ENDMDL
MODEL 9
REMARK VINA RESULT:      -5.8      3.078      5.773
REMARK  Name = 
REMARK  5 active torsions:
REMARK  status: ('A' for Active; 'I' for Inactive)
REMARK    1  A    between atoms: C_1  and  O_2
REMARK    2  A    between atoms: O_2  and  C_3
REMARK    3  A    between atoms: C_13  and  C_14
REMARK    4  A    between atoms: N_22  and  C_23
REMARK    5  A    between atoms: C_25  and  C_26
REMARK                            x       y       z     vdW  Elec       q    Type
REMARK                         _______ _______ _______ _____ _____    ______ ____
ROOT
ATOM      1  C   UNL     1      -1.644  13.470  20.098  0.00  0.00    +0.000 A 
ATOM      2  C   UNL     1      -1.391  14.824  20.414  0.00  0.00    +0.000 A 
ATOM      3  C   UNL     1      -1.988  15.457  21.529  0.00  0.00    +0.000 A 
ATOM      4  C   UNL     1      -2.773  14.704  22.382  0.00  0.00    +0.000 A 
ATOM      5  C   UNL     1      -2.809  13.303  22.150  0.00  0.00    +0.000 A 
ATOM      6  C   UNL     1      -2.410  12.720  20.969  0.00  0.00    +0.000 A 
ATOM      7  S   UNL     1      -3.607  12.421  23.462  0.00  0.00    +0.000 S 
ATOM      8  C   UNL     1      -4.411  13.919  23.772  0.00  0.00    +0.000 C 
ATOM      9  N   UNL     1      -5.689  13.809  23.953  0.00  0.00    +0.000 NA
ATOM     10  C   UNL     1      -6.417  14.925  23.581  0.00  0.00    +0.000 C 
ATOM     11  C   UNL     1      -7.465  14.745  22.760  0.00  0.00    +0.000 C 
ATOM     12  C   UNL     1      -5.761  16.226  23.709  0.00  0.00    +0.000 C 
ATOM     13  C   UNL     1      -4.402  16.286  23.572  0.00  0.00    +0.000 C 
ATOM     14  C   UNL     1      -3.694  17.612  23.753  0.00  0.00    +0.000 C 
ATOM     15  N   UNL     1      -3.685  15.079  23.433  0.00  0.00    +0.000 N 
ENDROOT
BRANCH  11  16
ATOM     16  C   UNL     1      -7.334  13.692  21.795  0.00  0.00    +0.000 A 
ATOM     17  O   UNL     1      -7.860  12.429  22.040  0.00  0.00    +0.000 OA
ATOM     18  C   UNL     1      -7.519  11.697  20.922  0.00  0.00    +0.000 A 
ATOM     19  C   UNL     1      -7.640  10.323  20.743  0.00  0.00    +0.000 A 
ATOM     20  C   UNL     1      -7.109   9.818  19.546  0.00  0.00    +0.000 A 
ATOM     21  C   UNL     1      -6.599  10.662  18.550  0.00  0.00    +0.000 A 
ATOM     22  C   UNL     1      -6.515  12.049  18.745  0.00  0.00    +0.000 A 
ATOM     23  C   UNL     1      -6.916  12.542  19.991  0.00  0.00    +0.000 A 
ATOM     24  N   UNL     1      -6.739  13.767  20.613  0.00  0.00    +0.000 N 
ATOM     25  C   UNL     1      -5.790  14.770  20.222  0.00  0.00    +0.000 C 
ENDBRANCH  11  16
BRANCH   1  27
ATOM     26  C   UNL     1      -1.274  11.603  18.630  0.00  0.00    +0.000 C 
ATOM     27  O   UNL     1      -1.105  12.990  18.940  0.00  0.00    +0.000 OA
ENDBRANCH   1  27
TORSDOF 2
ENDMDL
