MODEL 1
REMARK VINA RESULT:      -5.7      0.000      0.000
REMARK  Name = 
REMARK  0 active torsions:
REMARK  status: ('A' for Active; 'I' for Inactive)
REMARK                            x       y       z     vdW  Elec       q    Type
REMARK                         _______ _______ _______ _____ _____    ______ ____
ROOT
ATOM      1  O   UNL     1       7.693   7.601  17.057  0.00  0.00    +0.000 OA
ATOM      2  C   UNL     1       7.274   6.452  17.031  0.00  0.00    +0.000 C 
ATOM      3  C   UNL     1       7.482   5.434  18.111  0.00  0.00    +0.000 C 
ATOM      4  C   UNL     1       6.355   5.538  19.131  0.00  0.00    +0.000 C 
ATOM      5  C   UNL     1       4.940   5.374  18.534  0.00  0.00    +0.000 C 
ATOM      6  C   UNL     1       4.532   6.562  17.651  0.00  0.00    +0.000 C 
ATOM      7  C   UNL     1       5.096   6.544  16.226  0.00  0.00    +0.000 C 
ATOM      8  O   UNL     1       6.405   5.977  16.109  0.00  0.00    +0.000 OA
ATOM      9  O   UNL     1       4.861   4.150  17.790  0.00  0.00    +0.000 OA
ATOM     10  C   UNL     1       4.308   3.207  18.703  0.00  0.00    +0.000 C 
ATOM     11  C   UNL     1       3.353   4.047  19.504  0.00  0.00    +0.000 C 
ATOM     12  O   UNL     1       4.029   5.299  19.650  0.00  0.00    +0.000 OA
ENDROOT
TORSDOF 0
ENDMDL
MODEL 2
REMARK VINA RESULT:      -5.7      2.387      5.092
REMARK  Name = 
REMARK  0 active torsions:
REMARK  status: ('A' for Active; 'I' for Inactive)
REMARK                            x       y       z     vdW  Elec       q    Type
REMARK                         _______ _______ _______ _____ _____    ______ ____
ROOT
ATOM      1  O   UNL     1       0.236   2.190  18.492  0.00  0.00    +0.000 OA
ATOM      2  C   UNL     1       1.415   2.255  18.809  0.00  0.00    +0.000 C 
ATOM      3  C   UNL     1       2.571   2.073  17.873  0.00  0.00    +0.000 C 
ATOM      4  C   UNL     1       2.940   3.416  17.255  0.00  0.00    +0.000 C 
ATOM      5  C   UNL     1       3.278   4.518  18.283  0.00  0.00    +0.000 C 
ATOM      6  C   UNL     1       2.046   4.983  19.074  0.00  0.00    +0.000 C 
ATOM      7  C   UNL     1       1.632   4.076  20.237  0.00  0.00    +0.000 C 
ATOM      8  O   UNL     1       1.858   2.680  20.014  0.00  0.00    +0.000 OA
ATOM      9  O   UNL     1       4.299   4.056  19.178  0.00  0.00    +0.000 OA
ATOM     10  C   UNL     1       5.515   4.553  18.627  0.00  0.00    +0.000 C 
ATOM     11  C   UNL     1       5.099   5.880  18.058  0.00  0.00    +0.000 C 
ATOM     12  O   UNL     1       3.790   5.638  17.533  0.00  0.00    +0.000 OA
ENDROOT
TORSDOF 0
ENDMDL
MODEL 3
REMARK VINA RESULT:      -5.7      2.101      4.785
REMARK  Name = 
REMARK  0 active torsions:
REMARK  status: ('A' for Active; 'I' for Inactive)
REMARK                            x       y       z     vdW  Elec       q    Type
REMARK                         _______ _______ _______ _____ _____    ______ ____
ROOT
ATOM      1  O   UNL     1       0.781   2.731  19.171  0.00  0.00    +0.000 OA
ATOM      2  C   UNL     1       1.565   2.985  18.269  0.00  0.00    +0.000 C 
ATOM      3  C   UNL     1       1.908   4.364  17.788  0.00  0.00    +0.000 C 
ATOM      4  C   UNL     1       3.079   4.907  18.598  0.00  0.00    +0.000 C 
ATOM      5  C   UNL     1       4.342   4.020  18.563  0.00  0.00    +0.000 C 
ATOM      6  C   UNL     1       4.156   2.700  19.326  0.00  0.00    +0.000 C 
ATOM      7  C   UNL     1       3.409   1.602  18.563  0.00  0.00    +0.000 C 
ATOM      8  O   UNL     1       2.381   2.077  17.687  0.00  0.00    +0.000 OA
ATOM      9  O   UNL     1       4.722   3.761  17.204  0.00  0.00    +0.000 OA
ATOM     10  C   UNL     1       5.713   4.742  16.912  0.00  0.00    +0.000 C 
ATOM     11  C   UNL     1       6.430   4.884  18.225  0.00  0.00    +0.000 C 
ATOM     12  O   UNL     1       5.392   4.774  19.203  0.00  0.00    +0.000 OA
ENDROOT
TORSDOF 0
ENDMDL
MODEL 4
REMARK VINA RESULT:      -5.6      1.121      1.186
REMARK  Name = 
REMARK  0 active torsions:
REMARK  status: ('A' for Active; 'I' for Inactive)
REMARK                            x       y       z     vdW  Elec       q    Type
REMARK                         _______ _______ _______ _____ _____    ______ ____
ROOT
ATOM      1  O   UNL     1       7.550   6.115  16.108  0.00  0.00    +0.000 OA
ATOM      2  C   UNL     1       7.165   5.101  16.673  0.00  0.00    +0.000 C 
ATOM      3  C   UNL     1       7.356   4.800  18.129  0.00  0.00    +0.000 C 
ATOM      4  C   UNL     1       6.185   5.366  18.923  0.00  0.00    +0.000 C 
ATOM      5  C   UNL     1       4.802   4.852  18.468  0.00  0.00    +0.000 C 
ATOM      6  C   UNL     1       4.398   5.391  17.087  0.00  0.00    +0.000 C 
ATOM      7  C   UNL     1       5.021   4.664  15.892  0.00  0.00    +0.000 C 
ATOM      8  O   UNL     1       6.349   4.179  16.114  0.00  0.00    +0.000 OA
ATOM      9  O   UNL     1       4.787   3.418  18.466  0.00  0.00    +0.000 OA
ATOM     10  C   UNL     1       4.223   3.061  19.724  0.00  0.00    +0.000 C 
ATOM     11  C   UNL     1       3.213   4.149  19.952  0.00  0.00    +0.000 C 
ATOM     12  O   UNL     1       3.847   5.325  19.440  0.00  0.00    +0.000 OA
ENDROOT
TORSDOF 0
ENDMDL
MODEL 5
REMARK VINA RESULT:      -5.6      1.490      2.395
REMARK  Name = 
REMARK  0 active torsions:
REMARK  status: ('A' for Active; 'I' for Inactive)
REMARK                            x       y       z     vdW  Elec       q    Type
REMARK                         _______ _______ _______ _____ _____    ______ ____
ROOT
ATOM      1  O   UNL     1       7.816   4.551  15.839  0.00  0.00    +0.000 OA
ATOM      2  C   UNL     1       6.861   5.308  15.942  0.00  0.00    +0.000 C 
ATOM      3  C   UNL     1       5.431   4.931  15.693  0.00  0.00    +0.000 C 
ATOM      4  C   UNL     1       4.813   4.405  16.982  0.00  0.00    +0.000 C 
ATOM      5  C   UNL     1       4.886   5.389  18.170  0.00  0.00    +0.000 C 
ATOM      6  C   UNL     1       6.319   5.579  18.689  0.00  0.00    +0.000 C 
ATOM      7  C   UNL     1       7.186   6.549  17.880  0.00  0.00    +0.000 C 
ATOM      8  O   UNL     1       6.925   6.551  16.472  0.00  0.00    +0.000 OA
ATOM      9  O   UNL     1       4.320   6.652  17.796  0.00  0.00    +0.000 OA
ATOM     10  C   UNL     1       2.973   6.595  18.256  0.00  0.00    +0.000 C 
ATOM     11  C   UNL     1       3.093   5.800  19.525  0.00  0.00    +0.000 C 
ATOM     12  O   UNL     1       4.089   4.817  19.227  0.00  0.00    +0.000 OA
ENDROOT
TORSDOF 0
ENDMDL
MODEL 6
REMARK VINA RESULT:      -5.5      2.308      5.309
REMARK  Name = 
REMARK  0 active torsions:
REMARK  status: ('A' for Active; 'I' for Inactive)
REMARK                            x       y       z     vdW  Elec       q    Type
REMARK                         _______ _______ _______ _____ _____    ______ ____
ROOT
ATOM      1  O   UNL     1       1.405   2.448  21.900  0.00  0.00    +0.000 OA
ATOM      2  C   UNL     1       1.361   3.000  20.810  0.00  0.00    +0.000 C 
ATOM      3  C   UNL     1       1.230   4.479  20.598  0.00  0.00    +0.000 C 
ATOM      4  C   UNL     1       2.616   5.112  20.565  0.00  0.00    +0.000 C 
ATOM      5  C   UNL     1       3.560   4.519  19.495  0.00  0.00    +0.000 C 
ATOM      6  C   UNL     1       3.994   3.084  19.824  0.00  0.00    +0.000 C 
ATOM      7  C   UNL     1       2.975   1.994  19.475  0.00  0.00    +0.000 C 
ATOM      8  O   UNL     1       1.607   2.384  19.631  0.00  0.00    +0.000 OA
ATOM      9  O   UNL     1       2.932   4.567  18.207  0.00  0.00    +0.000 OA
ATOM     10  C   UNL     1       3.422   5.764  17.610  0.00  0.00    +0.000 C 
ATOM     11  C   UNL     1       4.831   5.836  18.127  0.00  0.00    +0.000 C 
ATOM     12  O   UNL     1       4.733   5.358  19.472  0.00  0.00    +0.000 OA
ENDROOT
TORSDOF 0
ENDMDL
MODEL 7
REMARK VINA RESULT:      -5.5      2.064      4.793
REMARK  Name = 
REMARK  0 active torsions:
REMARK  status: ('A' for Active; 'I' for Inactive)
REMARK                            x       y       z     vdW  Elec       q    Type
REMARK                         _______ _______ _______ _____ _____    ______ ____
ROOT
ATOM      1  O   UNL     1       0.640   2.901  19.773  0.00  0.00    +0.000 OA
ATOM      2  C   UNL     1       1.227   3.623  18.981  0.00  0.00    +0.000 C 
ATOM      3  C   UNL     1       1.862   4.939  19.320  0.00  0.00    +0.000 C 
ATOM      4  C   UNL     1       3.301   4.708  19.766  0.00  0.00    +0.000 C 
ATOM      5  C   UNL     1       4.175   3.966  18.731  0.00  0.00    +0.000 C 
ATOM      6  C   UNL     1       3.770   2.493  18.567  0.00  0.00    +0.000 C 
ATOM      7  C   UNL     1       2.557   2.245  17.665  0.00  0.00    +0.000 C 
ATOM      8  O   UNL     1       1.554   3.264  17.718  0.00  0.00    +0.000 OA
ATOM      9  O   UNL     1       4.121   4.642  17.468  0.00  0.00    +0.000 OA
ATOM     10  C   UNL     1       5.271   5.483  17.458  0.00  0.00    +0.000 C 
ATOM     11  C   UNL     1       6.286   4.658  18.198  0.00  0.00    +0.000 C 
ATOM     12  O   UNL     1       5.529   4.015  19.227  0.00  0.00    +0.000 OA
ENDROOT
TORSDOF 0
ENDMDL
MODEL 8
REMARK VINA RESULT:      -5.5      1.576      2.168
REMARK  Name = 
REMARK  0 active torsions:
REMARK  status: ('A' for Active; 'I' for Inactive)
REMARK                            x       y       z     vdW  Elec       q    Type
REMARK                         _______ _______ _______ _____ _____    ______ ____
ROOT
ATOM      1  O   UNL     1       7.463   5.411  15.127  0.00  0.00    +0.000 OA
ATOM      2  C   UNL     1       6.259   5.512  15.316  0.00  0.00    +0.000 C 
ATOM      3  C   UNL     1       5.283   4.375  15.280  0.00  0.00    +0.000 C 
ATOM      4  C   UNL     1       5.177   3.752  16.666  0.00  0.00    +0.000 C 
ATOM      5  C   UNL     1       4.773   4.743  17.779  0.00  0.00    +0.000 C 
ATOM      6  C   UNL     1       5.880   5.761  18.092  0.00  0.00    +0.000 C 
ATOM      7  C   UNL     1       5.975   6.944  17.124  0.00  0.00    +0.000 C 
ATOM      8  O   UNL     1       5.648   6.632  15.766  0.00  0.00    +0.000 OA
ATOM      9  O   UNL     1       3.561   5.420  17.417  0.00  0.00    +0.000 OA
ATOM     10  C   UNL     1       2.527   4.677  18.054  0.00  0.00    +0.000 C 
ATOM     11  C   UNL     1       3.178   4.243  19.337  0.00  0.00    +0.000 C 
ATOM     12  O   UNL     1       4.528   3.955  18.963  0.00  0.00    +0.000 OA
ENDROOT
TORSDOF 0
ENDMDL
MODEL 9
REMARK VINA RESULT:      -5.5      1.662      2.507
REMARK  Name = 
REMARK  0 active torsions:
REMARK  status: ('A' for Active; 'I' for Inactive)
REMARK                            x       y       z     vdW  Elec       q    Type
REMARK                         _______ _______ _______ _____ _____    ______ ____
ROOT
ATOM      1  O   UNL     1       5.207   6.963  15.569  0.00  0.00    +0.000 OA
ATOM      2  C   UNL     1       5.343   6.445  16.669  0.00  0.00    +0.000 C 
ATOM      3  C   UNL     1       4.284   6.381  17.728  0.00  0.00    +0.000 C 
ATOM      4  C   UNL     1       3.447   5.122  17.535  0.00  0.00    +0.000 C 
ATOM      5  C   UNL     1       4.263   3.810  17.541  0.00  0.00    +0.000 C 
ATOM      6  C   UNL     1       5.151   3.663  16.297  0.00  0.00    +0.000 C 
ATOM      7  C   UNL     1       6.471   4.440  16.339  0.00  0.00    +0.000 C 
ATOM      8  O   UNL     1       6.406   5.691  17.032  0.00  0.00    +0.000 OA
ATOM      9  O   UNL     1       5.057   3.732  18.733  0.00  0.00    +0.000 OA
ATOM     10  C   UNL     1       4.278   2.954  19.636  0.00  0.00    +0.000 C 
ATOM     11  C   UNL     1       3.602   1.970  18.724  0.00  0.00    +0.000 C 
ATOM     12  O   UNL     1       3.305   2.731  17.549  0.00  0.00    +0.000 OA
ENDROOT
TORSDOF 0
ENDMDL
