MODEL 1
REMARK VINA RESULT:      -6.5      0.000      0.000
REMARK  Name = 
REMARK  6 active torsions:
REMARK  status: ('A' for Active; 'I' for Inactive)
REMARK    1  A    between atoms: C_1  and  C_2
REMARK    2  A    between atoms: C_2  and  N_3
REMARK    3  A    between atoms: N_3  and  C_4
REMARK    4  A    between atoms: C_4  and  C_5
REMARK    5  A    between atoms: C_10  and  C_11
REMARK    6  A    between atoms: C_14  and  C_15
REMARK                            x       y       z     vdW  Elec       q    Type
REMARK                         _______ _______ _______ _____ _____    ______ ____
ROOT
ATOM      1  N   UNL     1       0.650   8.977  20.731  0.00  0.00    +0.000 N 
ATOM      2  C   UNL     1       1.384   7.903  20.246  0.00  0.00    +0.000 A 
ATOM      3  N   UNL     1       1.466   6.749  20.843  0.00  0.00    +0.000 NA
ATOM      4  C   UNL     1       2.207   5.820  20.199  0.00  0.00    +0.000 A 
ATOM      5  S   UNL     1       2.364   4.221  20.752  0.00  0.00    +0.000 S 
ATOM      6  C   UNL     1       3.356   3.759  19.416  0.00  0.00    +0.000 A 
ATOM      7  C   UNL     1       3.598   4.844  18.576  0.00  0.00    +0.000 A 
ATOM      8  C   UNL     1       4.434   4.852  17.332  0.00  0.00    +0.000 C 
ATOM      9  C   UNL     1       2.900   6.017  19.040  0.00  0.00    +0.000 A 
ATOM     10  C   UNL     1       2.822   7.333  18.459  0.00  0.00    +0.000 A 
ATOM     11  O   UNL     1       3.435   7.648  17.441  0.00  0.00    +0.000 OA
ATOM     12  O   UNL     1       2.011   8.227  19.078  0.00  0.00    +0.000 OA
ENDROOT
BRANCH   6  13
ATOM     13  C   UNL     1       3.822   2.381  19.271  0.00  0.00    +0.000 C 
ATOM     14  N   UNL     1       4.925   2.012  19.990  0.00  0.00    +0.000 N 
ATOM     15  O   UNL     1       3.290   1.526  18.565  0.00  0.00    +0.000 OA
ATOM     16  H   UNL     1       5.394   2.646  20.618  0.00  0.00    +0.000 HD
ATOM     17  H   UNL     1       5.227   1.050  19.922  0.00  0.00    +0.000 HD
ENDBRANCH   6  13
BRANCH   1  19
ATOM     18  C   UNL     1      -0.136  10.383  22.609  0.00  0.00    +0.000 C 
ATOM     19  C   UNL     1       0.122   8.976  22.096  0.00  0.00    +0.000 C 
ENDBRANCH   1  19
BRANCH   1  20
ATOM     20  C   UNL     1       0.495  10.219  19.961  0.00  0.00    +0.000 C 
ATOM     21  C   UNL     1      -0.798  10.208  19.158  0.00  0.00    +0.000 C 
ENDBRANCH   1  20
TORSDOF 3
ENDMDL
MODEL 2
REMARK VINA RESULT:      -6.5      2.558      3.332
REMARK  Name = 
REMARK  6 active torsions:
REMARK  status: ('A' for Active; 'I' for Inactive)
REMARK    1  A    between atoms: C_1  and  C_2
REMARK    2  A    between atoms: C_2  and  N_3
REMARK    3  A    between atoms: N_3  and  C_4
REMARK    4  A    between atoms: C_4  and  C_5
REMARK    5  A    between atoms: C_10  and  C_11
REMARK    6  A    between atoms: C_14  and  C_15
REMARK                            x       y       z     vdW  Elec       q    Type
REMARK                         _______ _______ _______ _____ _____    ______ ____
ROOT
ATOM      1  N   UNL     1       1.284   8.791  19.610  0.00  0.00    +0.000 N 
ATOM      2  C   UNL     1       2.134   7.758  19.235  0.00  0.00    +0.000 A 
ATOM      3  N   UNL     1       2.917   7.803  18.197  0.00  0.00    +0.000 NA
ATOM      4  C   UNL     1       3.690   6.708  18.014  0.00  0.00    +0.000 A 
ATOM      5  S   UNL     1       4.852   6.597  16.779  0.00  0.00    +0.000 S 
ATOM      6  C   UNL     1       5.360   5.022  17.272  0.00  0.00    +0.000 A 
ATOM      7  C   UNL     1       4.605   4.572  18.354  0.00  0.00    +0.000 A 
ATOM      8  C   UNL     1       4.725   3.248  19.047  0.00  0.00    +0.000 C 
ATOM      9  C   UNL     1       3.665   5.578  18.777  0.00  0.00    +0.000 A 
ATOM     10  C   UNL     1       2.733   5.564  19.876  0.00  0.00    +0.000 A 
ATOM     11  O   UNL     1       2.584   4.589  20.610  0.00  0.00    +0.000 OA
ATOM     12  O   UNL     1       2.023   6.700  20.090  0.00  0.00    +0.000 OA
ENDROOT
BRANCH   6  13
ATOM     13  C   UNL     1       6.454   4.339  16.585  0.00  0.00    +0.000 C 
ATOM     14  N   UNL     1       6.120   3.383  15.666  0.00  0.00    +0.000 N 
ATOM     15  O   UNL     1       7.650   4.568  16.760  0.00  0.00    +0.000 OA
ATOM     16  H   UNL     1       5.161   3.165  15.442  0.00  0.00    +0.000 HD
ATOM     17  H   UNL     1       6.873   2.937  15.162  0.00  0.00    +0.000 HD
ENDBRANCH   6  13
BRANCH   1  19
ATOM     18  C   UNL     1      -0.442  10.347  18.763  0.00  0.00    +0.000 C 
ATOM     19  C   UNL     1       1.012   9.911  18.707  0.00  0.00    +0.000 C 
ENDBRANCH   1  19
BRANCH   1  20
ATOM     20  C   UNL     1       0.508   8.740  20.856  0.00  0.00    +0.000 C 
ATOM     21  C   UNL     1       1.276   9.371  22.008  0.00  0.00    +0.000 C 
ENDBRANCH   1  20
TORSDOF 3
ENDMDL
MODEL 3
REMARK VINA RESULT:      -6.4      1.465      1.803
REMARK  Name = 
REMARK  6 active torsions:
REMARK  status: ('A' for Active; 'I' for Inactive)
REMARK    1  A    between atoms: C_1  and  C_2
REMARK    2  A    between atoms: C_2  and  N_3
REMARK    3  A    between atoms: N_3  and  C_4
REMARK    4  A    between atoms: C_4  and  C_5
REMARK    5  A    between atoms: C_10  and  C_11
REMARK    6  A    between atoms: C_14  and  C_15
REMARK                            x       y       z     vdW  Elec       q    Type
REMARK                         _______ _______ _______ _____ _____    ______ ____
ROOT
ATOM      1  N   UNL     1       1.522   9.185  18.932  0.00  0.00    +0.000 N 
ATOM      2  C   UNL     1       2.232   7.996  18.824  0.00  0.00    +0.000 A 
ATOM      3  N   UNL     1       2.143   7.018  19.678  0.00  0.00    +0.000 NA
ATOM      4  C   UNL     1       2.894   5.931  19.385  0.00  0.00    +0.000 A 
ATOM      5  S   UNL     1       2.852   4.506  20.311  0.00  0.00    +0.000 S 
ATOM      6  C   UNL     1       3.979   3.696  19.283  0.00  0.00    +0.000 A 
ATOM      7  C   UNL     1       4.414   4.538  18.261  0.00  0.00    +0.000 A 
ATOM      8  C   UNL     1       5.410   4.212  17.189  0.00  0.00    +0.000 C 
ATOM      9  C   UNL     1       3.750   5.815  18.331  0.00  0.00    +0.000 A 
ATOM     10  C   UNL     1       3.853   6.955  17.455  0.00  0.00    +0.000 A 
ATOM     11  O   UNL     1       4.620   6.991  16.496  0.00  0.00    +0.000 OA
ATOM     12  O   UNL     1       3.034   8.004  17.721  0.00  0.00    +0.000 OA
ENDROOT
BRANCH   6  13
ATOM     13  C   UNL     1       4.355   2.306  19.533  0.00  0.00    +0.000 C 
ATOM     14  N   UNL     1       3.942   1.370  18.626  0.00  0.00    +0.000 N 
ATOM     15  O   UNL     1       5.027   1.918  20.487  0.00  0.00    +0.000 OA
ATOM     16  H   UNL     1       3.418   1.617  17.800  0.00  0.00    +0.000 HD
ATOM     17  H   UNL     1       4.233   0.415  18.776  0.00  0.00    +0.000 HD
ENDBRANCH   6  13
BRANCH   1  19
ATOM     18  C   UNL     1      -0.591  10.042  19.891  0.00  0.00    +0.000 C 
ATOM     19  C   UNL     1       0.814   9.534  20.165  0.00  0.00    +0.000 C 
ENDBRANCH   1  19
BRANCH   1  20
ATOM     20  C   UNL     1       1.567  10.210  17.881  0.00  0.00    +0.000 C 
ATOM     21  C   UNL     1       2.236  11.482  18.382  0.00  0.00    +0.000 C 
ENDBRANCH   1  20
TORSDOF 3
ENDMDL
MODEL 4
REMARK VINA RESULT:      -6.3      2.119      2.969
REMARK  Name = 
REMARK  6 active torsions:
REMARK  status: ('A' for Active; 'I' for Inactive)
REMARK    1  A    between atoms: C_1  and  C_2
REMARK    2  A    between atoms: C_2  and  N_3
REMARK    3  A    between atoms: N_3  and  C_4
REMARK    4  A    between atoms: C_4  and  C_5
REMARK    5  A    between atoms: C_10  and  C_11
REMARK    6  A    between atoms: C_14  and  C_15
REMARK                            x       y       z     vdW  Elec       q    Type
REMARK                         _______ _______ _______ _____ _____    ______ ____
ROOT
ATOM      1  N   UNL     1       0.843   8.777  20.541  0.00  0.00    +0.000 N 
ATOM      2  C   UNL     1       1.630   7.731  20.078  0.00  0.00    +0.000 A 
ATOM      3  N   UNL     1       2.465   7.835  19.085  0.00  0.00    +0.000 NA
ATOM      4  C   UNL     1       3.162   6.712  18.801  0.00  0.00    +0.000 A 
ATOM      5  S   UNL     1       4.373   6.655  17.610  0.00  0.00    +0.000 S 
ATOM      6  C   UNL     1       4.737   4.997  17.928  0.00  0.00    +0.000 A 
ATOM      7  C   UNL     1       3.898   4.484  18.916  0.00  0.00    +0.000 A 
ATOM      8  C   UNL     1       3.883   3.082  19.446  0.00  0.00    +0.000 C 
ATOM      9  C   UNL     1       3.015   5.505  19.419  0.00  0.00    +0.000 A 
ATOM     10  C   UNL     1       2.031   5.435  20.469  0.00  0.00    +0.000 A 
ATOM     11  O   UNL     1       1.773   4.396  21.073  0.00  0.00    +0.000 OA
ATOM     12  O   UNL     1       1.398   6.592  20.791  0.00  0.00    +0.000 OA
ENDROOT
BRANCH   6  13
ATOM     13  C   UNL     1       5.810   4.314  17.208  0.00  0.00    +0.000 C 
ATOM     14  N   UNL     1       7.022   4.214  17.832  0.00  0.00    +0.000 N 
ATOM     15  O   UNL     1       5.701   3.810  16.091  0.00  0.00    +0.000 OA
ATOM     16  H   UNL     1       7.178   4.571  18.763  0.00  0.00    +0.000 HD
ATOM     17  H   UNL     1       7.754   3.709  17.353  0.00  0.00    +0.000 HD
ENDBRANCH   6  13
BRANCH   1  19
ATOM     18  C   UNL     1      -0.670  10.128  19.124  0.00  0.00    +0.000 C 
ATOM     19  C   UNL     1       0.700  10.014  19.771  0.00  0.00    +0.000 C 
ENDBRANCH   1  19
BRANCH   1  20
ATOM     20  C   UNL     1       0.003   8.642  21.739  0.00  0.00    +0.000 C 
ATOM     21  C   UNL     1       0.422   9.631  22.818  0.00  0.00    +0.000 C 
ENDBRANCH   1  20
TORSDOF 3
ENDMDL
MODEL 5
REMARK VINA RESULT:      -6.1      2.495      6.669
REMARK  Name = 
REMARK  6 active torsions:
REMARK  status: ('A' for Active; 'I' for Inactive)
REMARK    1  A    between atoms: C_1  and  C_2
REMARK    2  A    between atoms: C_2  and  N_3
REMARK    3  A    between atoms: N_3  and  C_4
REMARK    4  A    between atoms: C_4  and  C_5
REMARK    5  A    between atoms: C_10  and  C_11
REMARK    6  A    between atoms: C_14  and  C_15
REMARK                            x       y       z     vdW  Elec       q    Type
REMARK                         _______ _______ _______ _____ _____    ______ ____
ROOT
ATOM      1  N   UNL     1       2.645   5.432  19.856  0.00  0.00    +0.000 N 
ATOM      2  C   UNL     1       2.144   6.726  19.906  0.00  0.00    +0.000 A 
ATOM      3  N   UNL     1       1.519   7.224  20.933  0.00  0.00    +0.000 NA
ATOM      4  C   UNL     1       1.131   8.513  20.800  0.00  0.00    +0.000 A 
ATOM      5  S   UNL     1       0.389   9.386  22.055  0.00  0.00    +0.000 S 
ATOM      6  C   UNL     1       0.289  10.831  21.114  0.00  0.00    +0.000 A 
ATOM      7  C   UNL     1       0.785  10.623  19.828  0.00  0.00    +0.000 A 
ATOM      8  C   UNL     1       0.843  11.623  18.713  0.00  0.00    +0.000 C 
ATOM      9  C   UNL     1       1.288   9.281  19.684  0.00  0.00    +0.000 A 
ATOM     10  C   UNL     1       1.931   8.655  18.556  0.00  0.00    +0.000 A 
ATOM     11  O   UNL     1       2.092   9.226  17.480  0.00  0.00    +0.000 OA
ATOM     12  O   UNL     1       2.383   7.388  18.737  0.00  0.00    +0.000 OA
ENDROOT
BRANCH   6  13
ATOM     13  C   UNL     1      -0.253  12.061  21.687  0.00  0.00    +0.000 C 
ATOM     14  N   UNL     1      -1.588  12.083  21.981  0.00  0.00    +0.000 N 
ATOM     15  O   UNL     1       0.402  13.072  21.939  0.00  0.00    +0.000 OA
ATOM     16  H   UNL     1      -2.183  11.282  21.836  0.00  0.00    +0.000 HD
ATOM     17  H   UNL     1      -1.958  12.918  22.412  0.00  0.00    +0.000 HD
ENDBRANCH   6  13
BRANCH   1  19
ATOM     18  C   UNL     1       1.093   3.591  20.424  0.00  0.00    +0.000 C 
ATOM     19  C   UNL     1       2.274   4.439  20.865  0.00  0.00    +0.000 C 
ENDBRANCH   1  19
BRANCH   1  20
ATOM     20  C   UNL     1       3.445   4.956  18.720  0.00  0.00    +0.000 C 
ATOM     21  C   UNL     1       4.882   4.679  19.138  0.00  0.00    +0.000 C 
ENDBRANCH   1  20
TORSDOF 3
ENDMDL
MODEL 6
REMARK VINA RESULT:      -6.0      3.029      7.160
REMARK  Name = 
REMARK  6 active torsions:
REMARK  status: ('A' for Active; 'I' for Inactive)
REMARK    1  A    between atoms: C_1  and  C_2
REMARK    2  A    between atoms: C_2  and  N_3
REMARK    3  A    between atoms: N_3  and  C_4
REMARK    4  A    between atoms: C_4  and  C_5
REMARK    5  A    between atoms: C_10  and  C_11
REMARK    6  A    between atoms: C_14  and  C_15
REMARK                            x       y       z     vdW  Elec       q    Type
REMARK                         _______ _______ _______ _____ _____    ______ ____
ROOT
ATOM      1  N   UNL     1       2.505   5.884  19.822  0.00  0.00    +0.000 N 
ATOM      2  C   UNL     1       1.985   7.170  19.875  0.00  0.00    +0.000 A 
ATOM      3  N   UNL     1       2.127   8.051  18.927  0.00  0.00    +0.000 NA
ATOM      4  C   UNL     1       1.524   9.240  19.154  0.00  0.00    +0.000 A 
ATOM      5  S   UNL     1       1.501  10.494  18.007  0.00  0.00    +0.000 S 
ATOM      6  C   UNL     1       0.559  11.527  19.019  0.00  0.00    +0.000 A 
ATOM      7  C   UNL     1       0.305  10.922  20.249  0.00  0.00    +0.000 A 
ATOM      8  C   UNL     1      -0.453  11.508  21.402  0.00  0.00    +0.000 C 
ATOM      9  C   UNL     1       0.853   9.590  20.288  0.00  0.00    +0.000 A 
ATOM     10  C   UNL     1       0.783   8.595  21.328  0.00  0.00    +0.000 A 
ATOM     11  O   UNL     1       0.245   8.803  22.413  0.00  0.00    +0.000 OA
ATOM     12  O   UNL     1       1.325   7.383  21.051  0.00  0.00    +0.000 OA
ENDROOT
BRANCH   6  13
ATOM     13  C   UNL     1       0.127  12.843  18.552  0.00  0.00    +0.000 C 
ATOM     14  N   UNL     1      -0.945  12.889  17.705  0.00  0.00    +0.000 N 
ATOM     15  O   UNL     1       0.645  13.911  18.875  0.00  0.00    +0.000 OA
ATOM     16  H   UNL     1      -1.443  12.059  17.423  0.00  0.00    +0.000 HD
ATOM     17  H   UNL     1      -1.269  13.800  17.411  0.00  0.00    +0.000 HD
ENDBRANCH   6  13
BRANCH   1  19
ATOM     18  C   UNL     1       4.842   5.192  19.402  0.00  0.00    +0.000 C 
ATOM     19  C   UNL     1       3.483   5.505  18.801  0.00  0.00    +0.000 C 
ENDBRANCH   1  19
BRANCH   1  20
ATOM     20  C   UNL     1       2.217   4.889  20.865  0.00  0.00    +0.000 C 
ATOM     21  C   UNL     1       1.115   3.936  20.426  0.00  0.00    +0.000 C 
ENDBRANCH   1  20
TORSDOF 3
ENDMDL
MODEL 7
REMARK VINA RESULT:      -6.0      4.441      5.954
REMARK  Name = 
REMARK  6 active torsions:
REMARK  status: ('A' for Active; 'I' for Inactive)
REMARK    1  A    between atoms: C_1  and  C_2
REMARK    2  A    between atoms: C_2  and  N_3
REMARK    3  A    between atoms: N_3  and  C_4
REMARK    4  A    between atoms: C_4  and  C_5
REMARK    5  A    between atoms: C_10  and  C_11
REMARK    6  A    between atoms: C_14  and  C_15
REMARK                            x       y       z     vdW  Elec       q    Type
REMARK                         _______ _______ _______ _____ _____    ______ ____
ROOT
ATOM      1  N   UNL     1       2.499   3.191  19.706  0.00  0.00    +0.000 N 
ATOM      2  C   UNL     1       3.526   3.662  18.898  0.00  0.00    +0.000 A 
ATOM      3  N   UNL     1       3.717   3.279  17.669  0.00  0.00    +0.000 NA
ATOM      4  C   UNL     1       4.755   3.873  17.038  0.00  0.00    +0.000 A 
ATOM      5  S   UNL     1       5.121   3.593  15.402  0.00  0.00    +0.000 S 
ATOM      6  C   UNL     1       6.447   4.700  15.414  0.00  0.00    +0.000 A 
ATOM      7  C   UNL     1       6.629   5.245  16.684  0.00  0.00    +0.000 A 
ATOM      8  C   UNL     1       7.689   6.219  17.102  0.00  0.00    +0.000 C 
ATOM      9  C   UNL     1       5.621   4.768  17.596  0.00  0.00    +0.000 A 
ATOM     10  C   UNL     1       5.396   5.105  18.978  0.00  0.00    +0.000 A 
ATOM     11  O   UNL     1       6.130   5.864  19.607  0.00  0.00    +0.000 OA
ATOM     12  O   UNL     1       4.304   4.559  19.570  0.00  0.00    +0.000 OA
ENDROOT
BRANCH   6  13
ATOM     13  C   UNL     1       7.210   4.967  14.196  0.00  0.00    +0.000 C 
ATOM     14  N   UNL     1       6.810   4.334  13.052  0.00  0.00    +0.000 N 
ATOM     15  O   UNL     1       8.172   5.729  14.120  0.00  0.00    +0.000 OA
ATOM     16  H   UNL     1       6.009   3.723  13.028  0.00  0.00    +0.000 HD
ATOM     17  H   UNL     1       7.312   4.547  12.201  0.00  0.00    +0.000 HD
ENDBRANCH   6  13
BRANCH   1  19
ATOM     18  C   UNL     1       0.360   2.418  18.733  0.00  0.00    +0.000 C 
ATOM     19  C   UNL     1       1.706   2.024  19.316  0.00  0.00    +0.000 C 
ENDBRANCH   1  19
BRANCH   1  20
ATOM     20  C   UNL     1       2.255   3.741  21.046  0.00  0.00    +0.000 C 
ATOM     21  C   UNL     1       1.854   2.646  22.024  0.00  0.00    +0.000 C 
ENDBRANCH   1  20
TORSDOF 3
ENDMDL
MODEL 8
REMARK VINA RESULT:      -6.0      2.785      7.010
REMARK  Name = 
REMARK  6 active torsions:
REMARK  status: ('A' for Active; 'I' for Inactive)
REMARK    1  A    between atoms: C_1  and  C_2
REMARK    2  A    between atoms: C_2  and  N_3
REMARK    3  A    between atoms: N_3  and  C_4
REMARK    4  A    between atoms: C_4  and  C_5
REMARK    5  A    between atoms: C_10  and  C_11
REMARK    6  A    between atoms: C_14  and  C_15
REMARK                            x       y       z     vdW  Elec       q    Type
REMARK                         _______ _______ _______ _____ _____    ______ ____
ROOT
ATOM      1  N   UNL     1       2.422   6.205  19.984  0.00  0.00    +0.000 N 
ATOM      2  C   UNL     1       1.790   7.421  20.204  0.00  0.00    +0.000 A 
ATOM      3  N   UNL     1       1.131   7.711  21.288  0.00  0.00    +0.000 NA
ATOM      4  C   UNL     1       0.608   8.958  21.326  0.00  0.00    +0.000 A 
ATOM      5  S   UNL     1      -0.204   9.576  22.685  0.00  0.00    +0.000 S 
ATOM      6  C   UNL     1      -0.466  11.114  21.944  0.00  0.00    +0.000 A 
ATOM      7  C   UNL     1       0.032  11.130  20.642  0.00  0.00    +0.000 A 
ATOM      8  C   UNL     1      -0.030  12.268  19.668  0.00  0.00    +0.000 C 
ATOM      9  C   UNL     1       0.670   9.879  20.321  0.00  0.00    +0.000 A 
ATOM     10  C   UNL     1       1.359   9.477  19.121  0.00  0.00    +0.000 A 
ATOM     11  O   UNL     1       1.446  10.199  18.130  0.00  0.00    +0.000 OA
ATOM     12  O   UNL     1       1.943   8.253  19.133  0.00  0.00    +0.000 OA
ENDROOT
BRANCH   6  13
ATOM     13  C   UNL     1      -1.126  12.194  22.674  0.00  0.00    +0.000 C 
ATOM     14  N   UNL     1      -2.489  12.263  22.599  0.00  0.00    +0.000 N 
ATOM     15  O   UNL     1      -0.550  13.036  23.362  0.00  0.00    +0.000 OA
ATOM     16  H   UNL     1      -3.034  11.588  22.084  0.00  0.00    +0.000 HD
ATOM     17  H   UNL     1      -2.950  12.985  23.133  0.00  0.00    +0.000 HD
ENDBRANCH   6  13
BRANCH   1  19
ATOM     18  C   UNL     1       1.114   4.125  20.278  0.00  0.00    +0.000 C 
ATOM     19  C   UNL     1       2.170   5.054  20.853  0.00  0.00    +0.000 C 
ENDBRANCH   1  19
BRANCH   1  20
ATOM     20  C   UNL     1       3.252   5.968  18.795  0.00  0.00    +0.000 C 
ATOM     21  C   UNL     1       4.595   5.362  19.175  0.00  0.00    +0.000 C 
ENDBRANCH   1  20
TORSDOF 3
ENDMDL
MODEL 9
REMARK VINA RESULT:      -5.9      2.554      6.813
REMARK  Name = 
REMARK  6 active torsions:
REMARK  status: ('A' for Active; 'I' for Inactive)
REMARK    1  A    between atoms: C_1  and  C_2
REMARK    2  A    between atoms: C_2  and  N_3
REMARK    3  A    between atoms: N_3  and  C_4
REMARK    4  A    between atoms: C_4  and  C_5
REMARK    5  A    between atoms: C_10  and  C_11
REMARK    6  A    between atoms: C_14  and  C_15
REMARK                            x       y       z     vdW  Elec       q    Type
REMARK                         _______ _______ _______ _____ _____    ______ ____
ROOT
ATOM      1  N   UNL     1       4.048   4.142  17.458  0.00  0.00    +0.000 N 
ATOM      2  C   UNL     1       3.429   5.219  18.078  0.00  0.00    +0.000 A 
ATOM      3  N   UNL     1       3.351   6.410  17.558  0.00  0.00    +0.000 NA
ATOM      4  C   UNL     1       2.685   7.320  18.304  0.00  0.00    +0.000 A 
ATOM      5  S   UNL     1       2.382   8.904  17.770  0.00  0.00    +0.000 S 
ATOM      6  C   UNL     1       1.510   9.318  19.202  0.00  0.00    +0.000 A 
ATOM      7  C   UNL     1       1.495   8.253  20.101  0.00  0.00    +0.000 A 
ATOM      8  C   UNL     1       0.866   8.232  21.462  0.00  0.00    +0.000 C 
ATOM      9  C   UNL     1       2.160   7.103  19.544  0.00  0.00    +0.000 A 
ATOM     10  C   UNL     1       2.332   5.782  20.094  0.00  0.00    +0.000 A 
ATOM     11  O   UNL     1       1.943   5.474  21.219  0.00  0.00    +0.000 OA
ATOM     12  O   UNL     1       2.934   4.863  19.298  0.00  0.00    +0.000 OA
ENDROOT
BRANCH   6  13
ATOM     13  C   UNL     1       0.899  10.638  19.352  0.00  0.00    +0.000 C 
ATOM     14  N   UNL     1       0.121  11.091  18.323  0.00  0.00    +0.000 N 
ATOM     15  O   UNL     1       1.020  11.364  20.338  0.00  0.00    +0.000 OA
ATOM     16  H   UNL     1      -0.054  10.538  17.498  0.00  0.00    +0.000 HD
ATOM     17  H   UNL     1      -0.334  11.985  18.440  0.00  0.00    +0.000 HD
ENDBRANCH   6  13
BRANCH   1  19
ATOM     18  C   UNL     1       6.369   4.394  16.641  0.00  0.00    +0.000 C 
ATOM     19  C   UNL     1       4.895   4.331  16.280  0.00  0.00    +0.000 C 
ENDBRANCH   1  19
BRANCH   1  20
ATOM     20  C   UNL     1       4.006   2.790  18.034  0.00  0.00    +0.000 C 
ATOM     21  C   UNL     1       2.717   2.073  17.659  0.00  0.00    +0.000 C 
ENDBRANCH   1  20
TORSDOF 3
ENDMDL
