MODEL 1
REMARK VINA RESULT:      -7.5      0.000      0.000
REMARK  Name = 
REMARK  10 active torsions:
REMARK  status: ('A' for Active; 'I' for Inactive)
REMARK    1  A    between atoms: C_1  and  C_2
REMARK    2  A    between atoms: C_2  and  C_3
REMARK    3  A    between atoms: C_6  and  C_8
REMARK    4  A    between atoms: C_8  and  C_9
REMARK    5  A    between atoms: C_14  and  N_15
REMARK    6  A    between atoms: N_15  and  C_16
REMARK    7  A    between atoms: C_17  and  C_18
REMARK    8  A    between atoms: C_25  and  C_26
REMARK    9  A    between atoms: C_28  and  C_29
REMARK   10  A    between atoms: C_31  and  C_32
REMARK                            x       y       z     vdW  Elec       q    Type
REMARK                         _______ _______ _______ _____ _____    ______ ____
ROOT
ATOM      1  C   UNL     1       0.792  12.380  19.968  0.00  0.00    +0.000 A 
ATOM      2  C   UNL     1       1.447  13.140  19.050  0.00  0.00    +0.000 A 
ATOM      3  C   UNL     1       0.963  14.538  18.833  0.00  0.00    +0.000 A 
ATOM      4  N   UNL     1      -0.133  15.057  19.279  0.00  0.00    +0.000 NA
ATOM      5  N   UNL     1      -0.848  14.174  20.004  0.00  0.00    +0.000 N 
ATOM      6  C   UNL     1      -2.132  14.378  20.400  0.00  0.00    +0.000 A 
ATOM      7  C   UNL     1      -2.520  13.212  21.015  0.00  0.00    +0.000 A 
ATOM      8  N   UNL     1      -1.462  12.323  21.089  0.00  0.00    +0.000 NA
ATOM      9  C   UNL     1      -0.482  12.902  20.410  0.00  0.00    +0.000 A 
ENDROOT
BRANCH   7  10
ATOM     10  C   UNL     1      -3.922  12.938  21.450  0.00  0.00    +0.000 A 
ATOM     11  S   UNL     1      -5.232  12.746  20.357  0.00  0.00    +0.000 S 
ATOM     12  C   UNL     1      -6.268  12.358  21.662  0.00  0.00    +0.000 A 
ATOM     13  C   UNL     1      -7.687  11.987  21.406  0.00  0.00    +0.000 C 
ATOM     14  N   UNL     1      -5.716  12.420  22.855  0.00  0.00    +0.000 NA
ATOM     15  C   UNL     1      -4.367  12.758  22.747  0.00  0.00    +0.000 A 
ATOM     16  C   UNL     1      -3.580  12.880  24.001  0.00  0.00    +0.000 C 
ENDBRANCH   7  10
BRANCH   2  17
ATOM     17  C   UNL     1       2.566  12.693  18.182  0.00  0.00    +0.000 C 
ATOM     18  N   UNL     1       3.510  13.620  17.904  0.00  0.00    +0.000 N 
ATOM     19  O   UNL     1       2.694  11.525  17.835  0.00  0.00    +0.000 OA
ATOM     20  H   UNL     1       3.388  14.587  18.192  0.00  0.00    +0.000 HD
ATOM     21  H   UNL     1       4.326  13.349  17.376  0.00  0.00    +0.000 HD
ENDBRANCH   2  17
BRANCH   1  22
ATOM     22  N   UNL     1       1.173  11.078  20.417  0.00  0.00    +0.000 N 
ATOM     23  H   UNL     1       2.153  10.949  20.120  0.00  0.00    +0.000 HD
BRANCH  22  30
ATOM     24  C   UNL     1      -0.059   8.969  21.175  0.00  0.00    +0.000 C 
ATOM     25  C   UNL     1       1.207   8.178  21.489  0.00  0.00    +0.000 C 
ATOM     26  N   UNL     1       1.726   7.877  20.168  0.00  0.00    +0.000 N 
ATOM     27  C   UNL     1       2.243   6.623  19.890  0.00  0.00    +0.000 C 
ATOM     28  O   UNL     1       2.383   5.757  20.749  0.00  0.00    +0.000 OA
ATOM     29  C   UNL     1       1.259   8.868  19.193  0.00  0.00    +0.000 C 
ATOM     30  C   UNL     1       0.386   9.876  19.999  0.00  0.00    +0.000 C 
BRANCH  27  31
ATOM     31  C   UNL     1       2.649   6.320  18.485  0.00  0.00    +0.000 C 
ATOM     32  C   UNL     1       4.138   6.442  18.167  0.00  0.00    +0.000 C 
ATOM     33  C   UNL     1       3.174   7.426  17.583  0.00  0.00    +0.000 C 
BRANCH  31  34
ATOM     34  C   UNL     1       1.934   5.221  17.868  0.00  0.00    +0.000 C 
ATOM     35  N   UNL     1       1.352   4.326  17.419  0.00  0.00    +0.000 NA
ENDBRANCH  31  34
ENDBRANCH  27  31
BRANCH  24  37
ATOM     36  C   UNL     1       0.181   9.498  23.648  0.00  0.00    +0.000 C 
ATOM     37  C   UNL     1      -0.719   9.542  22.423  0.00  0.00    +0.000 C 
ENDBRANCH  24  37
ENDBRANCH  22  30
ENDBRANCH   1  22
TORSDOF 7
ENDMDL
MODEL 2
REMARK VINA RESULT:      -7.5      3.618      6.569
REMARK  Name = 
REMARK  10 active torsions:
REMARK  status: ('A' for Active; 'I' for Inactive)
REMARK    1  A    between atoms: C_1  and  C_2
REMARK    2  A    between atoms: C_2  and  C_3
REMARK    3  A    between atoms: C_6  and  C_8
REMARK    4  A    between atoms: C_8  and  C_9
REMARK    5  A    between atoms: C_14  and  N_15
REMARK    6  A    between atoms: N_15  and  C_16
REMARK    7  A    between atoms: C_17  and  C_18
REMARK    8  A    between atoms: C_25  and  C_26
REMARK    9  A    between atoms: C_28  and  C_29
REMARK   10  A    between atoms: C_31  and  C_32
REMARK                            x       y       z     vdW  Elec       q    Type
REMARK                         _______ _______ _______ _____ _____    ______ ____
ROOT
ATOM      1  C   UNL     1      -0.834  10.922  19.300  0.00  0.00    +0.000 A 
ATOM      2  C   UNL     1       0.400  10.352  19.345  0.00  0.00    +0.000 A 
ATOM      3  C   UNL     1       1.021  10.145  20.689  0.00  0.00    +0.000 A 
ATOM      4  N   UNL     1       0.606  10.621  21.816  0.00  0.00    +0.000 NA
ATOM      5  N   UNL     1      -0.506  11.367  21.667  0.00  0.00    +0.000 N 
ATOM      6  C   UNL     1      -1.024  12.163  22.639  0.00  0.00    +0.000 A 
ATOM      7  C   UNL     1      -2.081  12.820  22.057  0.00  0.00    +0.000 A 
ATOM      8  N   UNL     1      -2.283  12.371  20.764  0.00  0.00    +0.000 NA
ATOM      9  C   UNL     1      -1.275  11.542  20.529  0.00  0.00    +0.000 A 
ENDROOT
BRANCH   7  10
ATOM     10  C   UNL     1      -2.830  13.927  22.723  0.00  0.00    +0.000 A 
ATOM     11  S   UNL     1      -2.676  15.577  22.275  0.00  0.00    +0.000 S 
ATOM     12  C   UNL     1      -3.907  15.996  23.387  0.00  0.00    +0.000 A 
ATOM     13  C   UNL     1      -4.370  17.408  23.493  0.00  0.00    +0.000 C 
ATOM     14  N   UNL     1      -4.378  15.000  24.105  0.00  0.00    +0.000 NA
ATOM     15  C   UNL     1      -3.763  13.804  23.736  0.00  0.00    +0.000 A 
ATOM     16  C   UNL     1      -4.168  12.565  24.450  0.00  0.00    +0.000 C 
ENDBRANCH   7  10
BRANCH   2  17
ATOM     17  C   UNL     1       1.231   9.970  18.175  0.00  0.00    +0.000 C 
ATOM     18  N   UNL     1       2.015  10.944  17.659  0.00  0.00    +0.000 N 
ATOM     19  O   UNL     1       1.296   8.816  17.771  0.00  0.00    +0.000 OA
ATOM     20  H   UNL     1       1.946  11.899  17.999  0.00  0.00    +0.000 HD
ATOM     21  H   UNL     1       2.650  10.719  16.907  0.00  0.00    +0.000 HD
ENDBRANCH   2  17
BRANCH   1  22
ATOM     22  N   UNL     1      -1.650  11.085  18.138  0.00  0.00    +0.000 N 
ATOM     23  H   UNL     1      -2.012  12.050  18.177  0.00  0.00    +0.000 HD
BRANCH  22  30
ATOM     24  C   UNL     1      -3.452  10.321  16.492  0.00  0.00    +0.000 C 
ATOM     25  C   UNL     1      -4.335  11.550  16.678  0.00  0.00    +0.000 C 
ATOM     26  N   UNL     1      -4.895  11.339  18.000  0.00  0.00    +0.000 N 
ATOM     27  C   UNL     1      -6.230  11.610  18.244  0.00  0.00    +0.000 C 
ATOM     28  O   UNL     1      -6.966  12.128  17.410  0.00  0.00    +0.000 OA
ATOM     29  C   UNL     1      -4.014  10.483  18.802  0.00  0.00    +0.000 C 
ATOM     30  C   UNL     1      -2.796  10.155  17.887  0.00  0.00    +0.000 C 
BRANCH  27  31
ATOM     31  C   UNL     1      -6.792  11.259  19.584  0.00  0.00    +0.000 C 
ATOM     32  C   UNL     1      -7.755  12.269  20.203  0.00  0.00    +0.000 C 
ATOM     33  C   UNL     1      -6.404  12.066  20.812  0.00  0.00    +0.000 C 
BRANCH  31  34
ATOM     34  C   UNL     1      -7.107   9.856  19.762  0.00  0.00    +0.000 C 
ATOM     35  N   UNL     1      -7.327   8.733  19.941  0.00  0.00    +0.000 NA
ENDBRANCH  31  34
ENDBRANCH  27  31
BRANCH  24  37
ATOM     36  C   UNL     1      -3.425  10.087  13.962  0.00  0.00    +0.000 C 
ATOM     37  C   UNL     1      -2.619  10.383  15.217  0.00  0.00    +0.000 C 
ENDBRANCH  24  37
ENDBRANCH  22  30
ENDBRANCH   1  22
TORSDOF 7
ENDMDL
MODEL 3
REMARK VINA RESULT:      -7.0      1.034      1.297
REMARK  Name = 
REMARK  10 active torsions:
REMARK  status: ('A' for Active; 'I' for Inactive)
REMARK    1  A    between atoms: C_1  and  C_2
REMARK    2  A    between atoms: C_2  and  C_3
REMARK    3  A    between atoms: C_6  and  C_8
REMARK    4  A    between atoms: C_8  and  C_9
REMARK    5  A    between atoms: C_14  and  N_15
REMARK    6  A    between atoms: N_15  and  C_16
REMARK    7  A    between atoms: C_17  and  C_18
REMARK    8  A    between atoms: C_25  and  C_26
REMARK    9  A    between atoms: C_28  and  C_29
REMARK   10  A    between atoms: C_31  and  C_32
REMARK                            x       y       z     vdW  Elec       q    Type
REMARK                         _______ _______ _______ _____ _____    ______ ____
ROOT
ATOM      1  C   UNL     1       0.850  12.455  20.137  0.00  0.00    +0.000 A 
ATOM      2  C   UNL     1       1.488  13.261  19.246  0.00  0.00    +0.000 A 
ATOM      3  C   UNL     1       1.000  14.667  19.107  0.00  0.00    +0.000 A 
ATOM      4  N   UNL     1      -0.088  15.162  19.599  0.00  0.00    +0.000 NA
ATOM      5  N   UNL     1      -0.789  14.244  20.292  0.00  0.00    +0.000 N 
ATOM      6  C   UNL     1      -2.066  14.427  20.720  0.00  0.00    +0.000 A 
ATOM      7  C   UNL     1      -2.443  13.231  21.284  0.00  0.00    +0.000 A 
ATOM      8  N   UNL     1      -1.384  12.341  21.295  0.00  0.00    +0.000 NA
ATOM      9  C   UNL     1      -0.416  12.954  20.627  0.00  0.00    +0.000 A 
ENDROOT
BRANCH   7  10
ATOM     10  C   UNL     1      -3.837  12.935  21.731  0.00  0.00    +0.000 A 
ATOM     11  S   UNL     1      -4.366  13.100  23.355  0.00  0.00    +0.000 S 
ATOM     12  C   UNL     1      -5.964  12.721  22.876  0.00  0.00    +0.000 A 
ATOM     13  C   UNL     1      -7.068  12.738  23.875  0.00  0.00    +0.000 C 
ATOM     14  N   UNL     1      -6.113  12.424  21.603  0.00  0.00    +0.000 NA
ATOM     15  C   UNL     1      -4.895  12.539  20.934  0.00  0.00    +0.000 A 
ATOM     16  C   UNL     1      -4.871  12.234  19.479  0.00  0.00    +0.000 C 
ENDBRANCH   7  10
BRANCH   2  17
ATOM     17  C   UNL     1       2.591  12.859  18.337  0.00  0.00    +0.000 C 
ATOM     18  N   UNL     1       2.343  11.799  17.533  0.00  0.00    +0.000 N 
ATOM     19  O   UNL     1       3.619  13.515  18.231  0.00  0.00    +0.000 OA
ATOM     20  H   UNL     1       1.488  11.260  17.637  0.00  0.00    +0.000 HD
ATOM     21  H   UNL     1       3.033  11.528  16.849  0.00  0.00    +0.000 HD
ENDBRANCH   2  17
BRANCH   1  22
ATOM     22  N   UNL     1       1.239  11.133  20.514  0.00  0.00    +0.000 N 
ATOM     23  H   UNL     1       2.206  11.014  20.176  0.00  0.00    +0.000 HD
BRANCH  22  30
ATOM     24  C   UNL     1      -0.033   9.033  21.230  0.00  0.00    +0.000 C 
ATOM     25  C   UNL     1       1.219   8.213  21.529  0.00  0.00    +0.000 C 
ATOM     26  N   UNL     1       1.732   7.928  20.202  0.00  0.00    +0.000 N 
ATOM     27  C   UNL     1       2.227   6.671  19.900  0.00  0.00    +0.000 C 
ATOM     28  O   UNL     1       2.350   5.785  20.741  0.00  0.00    +0.000 OA
ATOM     29  C   UNL     1       1.285   8.947  19.246  0.00  0.00    +0.000 C 
ATOM     30  C   UNL     1       0.430   9.955  20.072  0.00  0.00    +0.000 C 
BRANCH  27  31
ATOM     31  C   UNL     1       2.628   6.387  18.489  0.00  0.00    +0.000 C 
ATOM     32  C   UNL     1       4.109   6.553  18.158  0.00  0.00    +0.000 C 
ATOM     33  C   UNL     1       3.112   7.514  17.590  0.00  0.00    +0.000 C 
BRANCH  31  34
ATOM     34  C   UNL     1       1.938   5.273  17.872  0.00  0.00    +0.000 C 
ATOM     35  N   UNL     1       1.414   4.351  17.405  0.00  0.00    +0.000 NA
ENDBRANCH  31  34
ENDBRANCH  27  31
BRANCH  24  37
ATOM     36  C   UNL     1       0.200   9.471  23.722  0.00  0.00    +0.000 C 
ATOM     37  C   UNL     1      -0.682   9.594  22.489  0.00  0.00    +0.000 C 
ENDBRANCH  24  37
ENDBRANCH  22  30
ENDBRANCH   1  22
TORSDOF 7
ENDMDL
MODEL 4
REMARK VINA RESULT:      -7.0      4.195      8.463
REMARK  Name = 
REMARK  10 active torsions:
REMARK  status: ('A' for Active; 'I' for Inactive)
REMARK    1  A    between atoms: C_1  and  C_2
REMARK    2  A    between atoms: C_2  and  C_3
REMARK    3  A    between atoms: C_6  and  C_8
REMARK    4  A    between atoms: C_8  and  C_9
REMARK    5  A    between atoms: C_14  and  N_15
REMARK    6  A    between atoms: N_15  and  C_16
REMARK    7  A    between atoms: C_17  and  C_18
REMARK    8  A    between atoms: C_25  and  C_26
REMARK    9  A    between atoms: C_28  and  C_29
REMARK   10  A    between atoms: C_31  and  C_32
REMARK                            x       y       z     vdW  Elec       q    Type
REMARK                         _______ _______ _______ _____ _____    ______ ____
ROOT
ATOM      1  C   UNL     1      -3.030  11.776  18.326  0.00  0.00    +0.000 A 
ATOM      2  C   UNL     1      -2.690  10.855  17.384  0.00  0.00    +0.000 A 
ATOM      3  C   UNL     1      -1.464  10.034  17.625  0.00  0.00    +0.000 A 
ATOM      4  N   UNL     1      -0.570  10.226  18.538  0.00  0.00    +0.000 NA
ATOM      5  N   UNL     1      -0.857  11.296  19.305  0.00  0.00    +0.000 N 
ATOM      6  C   UNL     1       0.014  11.856  20.185  0.00  0.00    +0.000 A 
ATOM      7  C   UNL     1      -0.621  12.971  20.678  0.00  0.00    +0.000 A 
ATOM      8  N   UNL     1      -1.911  13.056  20.183  0.00  0.00    +0.000 NA
ATOM      9  C   UNL     1      -2.005  12.070  19.303  0.00  0.00    +0.000 A 
ENDROOT
BRANCH   7  10
ATOM     10  C   UNL     1       0.048  13.980  21.552  0.00  0.00    +0.000 A 
ATOM     11  S   UNL     1       1.503  14.785  21.125  0.00  0.00    +0.000 S 
ATOM     12  C   UNL     1       1.390  15.743  22.538  0.00  0.00    +0.000 A 
ATOM     13  C   UNL     1       2.400  16.804  22.805  0.00  0.00    +0.000 C 
ATOM     14  N   UNL     1       0.377  15.461  23.328  0.00  0.00    +0.000 NA
ATOM     15  C   UNL     1      -0.401  14.444  22.774  0.00  0.00    +0.000 A 
ATOM     16  C   UNL     1      -1.593  13.988  23.536  0.00  0.00    +0.000 C 
ENDBRANCH   7  10
BRANCH   2  17
ATOM     17  C   UNL     1      -3.387  10.628  16.092  0.00  0.00    +0.000 C 
ATOM     18  N   UNL     1      -2.693   9.944  15.155  0.00  0.00    +0.000 N 
ATOM     19  O   UNL     1      -4.561  10.934  15.923  0.00  0.00    +0.000 OA
ATOM     20  H   UNL     1      -1.718   9.702  15.305  0.00  0.00    +0.000 HD
ATOM     21  H   UNL     1      -3.146   9.703  14.285  0.00  0.00    +0.000 HD
ENDBRANCH   2  17
BRANCH   1  22
ATOM     22  N   UNL     1      -4.224  12.561  18.352  0.00  0.00    +0.000 N 
ATOM     23  H   UNL     1      -3.976  13.441  18.829  0.00  0.00    +0.000 HD
BRANCH  22  30
ATOM     24  C   UNL     1      -6.777  12.662  18.447  0.00  0.00    +0.000 C 
ATOM     25  C   UNL     1      -6.832  13.983  19.208  0.00  0.00    +0.000 C 
ATOM     26  N   UNL     1      -6.404  13.597  20.540  0.00  0.00    +0.000 N 
ATOM     27  C   UNL     1      -7.045  14.109  21.655  0.00  0.00    +0.000 C 
ATOM     28  O   UNL     1      -7.916  14.971  21.583  0.00  0.00    +0.000 OA
ATOM     29  C   UNL     1      -5.571  12.391  20.484  0.00  0.00    +0.000 C 
ATOM     30  C   UNL     1      -5.470  12.016  18.975  0.00  0.00    +0.000 C 
BRANCH  27  31
ATOM     31  C   UNL     1      -6.654  13.587  22.999  0.00  0.00    +0.000 C 
ATOM     32  C   UNL     1      -6.349  14.632  24.070  0.00  0.00    +0.000 C 
ATOM     33  C   UNL     1      -5.239  13.795  23.518  0.00  0.00    +0.000 C 
BRANCH  31  34
ATOM     34  C   UNL     1      -7.368  12.401  23.424  0.00  0.00    +0.000 C 
ATOM     35  N   UNL     1      -7.916  11.455  23.806  0.00  0.00    +0.000 NA
ENDBRANCH  31  34
ENDBRANCH  27  31
BRANCH  24  37
ATOM     36  C   UNL     1      -7.238  14.283  16.545  0.00  0.00    +0.000 C 
ATOM     37  C   UNL     1      -7.042  12.831  16.956  0.00  0.00    +0.000 C 
ENDBRANCH  24  37
ENDBRANCH  22  30
ENDBRANCH   1  22
TORSDOF 7
ENDMDL
MODEL 5
REMARK VINA RESULT:      -6.9      6.994      9.576
REMARK  Name = 
REMARK  10 active torsions:
REMARK  status: ('A' for Active; 'I' for Inactive)
REMARK    1  A    between atoms: C_1  and  C_2
REMARK    2  A    between atoms: C_2  and  C_3
REMARK    3  A    between atoms: C_6  and  C_8
REMARK    4  A    between atoms: C_8  and  C_9
REMARK    5  A    between atoms: C_14  and  N_15
REMARK    6  A    between atoms: N_15  and  C_16
REMARK    7  A    between atoms: C_17  and  C_18
REMARK    8  A    between atoms: C_25  and  C_26
REMARK    9  A    between atoms: C_28  and  C_29
REMARK   10  A    between atoms: C_31  and  C_32
REMARK                            x       y       z     vdW  Elec       q    Type
REMARK                         _______ _______ _______ _____ _____    ______ ____
ROOT
ATOM      1  C   UNL     1       8.835  15.323  18.982  0.00  0.00    +0.000 A 
ATOM      2  C   UNL     1       9.596  16.229  18.311  0.00  0.00    +0.000 A 
ATOM      3  C   UNL     1       9.047  17.608  18.140  0.00  0.00    +0.000 A 
ATOM      4  N   UNL     1       7.840  17.998  18.389  0.00  0.00    +0.000 NA
ATOM      5  N   UNL     1       7.071  16.991  18.846  0.00  0.00    +0.000 N 
ATOM      6  C   UNL     1       5.720  17.063  18.972  0.00  0.00    +0.000 A 
ATOM      7  C   UNL     1       5.316  15.809  19.365  0.00  0.00    +0.000 A 
ATOM      8  N   UNL     1       6.410  14.988  19.574  0.00  0.00    +0.000 NA
ATOM      9  C   UNL     1       7.456  15.705  19.188  0.00  0.00    +0.000 A 
ENDROOT
BRANCH   7  10
ATOM     10  C   UNL     1       3.884  15.395  19.455  0.00  0.00    +0.000 A 
ATOM     11  S   UNL     1       3.043  14.614  18.179  0.00  0.00    +0.000 S 
ATOM     12  C   UNL     1       1.674  14.434  19.188  0.00  0.00    +0.000 A 
ATOM     13  C   UNL     1       0.467  13.717  18.690  0.00  0.00    +0.000 C 
ATOM     14  N   UNL     1       1.785  14.968  20.385  0.00  0.00    +0.000 NA
ATOM     15  C   UNL     1       3.050  15.529  20.549  0.00  0.00    +0.000 A 
ATOM     16  C   UNL     1       3.355  16.187  21.847  0.00  0.00    +0.000 C 
ENDBRANCH   7  10
BRANCH   2  17
ATOM     17  C   UNL     1      10.907  15.961  17.665  0.00  0.00    +0.000 C 
ATOM     18  N   UNL     1      10.882  15.772  16.326  0.00  0.00    +0.000 N 
ATOM     19  O   UNL     1      11.962  16.027  18.283  0.00  0.00    +0.000 OA
ATOM     20  H   UNL     1       9.999  15.713  15.828  0.00  0.00    +0.000 HD
ATOM     21  H   UNL     1      11.753  15.655  15.829  0.00  0.00    +0.000 HD
ENDBRANCH   2  17
BRANCH   1  22
ATOM     22  N   UNL     1       9.228  14.004  19.365  0.00  0.00    +0.000 N 
ATOM     23  H   UNL     1       8.366  13.437  19.360  0.00  0.00    +0.000 HD
BRANCH  22  30
ATOM     24  C   UNL     1      10.360  12.304  20.905  0.00  0.00    +0.000 C 
ATOM     25  C   UNL     1       9.060  11.655  21.369  0.00  0.00    +0.000 C 
ATOM     26  N   UNL     1       8.498  12.666  22.245  0.00  0.00    +0.000 N 
ATOM     27  C   UNL     1       7.909  12.302  23.443  0.00  0.00    +0.000 C 
ATOM     28  O   UNL     1       7.740  11.132  23.772  0.00  0.00    +0.000 OA
ATOM     29  C   UNL     1       8.998  13.997  21.883  0.00  0.00    +0.000 C 
ATOM     30  C   UNL     1       9.940  13.777  20.662  0.00  0.00    +0.000 C 
BRANCH  27  31
ATOM     31  C   UNL     1       7.458  13.385  24.369  0.00  0.00    +0.000 C 
ATOM     32  C   UNL     1       5.972  13.405  24.719  0.00  0.00    +0.000 C 
ATOM     33  C   UNL     1       6.545  14.492  23.866  0.00  0.00    +0.000 C 
BRANCH  31  34
ATOM     34  C   UNL     1       8.387  13.700  25.435  0.00  0.00    +0.000 C 
ATOM     35  N   UNL     1       9.097  13.983  26.306  0.00  0.00    +0.000 NA
ENDBRANCH  31  34
ENDBRANCH  27  31
BRANCH  24  37
ATOM     36  C   UNL     1      12.328  12.166  19.304  0.00  0.00    +0.000 C 
ATOM     37  C   UNL     1      11.075  11.488  19.835  0.00  0.00    +0.000 C 
ENDBRANCH  24  37
ENDBRANCH  22  30
ENDBRANCH   1  22
TORSDOF 7
ENDMDL
MODEL 6
REMARK VINA RESULT:      -6.8      3.901      7.503
REMARK  Name = 
REMARK  10 active torsions:
REMARK  status: ('A' for Active; 'I' for Inactive)
REMARK    1  A    between atoms: C_1  and  C_2
REMARK    2  A    between atoms: C_2  and  C_3
REMARK    3  A    between atoms: C_6  and  C_8
REMARK    4  A    between atoms: C_8  and  C_9
REMARK    5  A    between atoms: C_14  and  N_15
REMARK    6  A    between atoms: N_15  and  C_16
REMARK    7  A    between atoms: C_17  and  C_18
REMARK    8  A    between atoms: C_25  and  C_26
REMARK    9  A    between atoms: C_28  and  C_29
REMARK   10  A    between atoms: C_31  and  C_32
REMARK                            x       y       z     vdW  Elec       q    Type
REMARK                         _______ _______ _______ _____ _____    ______ ____
ROOT
ATOM      1  C   UNL     1      -5.719  13.031  22.410  0.00  0.00    +0.000 A 
ATOM      2  C   UNL     1      -6.931  13.011  23.026  0.00  0.00    +0.000 A 
ATOM      3  C   UNL     1      -7.916  11.974  22.592  0.00  0.00    +0.000 A 
ATOM      4  N   UNL     1      -7.825  11.203  21.558  0.00  0.00    +0.000 NA
ATOM      5  N   UNL     1      -6.694  11.430  20.861  0.00  0.00    +0.000 N 
ATOM      6  C   UNL     1      -6.451  10.928  19.622  0.00  0.00    +0.000 A 
ATOM      7  C   UNL     1      -5.252  11.474  19.229  0.00  0.00    +0.000 A 
ATOM      8  N   UNL     1      -4.704  12.233  20.248  0.00  0.00    +0.000 NA
ATOM      9  C   UNL     1      -5.628  12.247  21.199  0.00  0.00    +0.000 A 
ENDROOT
BRANCH   7  10
ATOM     10  C   UNL     1      -4.691  11.324  17.853  0.00  0.00    +0.000 A 
ATOM     11  S   UNL     1      -3.430  10.228  17.460  0.00  0.00    +0.000 S 
ATOM     12  C   UNL     1      -3.585  10.640  15.806  0.00  0.00    +0.000 A 
ATOM     13  C   UNL     1      -2.747   9.954  14.784  0.00  0.00    +0.000 C 
ATOM     14  N   UNL     1      -4.469  11.577  15.541  0.00  0.00    +0.000 NA
ATOM     15  C   UNL     1      -5.109  11.983  16.712  0.00  0.00    +0.000 A 
ATOM     16  C   UNL     1      -6.143  13.046  16.605  0.00  0.00    +0.000 C 
ENDBRANCH   7  10
BRANCH   2  17
ATOM     17  C   UNL     1      -7.406  13.973  24.054  0.00  0.00    +0.000 C 
ATOM     18  N   UNL     1      -7.363  15.281  23.710  0.00  0.00    +0.000 N 
ATOM     19  O   UNL     1      -7.916  13.605  25.104  0.00  0.00    +0.000 OA
ATOM     20  H   UNL     1      -6.930  15.573  22.838  0.00  0.00    +0.000 HD
ATOM     21  H   UNL     1      -7.738  15.970  24.345  0.00  0.00    +0.000 HD
ENDBRANCH   2  17
BRANCH   1  22
ATOM     22  N   UNL     1      -4.601  13.848  22.764  0.00  0.00    +0.000 N 
ATOM     23  H   UNL     1      -4.196  14.177  21.875  0.00  0.00    +0.000 HD
BRANCH  22  30
ATOM     24  C   UNL     1      -2.451  14.342  24.056  0.00  0.00    +0.000 C 
ATOM     25  C   UNL     1      -1.578  14.491  22.814  0.00  0.00    +0.000 C 
ATOM     26  N   UNL     1      -1.453  13.122  22.351  0.00  0.00    +0.000 N 
ATOM     27  C   UNL     1      -0.234  12.648  21.895  0.00  0.00    +0.000 C 
ATOM     28  O   UNL     1       0.751  13.368  21.762  0.00  0.00    +0.000 OA
ATOM     29  C   UNL     1      -2.590  12.317  22.808  0.00  0.00    +0.000 C 
ATOM     30  C   UNL     1      -3.501  13.292  23.613  0.00  0.00    +0.000 C 
BRANCH  27  31
ATOM     31  C   UNL     1      -0.123  11.199  21.547  0.00  0.00    +0.000 C 
ATOM     32  C   UNL     1       0.679  10.862  20.292  0.00  0.00    +0.000 C 
ATOM     33  C   UNL     1      -0.803  10.656  20.300  0.00  0.00    +0.000 C 
BRANCH  31  34
ATOM     34  C   UNL     1       0.030  10.311  22.681  0.00  0.00    +0.000 C 
ATOM     35  N   UNL     1       0.155   9.639  23.617  0.00  0.00    +0.000 NA
ENDBRANCH  31  34
ENDBRANCH  27  31
BRANCH  24  37
ATOM     36  C   UNL     1      -2.562  16.860  23.734  0.00  0.00    +0.000 C 
ATOM     37  C   UNL     1      -2.861  15.684  24.651  0.00  0.00    +0.000 C 
ENDBRANCH  24  37
ENDBRANCH  22  30
ENDBRANCH   1  22
TORSDOF 7
ENDMDL
MODEL 7
REMARK VINA RESULT:      -6.8      3.856      8.416
REMARK  Name = 
REMARK  10 active torsions:
REMARK  status: ('A' for Active; 'I' for Inactive)
REMARK    1  A    between atoms: C_1  and  C_2
REMARK    2  A    between atoms: C_2  and  C_3
REMARK    3  A    between atoms: C_6  and  C_8
REMARK    4  A    between atoms: C_8  and  C_9
REMARK    5  A    between atoms: C_14  and  N_15
REMARK    6  A    between atoms: N_15  and  C_16
REMARK    7  A    between atoms: C_17  and  C_18
REMARK    8  A    between atoms: C_25  and  C_26
REMARK    9  A    between atoms: C_28  and  C_29
REMARK   10  A    between atoms: C_31  and  C_32
REMARK                            x       y       z     vdW  Elec       q    Type
REMARK                         _______ _______ _______ _____ _____    ______ ____
ROOT
ATOM      1  C   UNL     1      -0.940  11.121  19.571  0.00  0.00    +0.000 A 
ATOM      2  C   UNL     1      -1.279  11.885  20.645  0.00  0.00    +0.000 A 
ATOM      3  C   UNL     1      -0.343  11.900  21.810  0.00  0.00    +0.000 A 
ATOM      4  N   UNL     1       0.668  11.118  22.003  0.00  0.00    +0.000 NA
ATOM      5  N   UNL     1       0.816  10.232  20.998  0.00  0.00    +0.000 N 
ATOM      6  C   UNL     1       1.648   9.158  21.048  0.00  0.00    +0.000 A 
ATOM      7  C   UNL     1       1.427   8.463  19.883  0.00  0.00    +0.000 A 
ATOM      8  N   UNL     1       0.536   9.143  19.071  0.00  0.00    +0.000 NA
ATOM      9  C   UNL     1       0.129  10.174  19.798  0.00  0.00    +0.000 A 
ENDROOT
BRANCH   7  10
ATOM     10  C   UNL     1       2.011   7.118  19.604  0.00  0.00    +0.000 A 
ATOM     11  S   UNL     1       1.676   5.726  20.550  0.00  0.00    +0.000 S 
ATOM     12  C   UNL     1       2.585   4.765  19.465  0.00  0.00    +0.000 A 
ATOM     13  C   UNL     1       2.681   3.293  19.669  0.00  0.00    +0.000 C 
ATOM     14  N   UNL     1       3.165   5.423  18.484  0.00  0.00    +0.000 NA
ATOM     15  C   UNL     1       2.847   6.779  18.556  0.00  0.00    +0.000 A 
ATOM     16  C   UNL     1       3.422   7.682  17.525  0.00  0.00    +0.000 C 
ENDBRANCH   7  10
BRANCH   2  17
ATOM     17  C   UNL     1      -2.534  12.662  20.803  0.00  0.00    +0.000 C 
ATOM     18  N   UNL     1      -3.132  12.586  22.014  0.00  0.00    +0.000 N 
ATOM     19  O   UNL     1      -2.944  13.421  19.935  0.00  0.00    +0.000 OA
ATOM     20  H   UNL     1      -2.785  11.947  22.724  0.00  0.00    +0.000 HD
ATOM     21  H   UNL     1      -3.949  13.149  22.196  0.00  0.00    +0.000 HD
ENDBRANCH   2  17
BRANCH   1  22
ATOM     22  N   UNL     1      -1.622  11.072  18.317  0.00  0.00    +0.000 N 
ATOM     23  H   UNL     1      -1.991  12.021  18.156  0.00  0.00    +0.000 HD
BRANCH  22  30
ATOM     24  C   UNL     1      -3.363  10.151  16.685  0.00  0.00    +0.000 C 
ATOM     25  C   UNL     1      -4.294  11.355  16.788  0.00  0.00    +0.000 C 
ATOM     26  N   UNL     1      -4.871  11.195  18.110  0.00  0.00    +0.000 N 
ATOM     27  C   UNL     1      -6.220  11.429  18.316  0.00  0.00    +0.000 C 
ATOM     28  O   UNL     1      -6.959  11.872  17.441  0.00  0.00    +0.000 OA
ATOM     29  C   UNL     1      -3.974  10.418  18.972  0.00  0.00    +0.000 C 
ATOM     30  C   UNL     1      -2.728  10.087  18.098  0.00  0.00    +0.000 C 
BRANCH  27  31
ATOM     31  C   UNL     1      -6.793  11.130  19.663  0.00  0.00    +0.000 C 
ATOM     32  C   UNL     1      -7.747  12.173  20.241  0.00  0.00    +0.000 C 
ATOM     33  C   UNL     1      -6.402  11.975  20.866  0.00  0.00    +0.000 C 
BRANCH  31  34
ATOM     34  C   UNL     1      -7.127   9.739  19.888  0.00  0.00    +0.000 C 
ATOM     35  N   UNL     1      -7.436   8.633  20.045  0.00  0.00    +0.000 NA
ENDBRANCH  31  34
ENDBRANCH  27  31
BRANCH  24  37
ATOM     36  C   UNL     1      -3.332  10.147  14.144  0.00  0.00    +0.000 C 
ATOM     37  C   UNL     1      -2.509  10.175  15.423  0.00  0.00    +0.000 C 
ENDBRANCH  24  37
ENDBRANCH  22  30
ENDBRANCH   1  22
TORSDOF 7
ENDMDL
MODEL 8
REMARK VINA RESULT:      -6.8      3.766      6.861
REMARK  Name = 
REMARK  10 active torsions:
REMARK  status: ('A' for Active; 'I' for Inactive)
REMARK    1  A    between atoms: C_1  and  C_2
REMARK    2  A    between atoms: C_2  and  C_3
REMARK    3  A    between atoms: C_6  and  C_8
REMARK    4  A    between atoms: C_8  and  C_9
REMARK    5  A    between atoms: C_14  and  N_15
REMARK    6  A    between atoms: N_15  and  C_16
REMARK    7  A    between atoms: C_17  and  C_18
REMARK    8  A    between atoms: C_25  and  C_26
REMARK    9  A    between atoms: C_28  and  C_29
REMARK   10  A    between atoms: C_31  and  C_32
REMARK                            x       y       z     vdW  Elec       q    Type
REMARK                         _______ _______ _______ _____ _____    ______ ____
ROOT
ATOM      1  C   UNL     1      -0.888  11.858  19.117  0.00  0.00    +0.000 A 
ATOM      2  C   UNL     1       0.337  11.288  19.266  0.00  0.00    +0.000 A 
ATOM      3  C   UNL     1       1.032  11.465  20.578  0.00  0.00    +0.000 A 
ATOM      4  N   UNL     1       0.690  12.264  21.534  0.00  0.00    +0.000 NA
ATOM      5  N   UNL     1      -0.418  12.967  21.229  0.00  0.00    +0.000 N 
ATOM      6  C   UNL     1      -0.867  14.030  21.948  0.00  0.00    +0.000 A 
ATOM      7  C   UNL     1      -1.946  14.519  21.252  0.00  0.00    +0.000 A 
ATOM      8  N   UNL     1      -2.229  13.717  20.161  0.00  0.00    +0.000 NA
ATOM      9  C   UNL     1      -1.249  12.824  20.131  0.00  0.00    +0.000 A 
ENDROOT
BRANCH   7  10
ATOM     10  C   UNL     1      -2.639  15.796  21.600  0.00  0.00    +0.000 A 
ATOM     11  S   UNL     1      -3.644  15.982  22.978  0.00  0.00    +0.000 S 
ATOM     12  C   UNL     1      -3.821  17.647  22.628  0.00  0.00    +0.000 A 
ATOM     13  C   UNL     1      -4.604  18.525  23.542  0.00  0.00    +0.000 C 
ATOM     14  N   UNL     1      -3.230  18.055  21.525  0.00  0.00    +0.000 NA
ATOM     15  C   UNL     1      -2.551  16.997  20.922  0.00  0.00    +0.000 A 
ATOM     16  C   UNL     1      -1.825  17.272  19.654  0.00  0.00    +0.000 C 
ENDBRANCH   7  10
BRANCH   2  17
ATOM     17  C   UNL     1       1.093  10.554  18.219  0.00  0.00    +0.000 C 
ATOM     18  N   UNL     1       2.256  11.117  17.820  0.00  0.00    +0.000 N 
ATOM     19  O   UNL     1       0.751   9.446  17.824  0.00  0.00    +0.000 OA
ATOM     20  H   UNL     1       2.525  12.040  18.150  0.00  0.00    +0.000 HD
ATOM     21  H   UNL     1       2.841  10.625  17.161  0.00  0.00    +0.000 HD
ENDBRANCH   2  17
BRANCH   1  22
ATOM     22  N   UNL     1      -1.768  11.697  18.003  0.00  0.00    +0.000 N 
ATOM     23  H   UNL     1      -2.211  12.617  17.854  0.00  0.00    +0.000 HD
BRANCH  22  30
ATOM     24  C   UNL     1      -3.581  10.466  16.684  0.00  0.00    +0.000 C 
ATOM     25  C   UNL     1      -4.558  11.638  16.672  0.00  0.00    +0.000 C 
ATOM     26  N   UNL     1      -5.025  11.671  18.045  0.00  0.00    +0.000 N 
ATOM     27  C   UNL     1      -6.365  11.887  18.322  0.00  0.00    +0.000 C 
ATOM     28  O   UNL     1      -7.187  12.158  17.453  0.00  0.00    +0.000 OA
ATOM     29  C   UNL     1      -4.030  11.075  18.943  0.00  0.00    +0.000 C 
ATOM     30  C   UNL     1      -2.839  10.652  18.032  0.00  0.00    +0.000 C 
BRANCH  27  31
ATOM     31  C   UNL     1      -6.820  11.788  19.742  0.00  0.00    +0.000 C 
ATOM     32  C   UNL     1      -7.688  12.933  20.258  0.00  0.00    +0.000 C 
ATOM     33  C   UNL     1      -6.297  12.765  20.784  0.00  0.00    +0.000 C 
BRANCH  31  34
ATOM     34  C   UNL     1      -7.170  10.451  20.177  0.00  0.00    +0.000 C 
ATOM     35  N   UNL     1      -7.491   9.386  20.499  0.00  0.00    +0.000 NA
ENDBRANCH  31  34
ENDBRANCH  27  31
BRANCH  24  37
ATOM     36  C   UNL     1      -3.738  10.035  14.185  0.00  0.00    +0.000 C 
ATOM     37  C   UNL     1      -2.826  10.318  15.368  0.00  0.00    +0.000 C 
ENDBRANCH  24  37
ENDBRANCH  22  30
ENDBRANCH   1  22
TORSDOF 7
ENDMDL
MODEL 9
REMARK VINA RESULT:      -6.7      0.804      1.121
REMARK  Name = 
REMARK  10 active torsions:
REMARK  status: ('A' for Active; 'I' for Inactive)
REMARK    1  A    between atoms: C_1  and  C_2
REMARK    2  A    between atoms: C_2  and  C_3
REMARK    3  A    between atoms: C_6  and  C_8
REMARK    4  A    between atoms: C_8  and  C_9
REMARK    5  A    between atoms: C_14  and  N_15
REMARK    6  A    between atoms: N_15  and  C_16
REMARK    7  A    between atoms: C_17  and  C_18
REMARK    8  A    between atoms: C_25  and  C_26
REMARK    9  A    between atoms: C_28  and  C_29
REMARK   10  A    between atoms: C_31  and  C_32
REMARK                            x       y       z     vdW  Elec       q    Type
REMARK                         _______ _______ _______ _____ _____    ______ ____
ROOT
ATOM      1  C   UNL     1       0.812  12.194  19.924  0.00  0.00    +0.000 A 
ATOM      2  C   UNL     1       1.471  12.918  18.980  0.00  0.00    +0.000 A 
ATOM      3  C   UNL     1       1.006  14.316  18.725  0.00  0.00    +0.000 A 
ATOM      4  N   UNL     1      -0.079  14.863  19.162  0.00  0.00    +0.000 NA
ATOM      5  N   UNL     1      -0.802  14.012  19.917  0.00  0.00    +0.000 N 
ATOM      6  C   UNL     1      -2.081  14.247  20.314  0.00  0.00    +0.000 A 
ATOM      7  C   UNL     1      -2.482  13.105  20.966  0.00  0.00    +0.000 A 
ATOM      8  N   UNL     1      -1.437  12.203  21.059  0.00  0.00    +0.000 NA
ATOM      9  C   UNL     1      -0.452  12.747  20.357  0.00  0.00    +0.000 A 
ENDROOT
BRANCH   7  10
ATOM     10  C   UNL     1      -3.885  12.864  21.416  0.00  0.00    +0.000 A 
ATOM     11  S   UNL     1      -5.208  12.683  20.338  0.00  0.00    +0.000 S 
ATOM     12  C   UNL     1      -6.239  12.333  21.657  0.00  0.00    +0.000 A 
ATOM     13  C   UNL     1      -7.668  11.986  21.418  0.00  0.00    +0.000 C 
ATOM     14  N   UNL     1      -5.676  12.401  22.844  0.00  0.00    +0.000 NA
ATOM     15  C   UNL     1      -4.322  12.711  22.719  0.00  0.00    +0.000 A 
ATOM     16  C   UNL     1      -3.521  12.836  23.965  0.00  0.00    +0.000 C 
ENDBRANCH   7  10
BRANCH   2  17
ATOM     17  C   UNL     1       2.578  12.429  18.119  0.00  0.00    +0.000 C 
ATOM     18  N   UNL     1       3.537  13.332  17.812  0.00  0.00    +0.000 N 
ATOM     19  O   UNL     1       2.685  11.251  17.802  0.00  0.00    +0.000 OA
ATOM     20  H   UNL     1       3.432  14.308  18.075  0.00  0.00    +0.000 HD
ATOM     21  H   UNL     1       4.345  13.034  17.287  0.00  0.00    +0.000 HD
ENDBRANCH   2  17
BRANCH   1  22
ATOM     22  N   UNL     1       1.177  10.900  20.408  0.00  0.00    +0.000 N 
ATOM     23  H   UNL     1       2.151  10.748  20.107  0.00  0.00    +0.000 HD
BRANCH  22  30
ATOM     24  C   UNL     1      -0.085   8.836  21.238  0.00  0.00    +0.000 C 
ATOM     25  C   UNL     1       1.170   8.035  21.569  0.00  0.00    +0.000 C 
ATOM     26  N   UNL     1       1.676   7.685  20.255  0.00  0.00    +0.000 N 
ATOM     27  C   UNL     1       2.171   6.415  20.014  0.00  0.00    +0.000 C 
ATOM     28  O   UNL     1       2.302   5.573  20.898  0.00  0.00    +0.000 OA
ATOM     29  C   UNL     1       1.219   8.653  19.252  0.00  0.00    +0.000 C 
ATOM     30  C   UNL     1       0.367   9.699  20.032  0.00  0.00    +0.000 C 
BRANCH  27  31
ATOM     31  C   UNL     1       2.563   6.061  18.616  0.00  0.00    +0.000 C 
ATOM     32  C   UNL     1       1.514   5.331  17.781  0.00  0.00    +0.000 C 
ATOM     33  C   UNL     1       2.747   4.605  18.218  0.00  0.00    +0.000 C 
BRANCH  31  34
ATOM     34  C   UNL     1       3.364   7.059  17.937  0.00  0.00    +0.000 C 
ATOM     35  N   UNL     1       3.964   7.881  17.383  0.00  0.00    +0.000 NA
ENDBRANCH  31  34
ENDBRANCH  27  31
BRANCH  24  37
ATOM     36  C   UNL     1       0.201   9.492  23.676  0.00  0.00    +0.000 C 
ATOM     37  C   UNL     1      -0.727   9.459  22.472  0.00  0.00    +0.000 C 
ENDBRANCH  24  37
ENDBRANCH  22  30
ENDBRANCH   1  22
TORSDOF 7
ENDMDL
