MODEL 1
REMARK VINA RESULT:      -8.0      0.000      0.000
REMARK  Name = 
REMARK  6 active torsions:
REMARK  status: ('A' for Active; 'I' for Inactive)
REMARK    1  A    between atoms: C_1  and  N_2
REMARK    2  A    between atoms: C_8  and  N_9
REMARK    3  A    between atoms: C_13  and  C_15
REMARK    4  A    between atoms: C_20  and  O_21
REMARK    5  A    between atoms: O_21  and  C_22
REMARK    6  A    between atoms: C_22  and  C_23
REMARK                            x       y       z     vdW  Elec       q    Type
REMARK                         _______ _______ _______ _____ _____    ______ ____
ROOT
ATOM      1  N   UNL     1       2.917   6.238  19.465  0.00  0.00    +0.000 N 
ATOM      2  C   UNL     1       2.519   7.450  18.938  0.00  0.00    +0.000 C 
ATOM      3  O   UNL     1       2.779   7.768  17.792  0.00  0.00    +0.000 OA
ATOM      4  N   UNL     1       1.867   8.209  19.897  0.00  0.00    +0.000 N 
ATOM      5  C   UNL     1       1.216   9.424  19.717  0.00  0.00    +0.000 C 
ATOM      6  O   UNL     1       1.257  10.074  18.675  0.00  0.00    +0.000 OA
ATOM      7  H   UNL     1       2.276   5.932  20.204  0.00  0.00    +0.000 HD
ATOM      8  H   UNL     1       1.785   7.772  20.805  0.00  0.00    +0.000 HD
ENDROOT
BRANCH   1  16
ATOM      9  C   UNL     1       1.113   1.447  18.849  0.00  0.00    +0.000 C 
ATOM     10  N   UNL     1       2.105   2.518  18.786  0.00  0.00    +0.000 NA
ATOM     11  C   UNL     1       1.384   3.789  18.650  0.00  0.00    +0.000 C 
ATOM     12  C   UNL     1       1.035   4.094  20.143  0.00  0.00    +0.000 C 
ATOM     13  C   UNL     1       2.125   3.437  20.992  0.00  0.00    +0.000 C 
ATOM     14  C   UNL     1       3.002   2.801  19.938  0.00  0.00    +0.000 C 
ATOM     15  C   UNL     1       4.080   3.888  19.560  0.00  0.00    +0.000 C 
ATOM     16  C   UNL     1       3.529   5.110  18.764  0.00  0.00    +0.000 C 
ATOM     17  C   UNL     1       2.430   4.592  17.849  0.00  0.00    +0.000 C 
ENDBRANCH   1  16
BRANCH   5  18
ATOM     18  C   UNL     1       0.425   9.935  20.893  0.00  0.00    +0.000 A 
ATOM     19  C   UNL     1       0.649   9.374  22.171  0.00  0.00    +0.000 A 
ATOM     20  C   UNL     1      -0.112   9.760  23.280  0.00  0.00    +0.000 A 
ATOM     21  C   UNL     1      -1.127  10.692  23.132  0.00  0.00    +0.000 A 
ATOM     22  C   UNL     1      -1.341  11.274  21.885  0.00  0.00    +0.000 A 
ATOM     23  C   UNL     1      -0.536  10.968  20.774  0.00  0.00    +0.000 A 
BRANCH  23  24
ATOM     24  O   UNL     1      -0.670  11.644  19.576  0.00  0.00    +0.000 OA
BRANCH  24  25
ATOM     25  C   UNL     1      -1.963  11.505  18.959  0.00  0.00    +0.000 C 
BRANCH  25  26
ATOM     26  C   UNL     1      -2.121  10.203  18.233  0.00  0.00    +0.000 C 
ATOM     27  C   UNL     1      -3.421   9.982  17.487  0.00  0.00    +0.000 C 
ATOM     28  C   UNL     1      -2.139  10.146  16.723  0.00  0.00    +0.000 C 
ENDBRANCH  25  26
ENDBRANCH  24  25
ENDBRANCH  23  24
ENDBRANCH   5  18
TORSDOF 5
ENDMDL
MODEL 2
REMARK VINA RESULT:      -8.0      1.088      3.003
REMARK  Name = 
REMARK  6 active torsions:
REMARK  status: ('A' for Active; 'I' for Inactive)
REMARK    1  A    between atoms: C_1  and  N_2
REMARK    2  A    between atoms: C_8  and  N_9
REMARK    3  A    between atoms: C_13  and  C_15
REMARK    4  A    between atoms: C_20  and  O_21
REMARK    5  A    between atoms: O_21  and  C_22
REMARK    6  A    between atoms: C_22  and  C_23
REMARK                            x       y       z     vdW  Elec       q    Type
REMARK                         _______ _______ _______ _____ _____    ______ ____
ROOT
ATOM      1  N   UNL     1       2.267   6.554  18.314  0.00  0.00    +0.000 N 
ATOM      2  C   UNL     1       2.493   7.901  18.110  0.00  0.00    +0.000 C 
ATOM      3  O   UNL     1       3.587   8.326  17.792  0.00  0.00    +0.000 OA
ATOM      4  N   UNL     1       1.346   8.633  18.372  0.00  0.00    +0.000 N 
ATOM      5  C   UNL     1       1.142   9.992  18.162  0.00  0.00    +0.000 C 
ATOM      6  O   UNL     1       2.032  10.774  17.837  0.00  0.00    +0.000 OA
ATOM      7  H   UNL     1       1.290   6.313  18.121  0.00  0.00    +0.000 HD
ATOM      8  H   UNL     1       0.546   8.086  18.661  0.00  0.00    +0.000 HD
ENDROOT
BRANCH   1  16
ATOM      9  C   UNL     1       1.915   1.647  19.860  0.00  0.00    +0.000 C 
ATOM     10  N   UNL     1       2.557   2.815  19.259  0.00  0.00    +0.000 NA
ATOM     11  C   UNL     1       1.499   3.681  18.724  0.00  0.00    +0.000 C 
ATOM     12  C   UNL     1       1.086   4.472  20.008  0.00  0.00    +0.000 C 
ATOM     13  C   UNL     1       2.325   4.531  20.905  0.00  0.00    +0.000 C 
ATOM     14  C   UNL     1       3.341   3.769  20.086  0.00  0.00    +0.000 C 
ATOM     15  C   UNL     1       4.058   4.843  19.180  0.00  0.00    +0.000 C 
ATOM     16  C   UNL     1       3.174   5.439  18.043  0.00  0.00    +0.000 C 
ATOM     17  C   UNL     1       2.265   4.324  17.549  0.00  0.00    +0.000 C 
ENDBRANCH   1  16
BRANCH   5  18
ATOM     18  C   UNL     1      -0.267  10.490  18.354  0.00  0.00    +0.000 A 
ATOM     19  C   UNL     1      -1.292  10.001  17.512  0.00  0.00    +0.000 A 
ATOM     20  C   UNL     1      -2.601  10.487  17.600  0.00  0.00    +0.000 A 
ATOM     21  C   UNL     1      -2.907  11.488  18.509  0.00  0.00    +0.000 A 
ATOM     22  C   UNL     1      -1.915  11.961  19.363  0.00  0.00    +0.000 A 
ATOM     23  C   UNL     1      -0.613  11.430  19.356  0.00  0.00    +0.000 A 
BRANCH  23  24
ATOM     24  O   UNL     1       0.330  11.811  20.292  0.00  0.00    +0.000 OA
BRANCH  24  25
ATOM     25  C   UNL     1       0.020  11.416  21.640  0.00  0.00    +0.000 C 
BRANCH  25  26
ATOM     26  C   UNL     1       0.525  10.045  21.972  0.00  0.00    +0.000 C 
ATOM     27  C   UNL     1      -0.019   9.394  23.227  0.00  0.00    +0.000 C 
ATOM     28  C   UNL     1      -0.376   8.835  21.881  0.00  0.00    +0.000 C 
ENDBRANCH  25  26
ENDBRANCH  24  25
ENDBRANCH  23  24
ENDBRANCH   5  18
TORSDOF 5
ENDMDL
MODEL 3
REMARK VINA RESULT:      -7.6      2.477      8.058
REMARK  Name = 
REMARK  6 active torsions:
REMARK  status: ('A' for Active; 'I' for Inactive)
REMARK    1  A    between atoms: C_1  and  N_2
REMARK    2  A    between atoms: C_8  and  N_9
REMARK    3  A    between atoms: C_13  and  C_15
REMARK    4  A    between atoms: C_20  and  O_21
REMARK    5  A    between atoms: O_21  and  C_22
REMARK    6  A    between atoms: C_22  and  C_23
REMARK                            x       y       z     vdW  Elec       q    Type
REMARK                         _______ _______ _______ _____ _____    ______ ____
ROOT
ATOM      1  N   UNL     1       0.955   9.153  19.751  0.00  0.00    +0.000 N 
ATOM      2  C   UNL     1       1.582   8.012  20.211  0.00  0.00    +0.000 C 
ATOM      3  O   UNL     1       1.368   7.567  21.323  0.00  0.00    +0.000 OA
ATOM      4  N   UNL     1       2.478   7.535  19.268  0.00  0.00    +0.000 N 
ATOM      5  C   UNL     1       3.200   6.347  19.311  0.00  0.00    +0.000 C 
ATOM      6  O   UNL     1       3.245   5.609  20.293  0.00  0.00    +0.000 OA
ATOM      7  H   UNL     1       0.870   9.138  18.730  0.00  0.00    +0.000 HD
ATOM      8  H   UNL     1       2.531   8.076  18.416  0.00  0.00    +0.000 HD
ENDROOT
BRANCH   1  16
ATOM      9  C   UNL     1      -0.481  14.048  18.995  0.00  0.00    +0.000 C 
ATOM     10  N   UNL     1      -0.477  12.745  19.658  0.00  0.00    +0.000 NA
ATOM     11  C   UNL     1      -0.116  11.735  18.655  0.00  0.00    +0.000 C 
ATOM     12  C   UNL     1       1.444  11.838  18.678  0.00  0.00    +0.000 C 
ATOM     13  C   UNL     1       1.832  12.304  20.083  0.00  0.00    +0.000 C 
ATOM     14  C   UNL     1       0.484  12.443  20.751  0.00  0.00    +0.000 C 
ATOM     15  C   UNL     1       0.177  11.039  21.401  0.00  0.00    +0.000 C 
ATOM     16  C   UNL     1      -0.132   9.898  20.384  0.00  0.00    +0.000 C 
ATOM     17  C   UNL     1      -0.888  10.525  19.222  0.00  0.00    +0.000 C 
ENDBRANCH   1  16
BRANCH   5  18
ATOM     18  C   UNL     1       3.955   5.983  18.059  0.00  0.00    +0.000 A 
ATOM     19  C   UNL     1       4.392   7.011  17.193  0.00  0.00    +0.000 A 
ATOM     20  C   UNL     1       5.030   6.721  15.982  0.00  0.00    +0.000 A 
ATOM     21  C   UNL     1       5.221   5.402  15.599  0.00  0.00    +0.000 A 
ATOM     22  C   UNL     1       4.821   4.380  16.454  0.00  0.00    +0.000 A 
ATOM     23  C   UNL     1       4.256   4.642  17.714  0.00  0.00    +0.000 A 
BRANCH  23  24
ATOM     24  O   UNL     1       3.981   3.626  18.610  0.00  0.00    +0.000 OA
BRANCH  24  25
ATOM     25  C   UNL     1       3.011   2.672  18.144  0.00  0.00    +0.000 C 
BRANCH  25  26
ATOM     26  C   UNL     1       1.601   3.156  18.301  0.00  0.00    +0.000 C 
ATOM     27  C   UNL     1       0.576   2.150  18.784  0.00  0.00    +0.000 C 
ATOM     28  C   UNL     1       0.970   3.297  19.667  0.00  0.00    +0.000 C 
ENDBRANCH  25  26
ENDBRANCH  24  25
ENDBRANCH  23  24
ENDBRANCH   5  18
TORSDOF 5
ENDMDL
MODEL 4
REMARK VINA RESULT:      -7.6      1.387      1.608
REMARK  Name = 
REMARK  6 active torsions:
REMARK  status: ('A' for Active; 'I' for Inactive)
REMARK    1  A    between atoms: C_1  and  N_2
REMARK    2  A    between atoms: C_8  and  N_9
REMARK    3  A    between atoms: C_13  and  C_15
REMARK    4  A    between atoms: C_20  and  O_21
REMARK    5  A    between atoms: O_21  and  C_22
REMARK    6  A    between atoms: C_22  and  C_23
REMARK                            x       y       z     vdW  Elec       q    Type
REMARK                         _______ _______ _______ _____ _____    ______ ____
ROOT
ATOM      1  N   UNL     1       2.795   6.554  18.802  0.00  0.00    +0.000 N 
ATOM      2  C   UNL     1       2.765   7.754  18.121  0.00  0.00    +0.000 C 
ATOM      3  O   UNL     1       3.395   7.924  17.095  0.00  0.00    +0.000 OA
ATOM      4  N   UNL     1       1.991   8.681  18.802  0.00  0.00    +0.000 N 
ATOM      5  C   UNL     1       1.622   9.952  18.375  0.00  0.00    +0.000 C 
ATOM      6  O   UNL     1       2.068  10.490  17.364  0.00  0.00    +0.000 OA
ATOM      7  H   UNL     1       1.926   6.408  19.327  0.00  0.00    +0.000 HD
ATOM      8  H   UNL     1       1.580   8.346  19.662  0.00  0.00    +0.000 HD
ENDROOT
BRANCH   1  16
ATOM      9  C   UNL     1       1.158   1.736  19.643  0.00  0.00    +0.000 C 
ATOM     10  N   UNL     1       2.095   2.772  19.210  0.00  0.00    +0.000 NA
ATOM     11  C   UNL     1       1.310   3.944  18.806  0.00  0.00    +0.000 C 
ATOM     12  C   UNL     1       1.068   4.631  20.190  0.00  0.00    +0.000 C 
ATOM     13  C   UNL     1       2.251   4.248  21.082  0.00  0.00    +0.000 C 
ATOM     14  C   UNL     1       3.068   3.371  20.161  0.00  0.00    +0.000 C 
ATOM     15  C   UNL     1       4.063   4.340  19.414  0.00  0.00    +0.000 C 
ATOM     16  C   UNL     1       3.397   5.292  18.374  0.00  0.00    +0.000 C 
ATOM     17  C   UNL     1       2.253   4.524  17.731  0.00  0.00    +0.000 C 
ENDBRANCH   1  16
BRANCH   5  18
ATOM     18  C   UNL     1       0.614  10.674  19.230  0.00  0.00    +0.000 A 
ATOM     19  C   UNL     1       1.063  11.420  20.344  0.00  0.00    +0.000 A 
ATOM     20  C   UNL     1       0.162  12.046  21.212  0.00  0.00    +0.000 A 
ATOM     21  C   UNL     1      -1.203  11.918  21.003  0.00  0.00    +0.000 A 
ATOM     22  C   UNL     1      -1.659  11.209  19.896  0.00  0.00    +0.000 A 
ATOM     23  C   UNL     1      -0.776  10.643  18.960  0.00  0.00    +0.000 A 
BRANCH  23  24
ATOM     24  O   UNL     1      -1.235  10.054  17.796  0.00  0.00    +0.000 OA
BRANCH  24  25
ATOM     25  C   UNL     1      -2.643   9.762  17.796  0.00  0.00    +0.000 C 
BRANCH  25  26
ATOM     26  C   UNL     1      -3.251   9.845  16.428  0.00  0.00    +0.000 C 
ATOM     27  C   UNL     1      -4.151  11.030  16.144  0.00  0.00    +0.000 C 
ATOM     28  C   UNL     1      -2.827  10.913  15.447  0.00  0.00    +0.000 C 
ENDBRANCH  25  26
ENDBRANCH  24  25
ENDBRANCH  23  24
ENDBRANCH   5  18
TORSDOF 5
ENDMDL
MODEL 5
REMARK VINA RESULT:      -7.5      1.226      3.073
REMARK  Name = 
REMARK  6 active torsions:
REMARK  status: ('A' for Active; 'I' for Inactive)
REMARK    1  A    between atoms: C_1  and  N_2
REMARK    2  A    between atoms: C_8  and  N_9
REMARK    3  A    between atoms: C_13  and  C_15
REMARK    4  A    between atoms: C_20  and  O_21
REMARK    5  A    between atoms: O_21  and  C_22
REMARK    6  A    between atoms: C_22  and  C_23
REMARK                            x       y       z     vdW  Elec       q    Type
REMARK                         _______ _______ _______ _____ _____    ______ ____
ROOT
ATOM      1  N   UNL     1       2.213   6.519  18.244  0.00  0.00    +0.000 N 
ATOM      2  C   UNL     1       2.400   7.878  18.094  0.00  0.00    +0.000 C 
ATOM      3  O   UNL     1       3.492   8.352  17.845  0.00  0.00    +0.000 OA
ATOM      4  N   UNL     1       1.214   8.560  18.321  0.00  0.00    +0.000 N 
ATOM      5  C   UNL     1       0.972   9.918  18.144  0.00  0.00    +0.000 C 
ATOM      6  O   UNL     1       1.847  10.741  17.889  0.00  0.00    +0.000 OA
ATOM      7  H   UNL     1       1.256   6.250  17.994  0.00  0.00    +0.000 HD
ATOM      8  H   UNL     1       0.422   7.976  18.552  0.00  0.00    +0.000 HD
ENDROOT
BRANCH   1  16
ATOM      9  C   UNL     1       2.053   1.594  19.767  0.00  0.00    +0.000 C 
ATOM     10  N   UNL     1       2.652   2.792  19.180  0.00  0.00    +0.000 NA
ATOM     11  C   UNL     1       1.566   3.613  18.632  0.00  0.00    +0.000 C 
ATOM     12  C   UNL     1       1.098   4.379  19.911  0.00  0.00    +0.000 C 
ATOM     13  C   UNL     1       2.318   4.489  20.828  0.00  0.00    +0.000 C 
ATOM     14  C   UNL     1       3.380   3.776  20.023  0.00  0.00    +0.000 C 
ATOM     15  C   UNL     1       4.063   4.885  19.134  0.00  0.00    +0.000 C 
ATOM     16  C   UNL     1       3.173   5.446  17.984  0.00  0.00    +0.000 C 
ATOM     17  C   UNL     1       2.322   4.293  17.472  0.00  0.00    +0.000 C 
ENDBRANCH   1  16
BRANCH   5  18
ATOM     18  C   UNL     1      -0.462  10.360  18.280  0.00  0.00    +0.000 A 
ATOM     19  C   UNL     1      -1.412   9.921  17.329  0.00  0.00    +0.000 A 
ATOM     20  C   UNL     1      -2.739  10.363  17.368  0.00  0.00    +0.000 A 
ATOM     21  C   UNL     1      -3.138  11.270  18.337  0.00  0.00    +0.000 A 
ATOM     22  C   UNL     1      -2.221  11.690  19.296  0.00  0.00    +0.000 A 
ATOM     23  C   UNL     1      -0.905  11.196  19.333  0.00  0.00    +0.000 A 
BRANCH  23  24
ATOM     24  O   UNL     1      -0.040  11.517  20.363  0.00  0.00    +0.000 OA
BRANCH  24  25
ATOM     25  C   UNL     1      -0.455  12.644  21.155  0.00  0.00    +0.000 C 
BRANCH  25  26
ATOM     26  C   UNL     1      -0.684  12.288  22.593  0.00  0.00    +0.000 C 
ATOM     27  C   UNL     1      -2.112  12.010  23.016  0.00  0.00    +0.000 C 
ATOM     28  C   UNL     1      -1.108  10.895  22.996  0.00  0.00    +0.000 C 
ENDBRANCH  25  26
ENDBRANCH  24  25
ENDBRANCH  23  24
ENDBRANCH   5  18
TORSDOF 5
ENDMDL
MODEL 6
REMARK VINA RESULT:      -7.4      1.612      2.438
REMARK  Name = 
REMARK  6 active torsions:
REMARK  status: ('A' for Active; 'I' for Inactive)
REMARK    1  A    between atoms: C_1  and  N_2
REMARK    2  A    between atoms: C_8  and  N_9
REMARK    3  A    between atoms: C_13  and  C_15
REMARK    4  A    between atoms: C_20  and  O_21
REMARK    5  A    between atoms: O_21  and  C_22
REMARK    6  A    between atoms: C_22  and  C_23
REMARK                            x       y       z     vdW  Elec       q    Type
REMARK                         _______ _______ _______ _____ _____    ______ ____
ROOT
ATOM      1  N   UNL     1       2.763   6.814  19.310  0.00  0.00    +0.000 N 
ATOM      2  C   UNL     1       2.221   7.963  18.771  0.00  0.00    +0.000 C 
ATOM      3  O   UNL     1       2.358   8.247  17.596  0.00  0.00    +0.000 OA
ATOM      4  N   UNL     1       1.587   8.709  19.752  0.00  0.00    +0.000 N 
ATOM      5  C   UNL     1       0.821   9.857  19.580  0.00  0.00    +0.000 C 
ATOM      6  O   UNL     1       0.720  10.459  18.513  0.00  0.00    +0.000 OA
ATOM      7  H   UNL     1       2.214   6.491  20.113  0.00  0.00    +0.000 HD
ATOM      8  H   UNL     1       1.618   8.310  20.680  0.00  0.00    +0.000 HD
ENDROOT
BRANCH   1  16
ATOM      9  C   UNL     1       1.453   1.827  19.215  0.00  0.00    +0.000 C 
ATOM     10  N   UNL     1       2.303   2.989  18.963  0.00  0.00    +0.000 NA
ATOM     11  C   UNL     1       1.431   4.164  18.844  0.00  0.00    +0.000 C 
ATOM     12  C   UNL     1       1.232   4.539  20.350  0.00  0.00    +0.000 C 
ATOM     13  C   UNL     1       2.484   4.064  21.089  0.00  0.00    +0.000 C 
ATOM     14  C   UNL     1       3.295   3.448  19.971  0.00  0.00    +0.000 C 
ATOM     15  C   UNL     1       4.188   4.612  19.395  0.00  0.00    +0.000 C 
ATOM     16  C   UNL     1       3.410   5.708  18.605  0.00  0.00    +0.000 C 
ATOM     17  C   UNL     1       2.275   5.012  17.870  0.00  0.00    +0.000 C 
ENDBRANCH   1  16
BRANCH   5  18
ATOM     18  C   UNL     1       0.089  10.356  20.798  0.00  0.00    +0.000 A 
ATOM     19  C   UNL     1       0.169   9.618  22.002  0.00  0.00    +0.000 A 
ATOM     20  C   UNL     1      -0.553   9.998  23.138  0.00  0.00    +0.000 A 
ATOM     21  C   UNL     1      -1.388  11.103  23.090  0.00  0.00    +0.000 A 
ATOM     22  C   UNL     1      -1.457  11.855  21.921  0.00  0.00    +0.000 A 
ATOM     23  C   UNL     1      -0.678  11.547  20.792  0.00  0.00    +0.000 A 
BRANCH  23  24
ATOM     24  O   UNL     1      -0.653  12.371  19.683  0.00  0.00    +0.000 OA
BRANCH  24  25
ATOM     25  C   UNL     1      -0.077  13.668  19.921  0.00  0.00    +0.000 C 
BRANCH  25  26
ATOM     26  C   UNL     1       1.390  13.715  19.616  0.00  0.00    +0.000 C 
ATOM     27  C   UNL     1       2.165  14.909  20.134  0.00  0.00    +0.000 C 
ATOM     28  C   UNL     1       2.422  13.545  20.706  0.00  0.00    +0.000 C 
ENDBRANCH  25  26
ENDBRANCH  24  25
ENDBRANCH  23  24
ENDBRANCH   5  18
TORSDOF 5
ENDMDL
MODEL 7
REMARK VINA RESULT:      -7.4      1.123      1.408
REMARK  Name = 
REMARK  6 active torsions:
REMARK  status: ('A' for Active; 'I' for Inactive)
REMARK    1  A    between atoms: C_1  and  N_2
REMARK    2  A    between atoms: C_8  and  N_9
REMARK    3  A    between atoms: C_13  and  C_15
REMARK    4  A    between atoms: C_20  and  O_21
REMARK    5  A    between atoms: O_21  and  C_22
REMARK    6  A    between atoms: C_22  and  C_23
REMARK                            x       y       z     vdW  Elec       q    Type
REMARK                         _______ _______ _______ _____ _____    ______ ____
ROOT
ATOM      1  N   UNL     1       2.319   6.664  18.418  0.00  0.00    +0.000 N 
ATOM      2  C   UNL     1       2.163   8.025  18.256  0.00  0.00    +0.000 C 
ATOM      3  O   UNL     1       2.530   8.597  17.246  0.00  0.00    +0.000 OA
ATOM      4  N   UNL     1       1.606   8.591  19.392  0.00  0.00    +0.000 N 
ATOM      5  C   UNL     1       1.185   9.905  19.564  0.00  0.00    +0.000 C 
ATOM      6  O   UNL     1       1.388  10.801  18.748  0.00  0.00    +0.000 OA
ATOM      7  H   UNL     1       1.600   6.284  19.042  0.00  0.00    +0.000 HD
ATOM      8  H   UNL     1       1.405   7.941  20.139  0.00  0.00    +0.000 HD
ENDROOT
BRANCH   1  16
ATOM      9  C   UNL     1       3.740   1.756  19.122  0.00  0.00    +0.000 C 
ATOM     10  N   UNL     1       3.562   3.001  18.376  0.00  0.00    +0.000 NA
ATOM     11  C   UNL     1       2.418   3.712  18.959  0.00  0.00    +0.000 C 
ATOM     12  C   UNL     1       3.102   4.440  20.163  0.00  0.00    +0.000 C 
ATOM     13  C   UNL     1       4.561   4.671  19.763  0.00  0.00    +0.000 C 
ATOM     14  C   UNL     1       4.610   4.056  18.383  0.00  0.00    +0.000 C 
ATOM     15  C   UNL     1       4.247   5.218  17.381  0.00  0.00    +0.000 C 
ATOM     16  C   UNL     1       2.760   5.685  17.426  0.00  0.00    +0.000 C 
ATOM     17  C   UNL     1       1.912   4.453  17.704  0.00  0.00    +0.000 C 
ENDBRANCH   1  16
BRANCH   5  18
ATOM     18  C   UNL     1       0.437  10.201  20.838  0.00  0.00    +0.000 A 
ATOM     19  C   UNL     1       0.629   9.364  21.961  0.00  0.00    +0.000 A 
ATOM     20  C   UNL     1      -0.098   9.552  23.142  0.00  0.00    +0.000 A 
ATOM     21  C   UNL     1      -1.046  10.560  23.218  0.00  0.00    +0.000 A 
ATOM     22  C   UNL     1      -1.226  11.410  22.130  0.00  0.00    +0.000 A 
ATOM     23  C   UNL     1      -0.451  11.298  20.964  0.00  0.00    +0.000 A 
BRANCH  23  24
ATOM     24  O   UNL     1      -0.544  12.223  19.941  0.00  0.00    +0.000 OA
BRANCH  24  25
ATOM     25  C   UNL     1      -1.875  12.404  19.425  0.00  0.00    +0.000 C 
BRANCH  25  26
ATOM     26  C   UNL     1      -2.372  11.205  18.675  0.00  0.00    +0.000 C 
ATOM     27  C   UNL     1      -3.468  11.435  17.654  0.00  0.00    +0.000 C 
ATOM     28  C   UNL     1      -2.096  11.034  17.199  0.00  0.00    +0.000 C 
ENDBRANCH  25  26
ENDBRANCH  24  25
ENDBRANCH  23  24
ENDBRANCH   5  18
TORSDOF 5
ENDMDL
MODEL 8
REMARK VINA RESULT:      -7.3      1.023      1.179
REMARK  Name = 
REMARK  6 active torsions:
REMARK  status: ('A' for Active; 'I' for Inactive)
REMARK    1  A    between atoms: C_1  and  N_2
REMARK    2  A    between atoms: C_8  and  N_9
REMARK    3  A    between atoms: C_13  and  C_15
REMARK    4  A    between atoms: C_20  and  O_21
REMARK    5  A    between atoms: O_21  and  C_22
REMARK    6  A    between atoms: C_22  and  C_23
REMARK                            x       y       z     vdW  Elec       q    Type
REMARK                         _______ _______ _______ _____ _____    ______ ____
ROOT
ATOM      1  N   UNL     1       2.232   6.799  18.621  0.00  0.00    +0.000 N 
ATOM      2  C   UNL     1       2.287   8.131  18.263  0.00  0.00    +0.000 C 
ATOM      3  O   UNL     1       2.944   8.514  17.314  0.00  0.00    +0.000 OA
ATOM      4  N   UNL     1       1.558   8.905  19.153  0.00  0.00    +0.000 N 
ATOM      5  C   UNL     1       1.274  10.263  19.058  0.00  0.00    +0.000 C 
ATOM      6  O   UNL     1       1.769  11.008  18.216  0.00  0.00    +0.000 OA
ATOM      7  H   UNL     1       1.347   6.582  19.090  0.00  0.00    +0.000 HD
ATOM      8  H   UNL     1       1.112   8.391  19.900  0.00  0.00    +0.000 HD
ENDROOT
BRANCH   1  16
ATOM      9  C   UNL     1       1.707   1.776  19.663  0.00  0.00    +0.000 C 
ATOM     10  N   UNL     1       2.247   2.948  18.976  0.00  0.00    +0.000 NA
ATOM     11  C   UNL     1       1.223   3.999  19.011  0.00  0.00    +0.000 C 
ATOM     12  C   UNL     1       1.477   4.614  20.426  0.00  0.00    +0.000 C 
ATOM     13  C   UNL     1       2.958   4.393  20.740  0.00  0.00    +0.000 C 
ATOM     14  C   UNL     1       3.436   3.666  19.505  0.00  0.00    +0.000 C 
ATOM     15  C   UNL     1       3.911   4.786  18.501  0.00  0.00    +0.000 C 
ATOM     16  C   UNL     1       2.765   5.650  17.891  0.00  0.00    +0.000 C 
ATOM     17  C   UNL     1       1.566   4.733  17.699  0.00  0.00    +0.000 C 
ENDBRANCH   1  16
BRANCH   5  18
ATOM     18  C   UNL     1       0.296  10.809  20.065  0.00  0.00    +0.000 A 
ATOM     19  C   UNL     1       0.516  10.569  21.441  0.00  0.00    +0.000 A 
ATOM     20  C   UNL     1      -0.401  10.990  22.410  0.00  0.00    +0.000 A 
ATOM     21  C   UNL     1      -1.567  11.633  22.026  0.00  0.00    +0.000 A 
ATOM     22  C   UNL     1      -1.785  11.901  20.677  0.00  0.00    +0.000 A 
ATOM     23  C   UNL     1      -0.841  11.566  19.691  0.00  0.00    +0.000 A 
BRANCH  23  24
ATOM     24  O   UNL     1      -1.004  11.950  18.373  0.00  0.00    +0.000 OA
BRANCH  24  25
ATOM     25  C   UNL     1      -2.284  11.610  17.811  0.00  0.00    +0.000 C 
BRANCH  25  26
ATOM     26  C   UNL     1      -2.214  10.439  16.879  0.00  0.00    +0.000 C 
ATOM     27  C   UNL     1      -3.529   9.813  16.457  0.00  0.00    +0.000 C 
ATOM     28  C   UNL     1      -2.693  10.546  15.449  0.00  0.00    +0.000 C 
ENDBRANCH  25  26
ENDBRANCH  24  25
ENDBRANCH  23  24
ENDBRANCH   5  18
TORSDOF 5
ENDMDL
MODEL 9
REMARK VINA RESULT:      -7.3      2.005      3.127
REMARK  Name = 
REMARK  6 active torsions:
REMARK  status: ('A' for Active; 'I' for Inactive)
REMARK    1  A    between atoms: C_1  and  N_2
REMARK    2  A    between atoms: C_8  and  N_9
REMARK    3  A    between atoms: C_13  and  C_15
REMARK    4  A    between atoms: C_20  and  O_21
REMARK    5  A    between atoms: O_21  and  C_22
REMARK    6  A    between atoms: C_22  and  C_23
REMARK                            x       y       z     vdW  Elec       q    Type
REMARK                         _______ _______ _______ _____ _____    ______ ____
ROOT
ATOM      1  N   UNL     1       2.476   6.490  18.526  0.00  0.00    +0.000 N 
ATOM      2  C   UNL     1       2.702   7.789  18.119  0.00  0.00    +0.000 C 
ATOM      3  O   UNL     1       3.710   8.105  17.516  0.00  0.00    +0.000 OA
ATOM      4  N   UNL     1       1.677   8.619  18.544  0.00  0.00    +0.000 N 
ATOM      5  C   UNL     1       1.485   9.959  18.227  0.00  0.00    +0.000 C 
ATOM      6  O   UNL     1       2.307  10.642  17.620  0.00  0.00    +0.000 OA
ATOM      7  H   UNL     1       1.471   6.295  18.587  0.00  0.00    +0.000 HD
ATOM      8  H   UNL     1       0.944   8.159  19.067  0.00  0.00    +0.000 HD
ENDROOT
BRANCH   1  16
ATOM      9  C   UNL     1       1.569   1.579  19.815  0.00  0.00    +0.000 C 
ATOM     10  N   UNL     1       2.339   2.697  19.272  0.00  0.00    +0.000 NA
ATOM     11  C   UNL     1       1.386   3.705  18.790  0.00  0.00    +0.000 C 
ATOM     12  C   UNL     1       1.066   4.469  20.116  0.00  0.00    +0.000 C 
ATOM     13  C   UNL     1       2.303   4.339  21.007  0.00  0.00    +0.000 C 
ATOM     14  C   UNL     1       3.227   3.512  20.143  0.00  0.00    +0.000 C 
ATOM     15  C   UNL     1       4.060   4.543  19.291  0.00  0.00    +0.000 C 
ATOM     16  C   UNL     1       3.250   5.295  18.191  0.00  0.00    +0.000 C 
ATOM     17  C   UNL     1       2.220   4.317  17.646  0.00  0.00    +0.000 C 
ENDBRANCH   1  16
BRANCH   5  18
ATOM     18  C   UNL     1       0.179  10.566  18.669  0.00  0.00    +0.000 A 
ATOM     19  C   UNL     1      -1.002  10.259  17.956  0.00  0.00    +0.000 A 
ATOM     20  C   UNL     1      -2.225  10.855  18.281  0.00  0.00    +0.000 A 
ATOM     21  C   UNL     1      -2.290  11.788  19.304  0.00  0.00    +0.000 A 
ATOM     22  C   UNL     1      -1.141  12.081  20.033  0.00  0.00    +0.000 A 
ATOM     23  C   UNL     1       0.082  11.434  19.785  0.00  0.00    +0.000 A 
BRANCH  23  24
ATOM     24  O   UNL     1       1.184  11.633  20.596  0.00  0.00    +0.000 OA
BRANCH  24  25
ATOM     25  C   UNL     1       1.584  13.009  20.723  0.00  0.00    +0.000 C 
BRANCH  25  26
ATOM     26  C   UNL     1       2.438  13.471  19.582  0.00  0.00    +0.000 C 
ATOM     27  C   UNL     1       1.804  14.422  18.586  0.00  0.00    +0.000 C 
ATOM     28  C   UNL     1       2.905  14.905  19.484  0.00  0.00    +0.000 C 
ENDBRANCH  25  26
ENDBRANCH  24  25
ENDBRANCH  23  24
ENDBRANCH   5  18
TORSDOF 5
ENDMDL
