MODEL 1
REMARK VINA RESULT:      -8.7      0.000      0.000
REMARK  Name = 
REMARK  8 active torsions:
REMARK  status: ('A' for Active; 'I' for Inactive)
REMARK    1  A    between atoms: C_1  and  C_2
REMARK    2  A    between atoms: C_2  and  C_3
REMARK    3  A    between atoms: C_6  and  C_7
REMARK    4  A    between atoms: C_7  and  C_8
REMARK    5  A    between atoms: C_7  and  C_17
REMARK    6  A    between atoms: C_11  and  N_12
REMARK    7  A    between atoms: C_20  and  C_21
REMARK    8  A    between atoms: C_21  and  C_22
REMARK                            x       y       z     vdW  Elec       q    Type
REMARK                         _______ _______ _______ _____ _____    ______ ____
ROOT
ATOM      1  C   UNL     1       5.264   5.842  16.175  0.00  0.00    +0.000 C 
ENDROOT
BRANCH   1   2
ATOM      2  C   UNL     1       4.238   5.041  17.000  0.00  0.00    +0.000 A 
ATOM      3  C   UNL     1       4.238   3.631  17.007  0.00  0.00    +0.000 A 
ATOM      4  C   UNL     1       3.274   2.908  17.712  0.00  0.00    +0.000 A 
ATOM      5  C   UNL     1       2.283   3.594  18.417  0.00  0.00    +0.000 A 
ATOM      6  C   UNL     1       2.253   4.994  18.420  0.00  0.00    +0.000 A 
ATOM      7  C   UNL     1       3.227   5.712  17.713  0.00  0.00    +0.000 A 
BRANCH   5   8
ATOM      8  N   UNL     1       1.259   2.836  19.146  0.00  0.00    +0.000 N 
ATOM      9  O   UNL     1       0.412   2.220  18.480  0.00  0.00    +0.000 OA
ATOM     10  O   UNL     1       1.294   2.859  20.384  0.00  0.00    +0.000 OA
ENDBRANCH   5   8
ENDBRANCH   1   2
BRANCH   1  14
ATOM     11  C   UNL     1       5.580   3.887  13.148  0.00  0.00    +0.000 A 
ATOM     12  C   UNL     1       6.932   3.974  13.397  0.00  0.00    +0.000 A 
ATOM     13  C   UNL     1       7.069   4.699  14.600  0.00  0.00    +0.000 A 
ATOM     14  C   UNL     1       5.792   5.019  15.022  0.00  0.00    +0.000 A 
ATOM     15  O   UNL     1       4.876   4.509  14.139  0.00  0.00    +0.000 OA
BRANCH  11  17
ATOM     16  C   UNL     1       5.539   2.081  11.440  0.00  0.00    +0.000 C 
ATOM     17  C   UNL     1       4.810   3.277  12.034  0.00  0.00    +0.000 C 
ENDBRANCH  11  17
ENDBRANCH   1  14
BRANCH   1  18
ATOM     18  C   UNL     1       6.394   6.361  17.030  0.00  0.00    +0.000 A 
ATOM     19  C   UNL     1       7.116   5.811  18.076  0.00  0.00    +0.000 A 
ATOM     20  C   UNL     1       7.948   6.833  18.577  0.00  0.00    +0.000 A 
ATOM     21  C   UNL     1       7.720   7.941  17.792  0.00  0.00    +0.000 A 
ATOM     22  O   UNL     1       6.778   7.663  16.844  0.00  0.00    +0.000 OA
BRANCH  21  23
ATOM     23  C   UNL     1       8.278   9.317  17.814  0.00  0.00    +0.000 C 
ATOM     24  C   UNL     1       9.034   9.594  19.104  0.00  0.00    +0.000 C 
ENDBRANCH  21  23
ENDBRANCH   1  18
TORSDOF 6
ENDMDL
MODEL 2
REMARK VINA RESULT:      -8.6      0.223      1.014
REMARK  Name = 
REMARK  8 active torsions:
REMARK  status: ('A' for Active; 'I' for Inactive)
REMARK    1  A    between atoms: C_1  and  C_2
REMARK    2  A    between atoms: C_2  and  C_3
REMARK    3  A    between atoms: C_6  and  C_7
REMARK    4  A    between atoms: C_7  and  C_8
REMARK    5  A    between atoms: C_7  and  C_17
REMARK    6  A    between atoms: C_11  and  N_12
REMARK    7  A    between atoms: C_20  and  C_21
REMARK    8  A    between atoms: C_21  and  C_22
REMARK                            x       y       z     vdW  Elec       q    Type
REMARK                         _______ _______ _______ _____ _____    ______ ____
ROOT
ATOM      1  C   UNL     1       5.316   5.931  16.132  0.00  0.00    +0.000 C 
ENDROOT
BRANCH   1   2
ATOM      2  C   UNL     1       4.265   5.157  16.951  0.00  0.00    +0.000 A 
ATOM      3  C   UNL     1       3.275   5.827  17.699  0.00  0.00    +0.000 A 
ATOM      4  C   UNL     1       2.358   5.126  18.484  0.00  0.00    +0.000 A 
ATOM      5  C   UNL     1       2.428   3.733  18.538  0.00  0.00    +0.000 A 
ATOM      6  C   UNL     1       3.406   3.041  17.813  0.00  0.00    +0.000 A 
ATOM      7  C   UNL     1       4.321   3.754  17.025  0.00  0.00    +0.000 A 
BRANCH   5   8
ATOM      8  N   UNL     1       1.475   2.994  19.375  0.00  0.00    +0.000 N 
ATOM      9  O   UNL     1       0.906   2.011  18.874  0.00  0.00    +0.000 OA
ATOM     10  O   UNL     1       1.286   3.398  20.531  0.00  0.00    +0.000 OA
ENDBRANCH   5   8
ENDBRANCH   1   2
BRANCH   1  14
ATOM     11  C   UNL     1       5.657   3.922  13.143  0.00  0.00    +0.000 A 
ATOM     12  C   UNL     1       7.006   3.999  13.412  0.00  0.00    +0.000 A 
ATOM     13  C   UNL     1       7.133   4.742  14.604  0.00  0.00    +0.000 A 
ATOM     14  C   UNL     1       5.853   5.083  15.001  0.00  0.00    +0.000 A 
ATOM     15  O   UNL     1       4.945   4.569  14.113  0.00  0.00    +0.000 OA
BRANCH  11  17
ATOM     16  C   UNL     1       5.629   2.098  11.455  0.00  0.00    +0.000 C 
ATOM     17  C   UNL     1       4.897   3.302  12.027  0.00  0.00    +0.000 C 
ENDBRANCH  11  17
ENDBRANCH   1  14
BRANCH   1  18
ATOM     18  C   UNL     1       6.439   6.447  16.999  0.00  0.00    +0.000 A 
ATOM     19  C   UNL     1       7.153   5.891  18.048  0.00  0.00    +0.000 A 
ATOM     20  C   UNL     1       7.979   6.912  18.562  0.00  0.00    +0.000 A 
ATOM     21  C   UNL     1       7.756   8.024  17.781  0.00  0.00    +0.000 A 
ATOM     22  O   UNL     1       6.823   7.750  16.824  0.00  0.00    +0.000 OA
BRANCH  21  23
ATOM     23  C   UNL     1       8.312   9.401  17.815  0.00  0.00    +0.000 C 
ATOM     24  C   UNL     1       9.078   9.663  19.102  0.00  0.00    +0.000 C 
ENDBRANCH  21  23
ENDBRANCH   1  18
TORSDOF 6
ENDMDL
MODEL 3
REMARK VINA RESULT:      -8.0      3.629      5.892
REMARK  Name = 
REMARK  8 active torsions:
REMARK  status: ('A' for Active; 'I' for Inactive)
REMARK    1  A    between atoms: C_1  and  C_2
REMARK    2  A    between atoms: C_2  and  C_3
REMARK    3  A    between atoms: C_6  and  C_7
REMARK    4  A    between atoms: C_7  and  C_8
REMARK    5  A    between atoms: C_7  and  C_17
REMARK    6  A    between atoms: C_11  and  N_12
REMARK    7  A    between atoms: C_20  and  C_21
REMARK    8  A    between atoms: C_21  and  C_22
REMARK                            x       y       z     vdW  Elec       q    Type
REMARK                         _______ _______ _______ _____ _____    ______ ____
ROOT
ATOM      1  C   UNL     1       3.030   6.023  17.906  0.00  0.00    +0.000 C 
ENDROOT
BRANCH   1   2
ATOM      2  C   UNL     1       2.399   7.222  18.640  0.00  0.00    +0.000 A 
ATOM      3  C   UNL     1       2.123   7.178  20.022  0.00  0.00    +0.000 A 
ATOM      4  C   UNL     1       1.502   8.244  20.673  0.00  0.00    +0.000 A 
ATOM      5  C   UNL     1       1.136   9.375  19.940  0.00  0.00    +0.000 A 
ATOM      6  C   UNL     1       1.389   9.443  18.565  0.00  0.00    +0.000 A 
ATOM      7  C   UNL     1       2.017   8.369  17.920  0.00  0.00    +0.000 A 
BRANCH   5   8
ATOM      8  N   UNL     1       0.468  10.491  20.621  0.00  0.00    +0.000 N 
ATOM      9  O   UNL     1       1.079  11.058  21.540  0.00  0.00    +0.000 OA
ATOM     10  O   UNL     1      -0.671  10.799  20.244  0.00  0.00    +0.000 OA
ENDBRANCH   5   8
ENDBRANCH   1   2
BRANCH   1  14
ATOM     11  C   UNL     1       1.485   3.262  19.658  0.00  0.00    +0.000 A 
ATOM     12  C   UNL     1       1.092   2.863  18.400  0.00  0.00    +0.000 A 
ATOM     13  C   UNL     1       1.624   3.808  17.498  0.00  0.00    +0.000 A 
ATOM     14  C   UNL     1       2.315   4.738  18.254  0.00  0.00    +0.000 A 
ATOM     15  O   UNL     1       2.242   4.396  19.579  0.00  0.00    +0.000 OA
BRANCH  11  17
ATOM     16  C   UNL     1       2.200   3.244  22.039  0.00  0.00    +0.000 C 
ATOM     17  C   UNL     1       1.222   2.701  21.008  0.00  0.00    +0.000 C 
ENDBRANCH  11  17
ENDBRANCH   1  14
BRANCH   1  18
ATOM     18  C   UNL     1       4.510   5.908  18.181  0.00  0.00    +0.000 A 
ATOM     19  C   UNL     1       5.242   5.227  19.140  0.00  0.00    +0.000 A 
ATOM     20  C   UNL     1       6.585   5.625  18.983  0.00  0.00    +0.000 A 
ATOM     21  C   UNL     1       6.612   6.497  17.917  0.00  0.00    +0.000 A 
ATOM     22  O   UNL     1       5.353   6.673  17.419  0.00  0.00    +0.000 OA
BRANCH  21  23
ATOM     23  C   UNL     1       7.713   7.252  17.267  0.00  0.00    +0.000 C 
ATOM     24  C   UNL     1       7.858   8.647  17.855  0.00  0.00    +0.000 C 
ENDBRANCH  21  23
ENDBRANCH   1  18
TORSDOF 6
ENDMDL
MODEL 4
REMARK VINA RESULT:      -7.9      1.466      1.655
REMARK  Name = 
REMARK  8 active torsions:
REMARK  status: ('A' for Active; 'I' for Inactive)
REMARK    1  A    between atoms: C_1  and  C_2
REMARK    2  A    between atoms: C_2  and  C_3
REMARK    3  A    between atoms: C_6  and  C_7
REMARK    4  A    between atoms: C_7  and  C_8
REMARK    5  A    between atoms: C_7  and  C_17
REMARK    6  A    between atoms: C_11  and  N_12
REMARK    7  A    between atoms: C_20  and  C_21
REMARK    8  A    between atoms: C_21  and  C_22
REMARK                            x       y       z     vdW  Elec       q    Type
REMARK                         _______ _______ _______ _____ _____    ______ ____
ROOT
ATOM      1  C   UNL     1       5.374   6.296  16.888  0.00  0.00    +0.000 C 
ENDROOT
BRANCH   1   2
ATOM      2  C   UNL     1       4.484   5.588  17.929  0.00  0.00    +0.000 A 
ATOM      3  C   UNL     1       4.977   4.534  18.724  0.00  0.00    +0.000 A 
ATOM      4  C   UNL     1       4.154   3.859  19.626  0.00  0.00    +0.000 A 
ATOM      5  C   UNL     1       2.811   4.228  19.738  0.00  0.00    +0.000 A 
ATOM      6  C   UNL     1       2.293   5.266  18.954  0.00  0.00    +0.000 A 
ATOM      7  C   UNL     1       3.128   5.941  18.053  0.00  0.00    +0.000 A 
BRANCH   5   8
ATOM      8  N   UNL     1       1.940   3.509  20.675  0.00  0.00    +0.000 N 
ATOM      9  O   UNL     1       0.713   3.637  20.539  0.00  0.00    +0.000 OA
ATOM     10  O   UNL     1       2.479   2.821  21.553  0.00  0.00    +0.000 OA
ENDBRANCH   5   8
ENDBRANCH   1   2
BRANCH   1  14
ATOM     11  C   UNL     1       6.804   4.793  13.925  0.00  0.00    +0.000 A 
ATOM     12  C   UNL     1       6.015   3.714  14.259  0.00  0.00    +0.000 A 
ATOM     13  C   UNL     1       5.303   4.086  15.419  0.00  0.00    +0.000 A 
ATOM     14  C   UNL     1       5.697   5.373  15.735  0.00  0.00    +0.000 A 
ATOM     15  O   UNL     1       6.608   5.814  14.811  0.00  0.00    +0.000 OA
BRANCH  11  17
ATOM     16  C   UNL     1       7.331   4.359  11.534  0.00  0.00    +0.000 C 
ATOM     17  C   UNL     1       7.788   5.007  12.833  0.00  0.00    +0.000 C 
ENDBRANCH  11  17
ENDBRANCH   1  14
BRANCH   1  18
ATOM     18  C   UNL     1       6.636   6.847  17.507  0.00  0.00    +0.000 A 
ATOM     19  C   UNL     1       7.564   6.319  18.389  0.00  0.00    +0.000 A 
ATOM     20  C   UNL     1       8.449   7.364  18.721  0.00  0.00    +0.000 A 
ATOM     21  C   UNL     1       8.042   8.464  18.000  0.00  0.00    +0.000 A 
ATOM     22  O   UNL     1       6.940   8.159  17.254  0.00  0.00    +0.000 OA
BRANCH  21  23
ATOM     23  C   UNL     1       8.555   9.855  17.917  0.00  0.00    +0.000 C 
ATOM     24  C   UNL     1       9.250  10.273  19.203  0.00  0.00    +0.000 C 
ENDBRANCH  21  23
ENDBRANCH   1  18
TORSDOF 6
ENDMDL
MODEL 5
REMARK VINA RESULT:      -7.8      1.381      2.041
REMARK  Name = 
REMARK  8 active torsions:
REMARK  status: ('A' for Active; 'I' for Inactive)
REMARK    1  A    between atoms: C_1  and  C_2
REMARK    2  A    between atoms: C_2  and  C_3
REMARK    3  A    between atoms: C_6  and  C_7
REMARK    4  A    between atoms: C_7  and  C_8
REMARK    5  A    between atoms: C_7  and  C_17
REMARK    6  A    between atoms: C_11  and  N_12
REMARK    7  A    between atoms: C_20  and  C_21
REMARK    8  A    between atoms: C_21  and  C_22
REMARK                            x       y       z     vdW  Elec       q    Type
REMARK                         _______ _______ _______ _____ _____    ______ ____
ROOT
ATOM      1  C   UNL     1       5.339   6.088  16.719  0.00  0.00    +0.000 C 
ENDROOT
BRANCH   1   2
ATOM      2  C   UNL     1       4.443   5.335  17.722  0.00  0.00    +0.000 A 
ATOM      3  C   UNL     1       3.081   5.662  17.882  0.00  0.00    +0.000 A 
ATOM      4  C   UNL     1       2.285   5.016  18.829  0.00  0.00    +0.000 A 
ATOM      5  C   UNL     1       2.852   4.033  19.643  0.00  0.00    +0.000 A 
ATOM      6  C   UNL     1       4.204   3.695  19.513  0.00  0.00    +0.000 A 
ATOM      7  C   UNL     1       4.995   4.346  18.556  0.00  0.00    +0.000 A 
BRANCH   5   8
ATOM      8  N   UNL     1       2.021   3.363  20.651  0.00  0.00    +0.000 N 
ATOM      9  O   UNL     1       2.598   2.760  21.569  0.00  0.00    +0.000 OA
ATOM     10  O   UNL     1       0.790   3.431  20.524  0.00  0.00    +0.000 OA
ENDBRANCH   5   8
ENDBRANCH   1   2
BRANCH   1  14
ATOM     11  C   UNL     1       6.772   4.750  13.680  0.00  0.00    +0.000 A 
ATOM     12  C   UNL     1       6.159   3.579  14.070  0.00  0.00    +0.000 A 
ATOM     13  C   UNL     1       5.478   3.868  15.271  0.00  0.00    +0.000 A 
ATOM     14  C   UNL     1       5.712   5.201  15.553  0.00  0.00    +0.000 A 
ATOM     15  O   UNL     1       6.494   5.748  14.570  0.00  0.00    +0.000 OA
BRANCH  11  17
ATOM     16  C   UNL     1       8.790   5.996  12.935  0.00  0.00    +0.000 C 
ATOM     17  C   UNL     1       7.647   5.079  12.526  0.00  0.00    +0.000 C 
ENDBRANCH  11  17
ENDBRANCH   1  14
BRANCH   1  18
ATOM     18  C   UNL     1       6.572   6.656  17.380  0.00  0.00    +0.000 A 
ATOM     19  C   UNL     1       7.483   6.135  18.285  0.00  0.00    +0.000 A 
ATOM     20  C   UNL     1       8.339   7.193  18.653  0.00  0.00    +0.000 A 
ATOM     21  C   UNL     1       7.933   8.293  17.930  0.00  0.00    +0.000 A 
ATOM     22  O   UNL     1       6.860   7.975  17.149  0.00  0.00    +0.000 OA
BRANCH  21  23
ATOM     23  C   UNL     1       8.424   9.693  17.875  0.00  0.00    +0.000 C 
ATOM     24  C   UNL     1       9.223  10.056  19.117  0.00  0.00    +0.000 C 
ENDBRANCH  21  23
ENDBRANCH   1  18
TORSDOF 6
ENDMDL
MODEL 6
REMARK VINA RESULT:      -7.7      3.550      5.919
REMARK  Name = 
REMARK  8 active torsions:
REMARK  status: ('A' for Active; 'I' for Inactive)
REMARK    1  A    between atoms: C_1  and  C_2
REMARK    2  A    between atoms: C_2  and  C_3
REMARK    3  A    between atoms: C_6  and  C_7
REMARK    4  A    between atoms: C_7  and  C_8
REMARK    5  A    between atoms: C_7  and  C_17
REMARK    6  A    between atoms: C_11  and  N_12
REMARK    7  A    between atoms: C_20  and  C_21
REMARK    8  A    between atoms: C_21  and  C_22
REMARK                            x       y       z     vdW  Elec       q    Type
REMARK                         _______ _______ _______ _____ _____    ______ ____
ROOT
ATOM      1  C   UNL     1       3.031   5.946  17.835  0.00  0.00    +0.000 C 
ENDROOT
BRANCH   1   2
ATOM      2  C   UNL     1       2.373   7.183  18.477  0.00  0.00    +0.000 A 
ATOM      3  C   UNL     1       2.075   8.335  17.721  0.00  0.00    +0.000 A 
ATOM      4  C   UNL     1       1.530   9.474  18.315  0.00  0.00    +0.000 A 
ATOM      5  C   UNL     1       1.283   9.477  19.690  0.00  0.00    +0.000 A 
ATOM      6  C   UNL     1       1.576   8.350  20.467  0.00  0.00    +0.000 A 
ATOM      7  C   UNL     1       2.121   7.210  19.861  0.00  0.00    +0.000 A 
BRANCH   5   8
ATOM      8  N   UNL     1       0.724  10.679  20.320  0.00  0.00    +0.000 N 
ATOM      9  O   UNL     1      -0.273  10.541  21.046  0.00  0.00    +0.000 OA
ATOM     10  O   UNL     1       1.274  11.764  20.085  0.00  0.00    +0.000 OA
ENDBRANCH   5   8
ENDBRANCH   1   2
BRANCH   1  14
ATOM     11  C   UNL     1       1.450   3.267  19.681  0.00  0.00    +0.000 A 
ATOM     12  C   UNL     1       1.065   2.821  18.436  0.00  0.00    +0.000 A 
ATOM     13  C   UNL     1       1.613   3.726  17.503  0.00  0.00    +0.000 A 
ATOM     14  C   UNL     1       2.303   4.680  18.227  0.00  0.00    +0.000 A 
ATOM     15  O   UNL     1       2.216   4.392  19.564  0.00  0.00    +0.000 OA
BRANCH  11  17
ATOM     16  C   UNL     1       2.235   3.211  22.039  0.00  0.00    +0.000 C 
ATOM     17  C   UNL     1       1.170   2.762  21.050  0.00  0.00    +0.000 C 
ENDBRANCH  11  17
ENDBRANCH   1  14
BRANCH   1  18
ATOM     18  C   UNL     1       4.499   5.850  18.171  0.00  0.00    +0.000 A 
ATOM     19  C   UNL     1       5.196   5.210  19.184  0.00  0.00    +0.000 A 
ATOM     20  C   UNL     1       6.543   5.609  19.063  0.00  0.00    +0.000 A 
ATOM     21  C   UNL     1       6.608   6.438  17.966  0.00  0.00    +0.000 A 
ATOM     22  O   UNL     1       5.369   6.589  17.413  0.00  0.00    +0.000 OA
BRANCH  21  23
ATOM     23  C   UNL     1       7.730   7.174  17.330  0.00  0.00    +0.000 C 
ATOM     24  C   UNL     1       7.843   8.593  17.864  0.00  0.00    +0.000 C 
ENDBRANCH  21  23
ENDBRANCH   1  18
TORSDOF 6
ENDMDL
MODEL 7
REMARK VINA RESULT:      -7.6      3.158      5.194
REMARK  Name = 
REMARK  8 active torsions:
REMARK  status: ('A' for Active; 'I' for Inactive)
REMARK    1  A    between atoms: C_1  and  C_2
REMARK    2  A    between atoms: C_2  and  C_3
REMARK    3  A    between atoms: C_6  and  C_7
REMARK    4  A    between atoms: C_7  and  C_8
REMARK    5  A    between atoms: C_7  and  C_17
REMARK    6  A    between atoms: C_11  and  N_12
REMARK    7  A    between atoms: C_20  and  C_21
REMARK    8  A    between atoms: C_21  and  C_22
REMARK                            x       y       z     vdW  Elec       q    Type
REMARK                         _______ _______ _______ _____ _____    ______ ____
ROOT
ATOM      1  C   UNL     1       3.890   5.800  17.536  0.00  0.00    +0.000 C 
ENDROOT
BRANCH   1   2
ATOM      2  C   UNL     1       2.989   6.851  18.215  0.00  0.00    +0.000 A 
ATOM      3  C   UNL     1       2.566   8.009  17.533  0.00  0.00    +0.000 A 
ATOM      4  C   UNL     1       1.796   8.985  18.167  0.00  0.00    +0.000 A 
ATOM      5  C   UNL     1       1.445   8.817  19.508  0.00  0.00    +0.000 A 
ATOM      6  C   UNL     1       1.860   7.680  20.214  0.00  0.00    +0.000 A 
ATOM      7  C   UNL     1       2.630   6.704  19.568  0.00  0.00    +0.000 A 
BRANCH   5   8
ATOM      8  N   UNL     1       0.649   9.849  20.182  0.00  0.00    +0.000 N 
ATOM      9  O   UNL     1       0.839  11.031  19.854  0.00  0.00    +0.000 OA
ATOM     10  O   UNL     1      -0.162   9.484  21.044  0.00  0.00    +0.000 OA
ENDBRANCH   5   8
ENDBRANCH   1   2
BRANCH   1  14
ATOM     11  C   UNL     1       2.330   2.928  19.085  0.00  0.00    +0.000 A 
ATOM     12  C   UNL     1       2.905   2.229  18.046  0.00  0.00    +0.000 A 
ATOM     13  C   UNL     1       3.627   3.171  17.284  0.00  0.00    +0.000 A 
ATOM     14  C   UNL     1       3.454   4.399  17.896  0.00  0.00    +0.000 A 
ATOM     15  O   UNL     1       2.670   4.249  19.010  0.00  0.00    +0.000 OA
BRANCH  11  17
ATOM     16  C   UNL     1       1.897   3.087  21.528  0.00  0.00    +0.000 C 
ATOM     17  C   UNL     1       1.441   2.507  20.198  0.00  0.00    +0.000 C 
ENDBRANCH  11  17
ENDBRANCH   1  14
BRANCH   1  18
ATOM     18  C   UNL     1       5.349   6.012  17.863  0.00  0.00    +0.000 A 
ATOM     19  C   UNL     1       6.235   5.349  18.697  0.00  0.00    +0.000 A 
ATOM     20  C   UNL     1       7.427   6.103  18.703  0.00  0.00    +0.000 A 
ATOM     21  C   UNL     1       7.222   7.162  17.848  0.00  0.00    +0.000 A 
ATOM     22  O   UNL     1       5.961   7.114  17.328  0.00  0.00    +0.000 OA
BRANCH  21  23
ATOM     23  C   UNL     1       8.085   8.298  17.434  0.00  0.00    +0.000 C 
ATOM     24  C   UNL     1       8.619   9.062  18.635  0.00  0.00    +0.000 C 
ENDBRANCH  21  23
ENDBRANCH   1  18
TORSDOF 6
ENDMDL
MODEL 8
REMARK VINA RESULT:      -7.6      3.234      6.470
REMARK  Name = 
REMARK  8 active torsions:
REMARK  status: ('A' for Active; 'I' for Inactive)
REMARK    1  A    between atoms: C_1  and  C_2
REMARK    2  A    between atoms: C_2  and  C_3
REMARK    3  A    between atoms: C_6  and  C_7
REMARK    4  A    between atoms: C_7  and  C_8
REMARK    5  A    between atoms: C_7  and  C_17
REMARK    6  A    between atoms: C_11  and  N_12
REMARK    7  A    between atoms: C_20  and  C_21
REMARK    8  A    between atoms: C_21  and  C_22
REMARK                            x       y       z     vdW  Elec       q    Type
REMARK                         _______ _______ _______ _____ _____    ______ ____
ROOT
ATOM      1  C   UNL     1       3.339   6.500  19.144  0.00  0.00    +0.000 C 
ENDROOT
BRANCH   1   2
ATOM      2  C   UNL     1       4.229   6.087  17.956  0.00  0.00    +0.000 A 
ATOM      3  C   UNL     1       3.884   5.008  17.117  0.00  0.00    +0.000 A 
ATOM      4  C   UNL     1       4.719   4.601  16.076  0.00  0.00    +0.000 A 
ATOM      5  C   UNL     1       5.927   5.269  15.866  0.00  0.00    +0.000 A 
ATOM      6  C   UNL     1       6.300   6.338  16.689  0.00  0.00    +0.000 A 
ATOM      7  C   UNL     1       5.454   6.742  17.731  0.00  0.00    +0.000 A 
BRANCH   5   8
ATOM      8  N   UNL     1       6.814   4.833  14.781  0.00  0.00    +0.000 N 
ATOM      9  O   UNL     1       7.826   5.514  14.551  0.00  0.00    +0.000 OA
ATOM     10  O   UNL     1       6.500   3.813  14.152  0.00  0.00    +0.000 OA
ENDBRANCH   5   8
ENDBRANCH   1   2
BRANCH   1  14
ATOM     11  C   UNL     1       1.921   3.214  19.666  0.00  0.00    +0.000 A 
ATOM     12  C   UNL     1       1.260   3.816  20.714  0.00  0.00    +0.000 A 
ATOM     13  C   UNL     1       1.643   5.174  20.698  0.00  0.00    +0.000 A 
ATOM     14  C   UNL     1       2.521   5.330  19.641  0.00  0.00    +0.000 A 
ATOM     15  O   UNL     1       2.681   4.130  18.998  0.00  0.00    +0.000 OA
BRANCH  11  17
ATOM     16  C   UNL     1       3.228   1.511  18.412  0.00  0.00    +0.000 C 
ATOM     17  C   UNL     1       1.951   1.809  19.184  0.00  0.00    +0.000 C 
ENDBRANCH  11  17
ENDBRANCH   1  14
BRANCH   1  18
ATOM     18  C   UNL     1       2.451   7.672  18.803  0.00  0.00    +0.000 A 
ATOM     19  C   UNL     1       2.234   8.383  17.634  0.00  0.00    +0.000 A 
ATOM     20  C   UNL     1       1.402   9.471  17.969  0.00  0.00    +0.000 A 
ATOM     21  C   UNL     1       1.124   9.350  19.312  0.00  0.00    +0.000 A 
ATOM     22  O   UNL     1       1.756   8.256  19.829  0.00  0.00    +0.000 OA
BRANCH  21  23
ATOM     23  C   UNL     1       0.316  10.174  20.247  0.00  0.00    +0.000 C 
ATOM     24  C   UNL     1      -0.108   9.378  21.471  0.00  0.00    +0.000 C 
ENDBRANCH  21  23
ENDBRANCH   1  18
TORSDOF 6
ENDMDL
MODEL 9
REMARK VINA RESULT:      -7.6      3.599      6.147
REMARK  Name = 
REMARK  8 active torsions:
REMARK  status: ('A' for Active; 'I' for Inactive)
REMARK    1  A    between atoms: C_1  and  C_2
REMARK    2  A    between atoms: C_2  and  C_3
REMARK    3  A    between atoms: C_6  and  C_7
REMARK    4  A    between atoms: C_7  and  C_8
REMARK    5  A    between atoms: C_7  and  C_17
REMARK    6  A    between atoms: C_11  and  N_12
REMARK    7  A    between atoms: C_20  and  C_21
REMARK    8  A    between atoms: C_21  and  C_22
REMARK                            x       y       z     vdW  Elec       q    Type
REMARK                         _______ _______ _______ _____ _____    ______ ____
ROOT
ATOM      1  C   UNL     1       2.824   6.121  17.484  0.00  0.00    +0.000 C 
ENDROOT
BRANCH   1   2
ATOM      2  C   UNL     1       2.333   7.308  18.336  0.00  0.00    +0.000 A 
ATOM      3  C   UNL     1       2.147   7.188  19.728  0.00  0.00    +0.000 A 
ATOM      4  C   UNL     1       1.651   8.248  20.488  0.00  0.00    +0.000 A 
ATOM      5  C   UNL     1       1.322   9.449  19.857  0.00  0.00    +0.000 A 
ATOM      6  C   UNL     1       1.488   9.594  18.474  0.00  0.00    +0.000 A 
ATOM      7  C   UNL     1       1.990   8.525  17.719  0.00  0.00    +0.000 A 
BRANCH   5   8
ATOM      8  N   UNL     1       0.785  10.560  20.652  0.00  0.00    +0.000 N 
ATOM      9  O   UNL     1       0.907  10.500  21.886  0.00  0.00    +0.000 OA
ATOM     10  O   UNL     1       0.233  11.490  20.048  0.00  0.00    +0.000 OA
ENDBRANCH   5   8
ENDBRANCH   1   2
BRANCH   1  14
ATOM     11  C   UNL     1       2.371   3.254  19.641  0.00  0.00    +0.000 A 
ATOM     12  C   UNL     1       1.398   2.897  18.733  0.00  0.00    +0.000 A 
ATOM     13  C   UNL     1       1.405   3.891  17.733  0.00  0.00    +0.000 A 
ATOM     14  C   UNL     1       2.381   4.806  18.083  0.00  0.00    +0.000 A 
ATOM     15  O   UNL     1       2.985   4.408  19.247  0.00  0.00    +0.000 OA
BRANCH  11  17
ATOM     16  C   UNL     1       1.705   2.596  21.945  0.00  0.00    +0.000 C 
ATOM     17  C   UNL     1       2.823   2.632  20.913  0.00  0.00    +0.000 C 
ENDBRANCH  11  17
ENDBRANCH   1  14
BRANCH   1  18
ATOM     18  C   UNL     1       4.320   6.148  17.288  0.00  0.00    +0.000 A 
ATOM     19  C   UNL     1       5.329   6.932  17.824  0.00  0.00    +0.000 A 
ATOM     20  C   UNL     1       6.515   6.588  17.144  0.00  0.00    +0.000 A 
ATOM     21  C   UNL     1       6.180   5.590  16.257  0.00  0.00    +0.000 A 
ATOM     22  O   UNL     1       4.846   5.312  16.339  0.00  0.00    +0.000 OA
BRANCH  21  23
ATOM     23  C   UNL     1       6.975   4.821  15.265  0.00  0.00    +0.000 C 
ATOM     24  C   UNL     1       6.081   4.059  14.301  0.00  0.00    +0.000 C 
ENDBRANCH  21  23
ENDBRANCH   1  18
TORSDOF 6
ENDMDL
