MODEL 1
REMARK VINA RESULT:      -7.0      0.000      0.000
REMARK  Name = 
REMARK  6 active torsions:
REMARK  status: ('A' for Active; 'I' for Inactive)
REMARK    1  A    between atoms: C_1  and  O_2
REMARK    2  A    between atoms: O_2  and  C_3
REMARK    3  A    between atoms: C_3  and  C_5
REMARK    4  A    between atoms: C_8  and  O_9
REMARK    5  A    between atoms: O_9  and  C_10
REMARK    6  A    between atoms: C_10  and  C_12
REMARK                            x       y       z     vdW  Elec       q    Type
REMARK                         _______ _______ _______ _____ _____    ______ ____
ROOT
ATOM      1  C   UNL     1       6.133   5.091  15.687  0.00  0.00    +0.000 A 
ATOM      2  C   UNL     1       6.413   4.266  16.787  0.00  0.00    +0.000 A 
ATOM      3  C   UNL     1       5.805   4.505  18.026  0.00  0.00    +0.000 A 
ATOM      4  C   UNL     1       4.918   5.574  18.168  0.00  0.00    +0.000 A 
ATOM      5  C   UNL     1       4.594   6.370  17.068  0.00  0.00    +0.000 A 
ATOM      6  C   UNL     1       5.215   6.139  15.836  0.00  0.00    +0.000 A 
ENDROOT
BRANCH   1   7
ATOM      7  C   UNL     1       6.815   4.822  14.389  0.00  0.00    +0.000 C 
ATOM      8  O   UNL     1       7.767   5.466  13.978  0.00  0.00    +0.000 OA
BRANCH   7  10
ATOM      9  C   UNL     1       6.597   3.619  12.385  0.00  0.00    +0.000 C 
ATOM     10  O   UNL     1       6.223   3.780  13.754  0.00  0.00    +0.000 OA
ENDBRANCH   7  10
ENDBRANCH   1   7
BRANCH   4  11
ATOM     11  O   UNL     1       4.350   5.763  19.450  0.00  0.00    +0.000 OA
BRANCH  11  12
ATOM     12  C   UNL     1       2.975   6.011  19.597  0.00  0.00    +0.000 C 
ATOM     13  O   UNL     1       2.459   7.122  19.548  0.00  0.00    +0.000 OA
BRANCH  12  14
ATOM     14  C   UNL     1       2.262   4.767  19.844  0.00  0.00    +0.000 A 
ATOM     15  C   UNL     1       2.020   4.081  21.022  0.00  0.00    +0.000 A 
ATOM     16  C   UNL     1       1.223   2.912  20.818  0.00  0.00    +0.000 A 
ATOM     17  C   UNL     1       0.901   2.729  19.494  0.00  0.00    +0.000 A 
ATOM     18  S   UNL     1       1.554   3.953  18.503  0.00  0.00    +0.000 S 
ENDBRANCH  12  14
ENDBRANCH  11  12
ENDBRANCH   4  11
TORSDOF 5
ENDMDL
MODEL 2
REMARK VINA RESULT:      -7.0      0.225      1.148
REMARK  Name = 
REMARK  6 active torsions:
REMARK  status: ('A' for Active; 'I' for Inactive)
REMARK    1  A    between atoms: C_1  and  O_2
REMARK    2  A    between atoms: O_2  and  C_3
REMARK    3  A    between atoms: C_3  and  C_5
REMARK    4  A    between atoms: C_8  and  O_9
REMARK    5  A    between atoms: O_9  and  C_10
REMARK    6  A    between atoms: C_10  and  C_12
REMARK                            x       y       z     vdW  Elec       q    Type
REMARK                         _______ _______ _______ _____ _____    ______ ____
ROOT
ATOM      1  C   UNL     1       6.312   5.053  15.724  0.00  0.00    +0.000 A 
ATOM      2  C   UNL     1       5.217   5.923  15.832  0.00  0.00    +0.000 A 
ATOM      3  C   UNL     1       4.606   6.146  17.073  0.00  0.00    +0.000 A 
ATOM      4  C   UNL     1       5.089   5.492  18.209  0.00  0.00    +0.000 A 
ATOM      5  C   UNL     1       6.208   4.664  18.122  0.00  0.00    +0.000 A 
ATOM      6  C   UNL     1       6.805   4.431  16.878  0.00  0.00    +0.000 A 
ENDROOT
BRANCH   1   7
ATOM      7  C   UNL     1       6.923   4.822  14.384  0.00  0.00    +0.000 C 
ATOM      8  O   UNL     1       7.842   5.487  13.935  0.00  0.00    +0.000 OA
BRANCH   7  10
ATOM      9  C   UNL     1       6.599   3.668  12.366  0.00  0.00    +0.000 C 
ATOM     10  O   UNL     1       6.308   3.788  13.759  0.00  0.00    +0.000 OA
ENDBRANCH   7  10
ENDBRANCH   1   7
BRANCH   4  11
ATOM     11  O   UNL     1       4.418   5.755  19.427  0.00  0.00    +0.000 OA
BRANCH  11  12
ATOM     12  C   UNL     1       3.038   6.016  19.445  0.00  0.00    +0.000 C 
ATOM     13  O   UNL     1       2.538   7.129  19.318  0.00  0.00    +0.000 OA
BRANCH  12  14
ATOM     14  C   UNL     1       2.295   4.785  19.663  0.00  0.00    +0.000 A 
ATOM     15  C   UNL     1       1.991   4.107  20.831  0.00  0.00    +0.000 A 
ATOM     16  C   UNL     1       1.185   2.950  20.596  0.00  0.00    +0.000 A 
ATOM     17  C   UNL     1       0.918   2.768  19.259  0.00  0.00    +0.000 A 
ATOM     18  S   UNL     1       1.634   3.978  18.295  0.00  0.00    +0.000 S 
ENDBRANCH  12  14
ENDBRANCH  11  12
ENDBRANCH   4  11
TORSDOF 5
ENDMDL
MODEL 3
REMARK VINA RESULT:      -6.9      0.767      1.525
REMARK  Name = 
REMARK  6 active torsions:
REMARK  status: ('A' for Active; 'I' for Inactive)
REMARK    1  A    between atoms: C_1  and  O_2
REMARK    2  A    between atoms: O_2  and  C_3
REMARK    3  A    between atoms: C_3  and  C_5
REMARK    4  A    between atoms: C_8  and  O_9
REMARK    5  A    between atoms: O_9  and  C_10
REMARK    6  A    between atoms: C_10  and  C_12
REMARK                            x       y       z     vdW  Elec       q    Type
REMARK                         _______ _______ _______ _____ _____    ______ ____
ROOT
ATOM      1  C   UNL     1       6.075   5.084  15.734  0.00  0.00    +0.000 A 
ATOM      2  C   UNL     1       5.273   6.224  15.894  0.00  0.00    +0.000 A 
ATOM      3  C   UNL     1       4.658   6.491  17.124  0.00  0.00    +0.000 A 
ATOM      4  C   UNL     1       4.840   5.614  18.195  0.00  0.00    +0.000 A 
ATOM      5  C   UNL     1       5.675   4.504  18.060  0.00  0.00    +0.000 A 
ATOM      6  C   UNL     1       6.276   4.232  16.827  0.00  0.00    +0.000 A 
ENDROOT
BRANCH   1   7
ATOM      7  C   UNL     1       6.697   4.818  14.405  0.00  0.00    +0.000 C 
ATOM      8  O   UNL     1       7.685   5.403  13.990  0.00  0.00    +0.000 OA
BRANCH   7  10
ATOM      9  C   UNL     1       6.468   3.581  12.424  0.00  0.00    +0.000 C 
ATOM     10  O   UNL     1       6.006   3.854  13.747  0.00  0.00    +0.000 OA
ENDBRANCH   7  10
ENDBRANCH   1   7
BRANCH   4  11
ATOM     11  O   UNL     1       4.180   5.940  19.403  0.00  0.00    +0.000 OA
BRANCH  11  12
ATOM     12  C   UNL     1       2.789   6.132  19.432  0.00  0.00    +0.000 C 
ATOM     13  O   UNL     1       2.238   7.225  19.506  0.00  0.00    +0.000 OA
BRANCH  12  14
ATOM     14  C   UNL     1       2.103   4.850  19.392  0.00  0.00    +0.000 A 
ATOM     15  C   UNL     1       1.603   4.124  18.325  0.00  0.00    +0.000 A 
ATOM     16  C   UNL     1       1.042   2.872  18.731  0.00  0.00    +0.000 A 
ATOM     17  C   UNL     1       1.111   2.692  20.093  0.00  0.00    +0.000 A 
ATOM     18  S   UNL     1       1.842   4.018  20.876  0.00  0.00    +0.000 S 
ENDBRANCH  12  14
ENDBRANCH  11  12
ENDBRANCH   4  11
TORSDOF 5
ENDMDL
MODEL 4
REMARK VINA RESULT:      -6.9      1.791      2.293
REMARK  Name = 
REMARK  6 active torsions:
REMARK  status: ('A' for Active; 'I' for Inactive)
REMARK    1  A    between atoms: C_1  and  O_2
REMARK    2  A    between atoms: O_2  and  C_3
REMARK    3  A    between atoms: C_3  and  C_5
REMARK    4  A    between atoms: C_8  and  O_9
REMARK    5  A    between atoms: O_9  and  C_10
REMARK    6  A    between atoms: C_10  and  C_12
REMARK                            x       y       z     vdW  Elec       q    Type
REMARK                         _______ _______ _______ _____ _____    ______ ____
ROOT
ATOM      1  C   UNL     1       6.464   4.664  15.688  0.00  0.00    +0.000 A 
ATOM      2  C   UNL     1       5.245   4.030  15.973  0.00  0.00    +0.000 A 
ATOM      3  C   UNL     1       4.851   3.815  17.300  0.00  0.00    +0.000 A 
ATOM      4  C   UNL     1       5.680   4.230  18.345  0.00  0.00    +0.000 A 
ATOM      5  C   UNL     1       6.870   4.904  18.072  0.00  0.00    +0.000 A 
ATOM      6  C   UNL     1       7.268   5.104  16.747  0.00  0.00    +0.000 A 
ENDROOT
BRANCH   1   7
ATOM      7  C   UNL     1       6.863   4.857  14.264  0.00  0.00    +0.000 C 
ATOM      8  O   UNL     1       7.827   5.518  13.914  0.00  0.00    +0.000 OA
BRANCH   7  10
ATOM      9  C   UNL     1       6.611   3.595  12.301  0.00  0.00    +0.000 C 
ATOM     10  O   UNL     1       6.005   4.202  13.443  0.00  0.00    +0.000 OA
ENDBRANCH   7  10
ENDBRANCH   1   7
BRANCH   4  11
ATOM     11  O   UNL     1       5.224   3.970  19.659  0.00  0.00    +0.000 OA
BRANCH  11  12
ATOM     12  C   UNL     1       4.517   2.793  19.954  0.00  0.00    +0.000 C 
ATOM     13  O   UNL     1       5.039   1.716  20.223  0.00  0.00    +0.000 OA
BRANCH  12  14
ATOM     14  C   UNL     1       3.085   3.030  19.867  0.00  0.00    +0.000 A 
ATOM     15  C   UNL     1       2.085   2.308  19.238  0.00  0.00    +0.000 A 
ATOM     16  C   UNL     1       0.788   2.874  19.449  0.00  0.00    +0.000 A 
ATOM     17  C   UNL     1       0.840   4.017  20.211  0.00  0.00    +0.000 A 
ATOM     18  S   UNL     1       2.436   4.409  20.667  0.00  0.00    +0.000 S 
ENDBRANCH  12  14
ENDBRANCH  11  12
ENDBRANCH   4  11
TORSDOF 5
ENDMDL
MODEL 5
REMARK VINA RESULT:      -6.8      0.826      1.052
REMARK  Name = 
REMARK  6 active torsions:
REMARK  status: ('A' for Active; 'I' for Inactive)
REMARK    1  A    between atoms: C_1  and  O_2
REMARK    2  A    between atoms: O_2  and  C_3
REMARK    3  A    between atoms: C_3  and  C_5
REMARK    4  A    between atoms: C_8  and  O_9
REMARK    5  A    between atoms: O_9  and  C_10
REMARK    6  A    between atoms: C_10  and  C_12
REMARK                            x       y       z     vdW  Elec       q    Type
REMARK                         _______ _______ _______ _____ _____    ______ ____
ROOT
ATOM      1  C   UNL     1       6.213   5.164  15.853  0.00  0.00    +0.000 A 
ATOM      2  C   UNL     1       6.466   4.404  17.004  0.00  0.00    +0.000 A 
ATOM      3  C   UNL     1       5.789   4.678  18.199  0.00  0.00    +0.000 A 
ATOM      4  C   UNL     1       4.859   5.719  18.245  0.00  0.00    +0.000 A 
ATOM      5  C   UNL     1       4.564   6.450  17.094  0.00  0.00    +0.000 A 
ATOM      6  C   UNL     1       5.254   6.184  15.906  0.00  0.00    +0.000 A 
ENDROOT
BRANCH   1   7
ATOM      7  C   UNL     1       6.969   4.859  14.604  0.00  0.00    +0.000 C 
ATOM      8  O   UNL     1       7.798   5.609  14.114  0.00  0.00    +0.000 OA
BRANCH   7  10
ATOM      9  C   UNL     1       5.772   3.711  12.944  0.00  0.00    +0.000 C 
ATOM     10  O   UNL     1       6.593   3.653  14.110  0.00  0.00    +0.000 OA
ENDBRANCH   7  10
ENDBRANCH   1   7
BRANCH   4  11
ATOM     11  O   UNL     1       4.221   5.947  19.487  0.00  0.00    +0.000 OA
BRANCH  11  12
ATOM     12  C   UNL     1       2.825   6.073  19.565  0.00  0.00    +0.000 C 
ATOM     13  O   UNL     1       2.229   7.135  19.713  0.00  0.00    +0.000 OA
BRANCH  12  14
ATOM     14  C   UNL     1       2.195   4.765  19.474  0.00  0.00    +0.000 A 
ATOM     15  C   UNL     1       1.574   4.132  18.411  0.00  0.00    +0.000 A 
ATOM     16  C   UNL     1       1.132   2.813  18.745  0.00  0.00    +0.000 A 
ATOM     17  C   UNL     1       1.407   2.491  20.053  0.00  0.00    +0.000 A 
ATOM     18  S   UNL     1       2.189   3.764  20.873  0.00  0.00    +0.000 S 
ENDBRANCH  12  14
ENDBRANCH  11  12
ENDBRANCH   4  11
TORSDOF 5
ENDMDL
MODEL 6
REMARK VINA RESULT:      -6.8      1.627      2.203
REMARK  Name = 
REMARK  6 active torsions:
REMARK  status: ('A' for Active; 'I' for Inactive)
REMARK    1  A    between atoms: C_1  and  O_2
REMARK    2  A    between atoms: O_2  and  C_3
REMARK    3  A    between atoms: C_3  and  C_5
REMARK    4  A    between atoms: C_8  and  O_9
REMARK    5  A    between atoms: O_9  and  C_10
REMARK    6  A    between atoms: C_10  and  C_12
REMARK                            x       y       z     vdW  Elec       q    Type
REMARK                         _______ _______ _______ _____ _____    ______ ____
ROOT
ATOM      1  C   UNL     1       6.414   4.466  15.423  0.00  0.00    +0.000 A 
ATOM      2  C   UNL     1       7.296   4.544  16.511  0.00  0.00    +0.000 A 
ATOM      3  C   UNL     1       6.814   4.457  17.823  0.00  0.00    +0.000 A 
ATOM      4  C   UNL     1       5.445   4.296  18.048  0.00  0.00    +0.000 A 
ATOM      5  C   UNL     1       4.566   4.167  16.973  0.00  0.00    +0.000 A 
ATOM      6  C   UNL     1       5.048   4.271  15.664  0.00  0.00    +0.000 A 
ENDROOT
BRANCH   1   7
ATOM      7  C   UNL     1       6.959   4.586  14.039  0.00  0.00    +0.000 C 
ATOM      8  O   UNL     1       6.520   3.969  13.083  0.00  0.00    +0.000 OA
BRANCH   7  10
ATOM      9  C   UNL     1       8.425   5.848  12.711  0.00  0.00    +0.000 C 
ATOM     10  O   UNL     1       7.994   5.462  14.017  0.00  0.00    +0.000 OA
ENDBRANCH   7  10
ENDBRANCH   1   7
BRANCH   4  11
ATOM     11  O   UNL     1       5.027   4.226  19.398  0.00  0.00    +0.000 OA
BRANCH  11  12
ATOM     12  C   UNL     1       4.469   3.046  19.917  0.00  0.00    +0.000 C 
ATOM     13  O   UNL     1       5.113   2.050  20.228  0.00  0.00    +0.000 OA
BRANCH  12  14
ATOM     14  C   UNL     1       3.023   3.168  20.004  0.00  0.00    +0.000 A 
ATOM     15  C   UNL     1       2.229   3.986  20.791  0.00  0.00    +0.000 A 
ATOM     16  C   UNL     1       0.835   3.818  20.518  0.00  0.00    +0.000 A 
ATOM     17  C   UNL     1       0.607   2.867  19.552  0.00  0.00    +0.000 A 
ATOM     18  S   UNL     1       2.058   2.178  18.980  0.00  0.00    +0.000 S 
ENDBRANCH  12  14
ENDBRANCH  11  12
ENDBRANCH   4  11
TORSDOF 5
ENDMDL
MODEL 7
REMARK VINA RESULT:      -6.8      0.930      1.387
REMARK  Name = 
REMARK  6 active torsions:
REMARK  status: ('A' for Active; 'I' for Inactive)
REMARK    1  A    between atoms: C_1  and  O_2
REMARK    2  A    between atoms: O_2  and  C_3
REMARK    3  A    between atoms: C_3  and  C_5
REMARK    4  A    between atoms: C_8  and  O_9
REMARK    5  A    between atoms: O_9  and  C_10
REMARK    6  A    between atoms: C_10  and  C_12
REMARK                            x       y       z     vdW  Elec       q    Type
REMARK                         _______ _______ _______ _____ _____    ______ ____
ROOT
ATOM      1  C   UNL     1       5.993   5.011  15.649  0.00  0.00    +0.000 A 
ATOM      2  C   UNL     1       6.116   4.125  16.731  0.00  0.00    +0.000 A 
ATOM      3  C   UNL     1       5.515   4.420  17.961  0.00  0.00    +0.000 A 
ATOM      4  C   UNL     1       4.794   5.606  18.113  0.00  0.00    +0.000 A 
ATOM      5  C   UNL     1       4.624   6.470  17.030  0.00  0.00    +0.000 A 
ATOM      6  C   UNL     1       5.239   6.180  15.808  0.00  0.00    +0.000 A 
ENDROOT
BRANCH   1   7
ATOM      7  C   UNL     1       6.665   4.676  14.360  0.00  0.00    +0.000 C 
ATOM      8  O   UNL     1       6.273   3.808  13.598  0.00  0.00    +0.000 OA
BRANCH   7  10
ATOM      9  C   UNL     1       8.205   5.563  12.828  0.00  0.00    +0.000 C 
ATOM     10  O   UNL     1       7.752   5.466  14.179  0.00  0.00    +0.000 OA
ENDBRANCH   7  10
ENDBRANCH   1   7
BRANCH   4  11
ATOM     11  O   UNL     1       4.224   5.845  19.386  0.00  0.00    +0.000 OA
BRANCH  11  12
ATOM     12  C   UNL     1       2.842   6.053  19.526  0.00  0.00    +0.000 C 
ATOM     13  O   UNL     1       2.307   7.155  19.593  0.00  0.00    +0.000 OA
BRANCH  12  14
ATOM     14  C   UNL     1       2.146   4.779  19.611  0.00  0.00    +0.000 A 
ATOM     15  C   UNL     1       1.513   4.027  18.636  0.00  0.00    +0.000 A 
ATOM     16  C   UNL     1       0.995   2.795  19.147  0.00  0.00    +0.000 A 
ATOM     17  C   UNL     1       1.229   2.656  20.495  0.00  0.00    +0.000 A 
ATOM     18  S   UNL     1       2.061   3.996  21.141  0.00  0.00    +0.000 S 
ENDBRANCH  12  14
ENDBRANCH  11  12
ENDBRANCH   4  11
TORSDOF 5
ENDMDL
MODEL 8
REMARK VINA RESULT:      -6.5      1.095      1.439
REMARK  Name = 
REMARK  6 active torsions:
REMARK  status: ('A' for Active; 'I' for Inactive)
REMARK    1  A    between atoms: C_1  and  O_2
REMARK    2  A    between atoms: O_2  and  C_3
REMARK    3  A    between atoms: C_3  and  C_5
REMARK    4  A    between atoms: C_8  and  O_9
REMARK    5  A    between atoms: O_9  and  C_10
REMARK    6  A    between atoms: C_10  and  C_12
REMARK                            x       y       z     vdW  Elec       q    Type
REMARK                         _______ _______ _______ _____ _____    ______ ____
ROOT
ATOM      1  C   UNL     1       6.553   4.815  15.490  0.00  0.00    +0.000 A 
ATOM      2  C   UNL     1       5.167   4.827  15.704  0.00  0.00    +0.000 A 
ATOM      3  C   UNL     1       4.650   4.855  17.006  0.00  0.00    +0.000 A 
ATOM      4  C   UNL     1       5.523   4.866  18.097  0.00  0.00    +0.000 A 
ATOM      5  C   UNL     1       6.902   4.904  17.894  0.00  0.00    +0.000 A 
ATOM      6  C   UNL     1       7.415   4.860  16.593  0.00  0.00    +0.000 A 
ENDROOT
BRANCH   1   7
ATOM      7  C   UNL     1       7.068   4.762  14.091  0.00  0.00    +0.000 C 
ATOM      8  O   UNL     1       7.966   5.476  13.673  0.00  0.00    +0.000 OA
BRANCH   7  10
ATOM      9  C   UNL     1       6.854   3.648  12.037  0.00  0.00    +0.000 C 
ATOM     10  O   UNL     1       6.397   3.825  13.378  0.00  0.00    +0.000 OA
ENDBRANCH   7  10
ENDBRANCH   1   7
BRANCH   4  11
ATOM     11  O   UNL     1       4.932   4.883  19.382  0.00  0.00    +0.000 OA
BRANCH  11  12
ATOM     12  C   UNL     1       3.653   5.430  19.578  0.00  0.00    +0.000 C 
ATOM     13  O   UNL     1       3.358   6.602  19.373  0.00  0.00    +0.000 OA
BRANCH  12  14
ATOM     14  C   UNL     1       2.742   4.414  20.083  0.00  0.00    +0.000 A 
ATOM     15  C   UNL     1       1.417   4.500  20.473  0.00  0.00    +0.000 A 
ATOM     16  C   UNL     1       0.879   3.233  20.862  0.00  0.00    +0.000 A 
ATOM     17  C   UNL     1       1.813   2.228  20.779  0.00  0.00    +0.000 A 
ATOM     18  S   UNL     1       3.325   2.803  20.240  0.00  0.00    +0.000 S 
ENDBRANCH  12  14
ENDBRANCH  11  12
ENDBRANCH   4  11
TORSDOF 5
ENDMDL
MODEL 9
REMARK VINA RESULT:      -6.5      1.554      1.870
REMARK  Name = 
REMARK  6 active torsions:
REMARK  status: ('A' for Active; 'I' for Inactive)
REMARK    1  A    between atoms: C_1  and  O_2
REMARK    2  A    between atoms: O_2  and  C_3
REMARK    3  A    between atoms: C_3  and  C_5
REMARK    4  A    between atoms: C_8  and  O_9
REMARK    5  A    between atoms: O_9  and  C_10
REMARK    6  A    between atoms: C_10  and  C_12
REMARK                            x       y       z     vdW  Elec       q    Type
REMARK                         _______ _______ _______ _____ _____    ______ ____
ROOT
ATOM      1  C   UNL     1       5.922   4.844  14.994  0.00  0.00    +0.000 A 
ATOM      2  C   UNL     1       5.535   3.721  15.741  0.00  0.00    +0.000 A 
ATOM      3  C   UNL     1       4.721   3.867  16.872  0.00  0.00    +0.000 A 
ATOM      4  C   UNL     1       4.298   5.140  17.260  0.00  0.00    +0.000 A 
ATOM      5  C   UNL     1       4.636   6.257  16.496  0.00  0.00    +0.000 A 
ATOM      6  C   UNL     1       5.462   6.110  15.377  0.00  0.00    +0.000 A 
ENDROOT
BRANCH   1   7
ATOM      7  C   UNL     1       6.807   4.654  13.809  0.00  0.00    +0.000 C 
ATOM      8  O   UNL     1       6.549   3.900  12.884  0.00  0.00    +0.000 OA
BRANCH   7  10
ATOM      9  C   UNL     1       8.467   5.871  12.681  0.00  0.00    +0.000 C 
ATOM     10  O   UNL     1       7.915   5.427  13.921  0.00  0.00    +0.000 OA
ENDBRANCH   7  10
ENDBRANCH   1   7
BRANCH   4  11
ATOM     11  O   UNL     1       3.488   5.214  18.418  0.00  0.00    +0.000 OA
BRANCH  11  12
ATOM     12  C   UNL     1       2.226   4.599  18.452  0.00  0.00    +0.000 C 
ATOM     13  O   UNL     1       1.379   4.698  17.571  0.00  0.00    +0.000 OA
BRANCH  12  14
ATOM     14  C   UNL     1       2.061   3.855  19.692  0.00  0.00    +0.000 A 
ATOM     15  C   UNL     1       0.933   3.604  20.453  0.00  0.00    +0.000 A 
ATOM     16  C   UNL     1       1.211   2.775  21.585  0.00  0.00    +0.000 A 
ATOM     17  C   UNL     1       2.542   2.439  21.665  0.00  0.00    +0.000 A 
ATOM     18  S   UNL     1       3.450   3.117  20.391  0.00  0.00    +0.000 S 
ENDBRANCH  12  14
ENDBRANCH  11  12
ENDBRANCH   4  11
TORSDOF 5
ENDMDL
