MODEL 1
REMARK VINA RESULT:      -7.0      0.000      0.000
REMARK  Name = 
REMARK  4 active torsions:
REMARK  status: ('A' for Active; 'I' for Inactive)
REMARK    1  A    between atoms: N_4  and  S_5
REMARK    2  A    between atoms: S_5  and  C_8
REMARK    3  A    between atoms: C_17  and  C_18
REMARK    4  A    between atoms: C_18  and  C_19
REMARK                            x       y       z     vdW  Elec       q    Type
REMARK                         _______ _______ _______ _____ _____    ______ ____
ROOT
ATOM      1  O   UNL     1       4.862   1.754  21.145  0.00  0.00    +0.000 OA
ATOM      2  C   UNL     1       3.761   2.193  20.807  0.00  0.00    +0.000 C 
ATOM      3  C   UNL     1       3.103   1.790  19.503  0.00  0.00    +0.000 C 
ATOM      4  N   UNL     1       2.244   2.822  18.914  0.00  0.00    +0.000 N 
ATOM      5  C   UNL     1       1.045   3.216  19.532  0.00  0.00    +0.000 C 
ATOM      6  O   UNL     1      -0.020   2.695  19.227  0.00  0.00    +0.000 OA
ATOM      7  C   UNL     1       1.161   4.298  20.585  0.00  0.00    +0.000 C 
ATOM      8  C   UNL     1       2.497   4.238  21.353  0.00  0.00    +0.000 C 
ATOM      9  N   UNL     1       3.048   2.946  21.714  0.00  0.00    +0.000 N 
ATOM     10  H   UNL     1       3.609   2.994  22.561  0.00  0.00    +0.000 HD
ENDROOT
BRANCH   4  11
ATOM     11  S   UNL     1       2.666   3.429  17.413  0.00  0.00    +0.000 S 
ATOM     12  O   UNL     1       3.081   2.338  16.555  0.00  0.00    +0.000 OA
ATOM     13  O   UNL     1       1.594   4.308  17.008  0.00  0.00    +0.000 OA
BRANCH  11  14
ATOM     14  C   UNL     1       4.113   4.426  17.704  0.00  0.00    +0.000 A 
ATOM     15  C   UNL     1       4.791   4.342  18.926  0.00  0.00    +0.000 A 
ATOM     16  C   UNL     1       5.940   5.114  19.129  0.00  0.00    +0.000 A 
ATOM     17  C   UNL     1       6.412   5.946  18.113  0.00  0.00    +0.000 A 
ATOM     18 CL   UNL     1       7.822   6.899  18.370  0.00  0.00    +0.000 Cl
ATOM     19  C   UNL     1       5.753   6.009  16.887  0.00  0.00    +0.000 A 
ATOM     20  C   UNL     1       4.596   5.249  16.678  0.00  0.00    +0.000 A 
ENDBRANCH  11  14
ENDBRANCH   4  11
BRANCH   7  21
ATOM     21  C   UNL     1       1.067   5.719  19.980  0.00  0.00    +0.000 C 
BRANCH  21  22
ATOM     22  C   UNL     1       2.213   6.734  20.213  0.00  0.00    +0.000 C 
ATOM     23  C   UNL     1       2.789   7.371  18.943  0.00  0.00    +0.000 C 
ATOM     24  C   UNL     1       1.772   8.230  18.193  0.00  0.00    +0.000 C 
ATOM     25  C   UNL     1       1.097   9.275  19.082  0.00  0.00    +0.000 C 
ATOM     26  C   UNL     1       0.653   8.750  20.445  0.00  0.00    +0.000 C 
ATOM     27  C   UNL     1       1.710   7.876  21.123  0.00  0.00    +0.000 C 
ENDBRANCH  21  22
ENDBRANCH   7  21
TORSDOF 4
ENDMDL
MODEL 2
REMARK VINA RESULT:      -7.0      3.663      5.434
REMARK  Name = 
REMARK  4 active torsions:
REMARK  status: ('A' for Active; 'I' for Inactive)
REMARK    1  A    between atoms: N_4  and  S_5
REMARK    2  A    between atoms: S_5  and  C_8
REMARK    3  A    between atoms: C_17  and  C_18
REMARK    4  A    between atoms: C_18  and  C_19
REMARK                            x       y       z     vdW  Elec       q    Type
REMARK                         _______ _______ _______ _____ _____    ______ ____
ROOT
ATOM      1  O   UNL     1       6.387   4.174  13.847  0.00  0.00    +0.000 OA
ATOM      2  C   UNL     1       6.383   5.090  14.670  0.00  0.00    +0.000 C 
ATOM      3  C   UNL     1       7.470   5.232  15.717  0.00  0.00    +0.000 C 
ATOM      4  N   UNL     1       7.026   5.845  16.972  0.00  0.00    +0.000 N 
ATOM      5  C   UNL     1       6.634   7.193  17.029  0.00  0.00    +0.000 C 
ATOM      6  O   UNL     1       7.435   8.068  17.329  0.00  0.00    +0.000 OA
ATOM      7  C   UNL     1       5.186   7.483  16.691  0.00  0.00    +0.000 C 
ATOM      8  C   UNL     1       4.615   6.507  15.642  0.00  0.00    +0.000 C 
ATOM      9  N   UNL     1       5.451   6.095  14.531  0.00  0.00    +0.000 N 
ATOM     10  H   UNL     1       4.903   5.874  13.704  0.00  0.00    +0.000 HD
ENDROOT
BRANCH   4  11
ATOM     11  S   UNL     1       7.121   4.929  18.368  0.00  0.00    +0.000 S 
ATOM     12  O   UNL     1       8.125   3.898  18.196  0.00  0.00    +0.000 OA
ATOM     13  O   UNL     1       7.213   5.860  19.468  0.00  0.00    +0.000 OA
BRANCH  11  14
ATOM     14  C   UNL     1       5.552   4.094  18.486  0.00  0.00    +0.000 A 
ATOM     15  C   UNL     1       4.878   3.697  17.325  0.00  0.00    +0.000 A 
ATOM     16  C   UNL     1       3.657   3.021  17.436  0.00  0.00    +0.000 A 
ATOM     17  C   UNL     1       3.130   2.733  18.695  0.00  0.00    +0.000 A 
ATOM     18 CL   UNL     1       1.626   1.907  18.826  0.00  0.00    +0.000 Cl
ATOM     19  C   UNL     1       3.815   3.104  19.851  0.00  0.00    +0.000 A 
ATOM     20  C   UNL     1       5.031   3.790  19.751  0.00  0.00    +0.000 A 
ENDBRANCH  11  14
ENDBRANCH   4  11
BRANCH   7  21
ATOM     21  C   UNL     1       4.264   7.384  17.929  0.00  0.00    +0.000 C 
BRANCH  21  22
ATOM     22  C   UNL     1       2.764   7.041  17.748  0.00  0.00    +0.000 C 
ATOM     23  C   UNL     1       2.181   6.087  18.799  0.00  0.00    +0.000 C 
ATOM     24  C   UNL     1       2.189   6.677  20.208  0.00  0.00    +0.000 C 
ATOM     25  C   UNL     1       1.534   8.057  20.286  0.00  0.00    +0.000 C 
ATOM     26  C   UNL     1       1.935   9.007  19.160  0.00  0.00    +0.000 C 
ATOM     27  C   UNL     1       1.932   8.341  17.784  0.00  0.00    +0.000 C 
ENDBRANCH  21  22
ENDBRANCH   7  21
TORSDOF 4
ENDMDL
MODEL 3
REMARK VINA RESULT:      -7.0      3.467      6.468
REMARK  Name = 
REMARK  4 active torsions:
REMARK  status: ('A' for Active; 'I' for Inactive)
REMARK    1  A    between atoms: N_4  and  S_5
REMARK    2  A    between atoms: S_5  and  C_8
REMARK    3  A    between atoms: C_17  and  C_18
REMARK    4  A    between atoms: C_18  and  C_19
REMARK                            x       y       z     vdW  Elec       q    Type
REMARK                         _______ _______ _______ _____ _____    ______ ____
ROOT
ATOM      1  O   UNL     1       7.544   5.237  20.250  0.00  0.00    +0.000 OA
ATOM      2  C   UNL     1       6.814   5.636  19.341  0.00  0.00    +0.000 C 
ATOM      3  C   UNL     1       5.313   5.432  19.369  0.00  0.00    +0.000 C 
ATOM      4  N   UNL     1       4.696   5.293  18.047  0.00  0.00    +0.000 N 
ATOM      5  C   UNL     1       4.648   6.370  17.146  0.00  0.00    +0.000 C 
ATOM      6  O   UNL     1       3.675   7.110  17.101  0.00  0.00    +0.000 OA
ATOM      7  C   UNL     1       5.863   6.552  16.259  0.00  0.00    +0.000 C 
ATOM      8  C   UNL     1       7.172   6.118  16.949  0.00  0.00    +0.000 C 
ATOM      9  N   UNL     1       7.365   6.424  18.354  0.00  0.00    +0.000 N 
ATOM     10  H   UNL     1       8.348   6.541  18.586  0.00  0.00    +0.000 HD
ENDROOT
BRANCH   4  11
ATOM     11  S   UNL     1       3.929   3.850  17.688  0.00  0.00    +0.000 S 
ATOM     12  O   UNL     1       2.946   4.077  16.648  0.00  0.00    +0.000 OA
ATOM     13  O   UNL     1       4.969   2.865  17.506  0.00  0.00    +0.000 OA
BRANCH  11  14
ATOM     14  C   UNL     1       3.023   3.425  19.161  0.00  0.00    +0.000 A 
ATOM     15  C   UNL     1       1.685   3.811  19.299  0.00  0.00    +0.000 A 
ATOM     16  C   UNL     1       0.979   3.448  20.453  0.00  0.00    +0.000 A 
ATOM     17  C   UNL     1       1.605   2.693  21.445  0.00  0.00    +0.000 A 
ATOM     18 CL   UNL     1       0.736   2.255  22.865  0.00  0.00    +0.000 Cl
ATOM     19  C   UNL     1       2.930   2.285  21.296  0.00  0.00    +0.000 A 
ATOM     20  C   UNL     1       3.646   2.653  20.151  0.00  0.00    +0.000 A 
ENDBRANCH  11  14
ENDBRANCH   4  11
BRANCH   7  21
ATOM     21  C   UNL     1       5.764   5.730  14.952  0.00  0.00    +0.000 C 
BRANCH  21  22
ATOM     22  C   UNL     1       6.668   4.489  14.751  0.00  0.00    +0.000 C 
ATOM     23  C   UNL     1       6.007   3.309  14.028  0.00  0.00    +0.000 C 
ATOM     24  C   UNL     1       5.617   3.636  12.588  0.00  0.00    +0.000 C 
ATOM     25  C   UNL     1       6.773   4.212  11.769  0.00  0.00    +0.000 C 
ATOM     26  C   UNL     1       7.592   5.274  12.498  0.00  0.00    +0.000 C 
ATOM     27  C   UNL     1       7.920   4.891  13.942  0.00  0.00    +0.000 C 
ENDBRANCH  21  22
ENDBRANCH   7  21
TORSDOF 4
ENDMDL
MODEL 4
REMARK VINA RESULT:      -6.8      1.026      1.490
REMARK  Name = 
REMARK  4 active torsions:
REMARK  status: ('A' for Active; 'I' for Inactive)
REMARK    1  A    between atoms: N_4  and  S_5
REMARK    2  A    between atoms: S_5  and  C_8
REMARK    3  A    between atoms: C_17  and  C_18
REMARK    4  A    between atoms: C_18  and  C_19
REMARK                            x       y       z     vdW  Elec       q    Type
REMARK                         _______ _______ _______ _____ _____    ______ ____
ROOT
ATOM      1  O   UNL     1       3.337   2.098  22.201  0.00  0.00    +0.000 OA
ATOM      2  C   UNL     1       2.658   2.609  21.309  0.00  0.00    +0.000 C 
ATOM      3  C   UNL     1       2.303   1.857  20.042  0.00  0.00    +0.000 C 
ATOM      4  N   UNL     1       2.146   2.708  18.857  0.00  0.00    +0.000 N 
ATOM      5  C   UNL     1       1.085   3.622  18.750  0.00  0.00    +0.000 C 
ATOM      6  O   UNL     1       0.040   3.310  18.195  0.00  0.00    +0.000 OA
ATOM      7  C   UNL     1       1.315   4.988  19.364  0.00  0.00    +0.000 C 
ATOM      8  C   UNL     1       2.227   4.933  20.607  0.00  0.00    +0.000 C 
ATOM      9  N   UNL     1       2.079   3.836  21.545  0.00  0.00    +0.000 N 
ATOM     10  H   UNL     1       2.338   4.106  22.490  0.00  0.00    +0.000 HD
ENDROOT
BRANCH   4  11
ATOM     11  S   UNL     1       3.193   2.467  17.576  0.00  0.00    +0.000 S 
ATOM     12  O   UNL     1       3.896   1.214  17.761  0.00  0.00    +0.000 OA
ATOM     13  O   UNL     1       2.432   2.705  16.371  0.00  0.00    +0.000 OA
BRANCH  11  14
ATOM     14  C   UNL     1       4.410   3.760  17.719  0.00  0.00    +0.000 A 
ATOM     15  C   UNL     1       4.678   4.597  16.630  0.00  0.00    +0.000 A 
ATOM     16  C   UNL     1       5.620   5.624  16.766  0.00  0.00    +0.000 A 
ATOM     17  C   UNL     1       6.270   5.817  17.986  0.00  0.00    +0.000 A 
ATOM     18 CL   UNL     1       7.432   7.076  18.147  0.00  0.00    +0.000 Cl
ATOM     19  C   UNL     1       5.983   5.001  19.079  0.00  0.00    +0.000 A 
ATOM     20  C   UNL     1       5.051   3.965  18.948  0.00  0.00    +0.000 A 
ENDBRANCH  11  14
ENDBRANCH   4  11
BRANCH   7  21
ATOM     21  C   UNL     1       1.982   5.971  18.375  0.00  0.00    +0.000 C 
BRANCH  21  22
ATOM     22  C   UNL     1       2.884   7.111  18.910  0.00  0.00    +0.000 C 
ATOM     23  C   UNL     1       3.223   8.208  17.893  0.00  0.00    +0.000 C 
ATOM     24  C   UNL     1       1.995   8.988  17.427  0.00  0.00    +0.000 C 
ATOM     25  C   UNL     1       1.160   9.541  18.583  0.00  0.00    +0.000 C 
ATOM     26  C   UNL     1       0.931   8.551  19.722  0.00  0.00    +0.000 C 
ATOM     27  C   UNL     1       2.196   7.787  20.116  0.00  0.00    +0.000 C 
ENDBRANCH  21  22
ENDBRANCH   7  21
TORSDOF 4
ENDMDL
MODEL 5
REMARK VINA RESULT:      -6.6     10.940     13.063
REMARK  Name = 
REMARK  4 active torsions:
REMARK  status: ('A' for Active; 'I' for Inactive)
REMARK    1  A    between atoms: N_4  and  S_5
REMARK    2  A    between atoms: S_5  and  C_8
REMARK    3  A    between atoms: C_17  and  C_18
REMARK    4  A    between atoms: C_18  and  C_19
REMARK                            x       y       z     vdW  Elec       q    Type
REMARK                         _______ _______ _______ _____ _____    ______ ____
ROOT
ATOM      1  O   UNL     1       7.470  17.140  22.558  0.00  0.00    +0.000 OA
ATOM      2  C   UNL     1       8.469  16.808  21.916  0.00  0.00    +0.000 C 
ATOM      3  C   UNL     1       9.085  17.712  20.868  0.00  0.00    +0.000 C 
ATOM      4  N   UNL     1       9.741  17.001  19.766  0.00  0.00    +0.000 N 
ATOM      5  C   UNL     1      10.911  16.251  19.973  0.00  0.00    +0.000 C 
ATOM      6  O   UNL     1      12.016  16.749  19.805  0.00  0.00    +0.000 OA
ATOM      7  C   UNL     1      10.713  14.816  20.420  0.00  0.00    +0.000 C 
ATOM      8  C   UNL     1       9.457  14.636  21.297  0.00  0.00    +0.000 C 
ATOM      9  N   UNL     1       9.127  15.653  22.277  0.00  0.00    +0.000 N 
ATOM     10  H   UNL     1       8.626  15.266  23.073  0.00  0.00    +0.000 HD
ENDROOT
BRANCH   4  11
ATOM     11  S   UNL     1       9.132  17.215  18.223  0.00  0.00    +0.000 S 
ATOM     12  O   UNL     1       8.805  18.612  18.027  0.00  0.00    +0.000 OA
ATOM     13  O   UNL     1      10.041  16.545  17.323  0.00  0.00    +0.000 OA
BRANCH  11  14
ATOM     14  C   UNL     1       7.589  16.325  18.205  0.00  0.00    +0.000 A 
ATOM     15  C   UNL     1       7.556  14.982  17.810  0.00  0.00    +0.000 A 
ATOM     16  C   UNL     1       6.340  14.290  17.825  0.00  0.00    +0.000 A 
ATOM     17  C   UNL     1       5.175  14.933  18.246  0.00  0.00    +0.000 A 
ATOM     18 CL   UNL     1       3.680  14.080  18.256  0.00  0.00    +0.000 Cl
ATOM     19  C   UNL     1       5.212  16.262  18.666  0.00  0.00    +0.000 A 
ATOM     20  C   UNL     1       6.422  16.965  18.644  0.00  0.00    +0.000 A 
ENDBRANCH  11  14
ENDBRANCH   4  11
BRANCH   7  21
ATOM     21  C   UNL     1      10.557  13.846  19.226  0.00  0.00    +0.000 C 
BRANCH  21  22
ATOM     22  C   UNL     1      11.395  12.544  19.176  0.00  0.00    +0.000 C 
ATOM     23  C   UNL     1      11.172  11.580  20.347  0.00  0.00    +0.000 C 
ATOM     24  C   UNL     1       9.751  11.023  20.399  0.00  0.00    +0.000 C 
ATOM     25  C   UNL     1       9.299  10.403  19.076  0.00  0.00    +0.000 C 
ATOM     26  C   UNL     1       9.649  11.232  17.842  0.00  0.00    +0.000 C 
ATOM     27  C   UNL     1      11.077  11.778  17.873  0.00  0.00    +0.000 C 
ENDBRANCH  21  22
ENDBRANCH   7  21
TORSDOF 4
ENDMDL
MODEL 6
REMARK VINA RESULT:      -6.5      2.718      5.536
REMARK  Name = 
REMARK  4 active torsions:
REMARK  status: ('A' for Active; 'I' for Inactive)
REMARK    1  A    between atoms: N_4  and  S_5
REMARK    2  A    between atoms: S_5  and  C_8
REMARK    3  A    between atoms: C_17  and  C_18
REMARK    4  A    between atoms: C_18  and  C_19
REMARK                            x       y       z     vdW  Elec       q    Type
REMARK                         _______ _______ _______ _____ _____    ______ ____
ROOT
ATOM      1  O   UNL     1       1.062   3.229  21.286  0.00  0.00    +0.000 OA
ATOM      2  C   UNL     1       2.100   3.614  20.746  0.00  0.00    +0.000 C 
ATOM      3  C   UNL     1       2.472   5.081  20.677  0.00  0.00    +0.000 C 
ATOM      4  N   UNL     1       3.259   5.452  19.497  0.00  0.00    +0.000 N 
ATOM      5  C   UNL     1       4.574   4.992  19.320  0.00  0.00    +0.000 C 
ATOM      6  O   UNL     1       5.529   5.659  19.695  0.00  0.00    +0.000 OA
ATOM      7  C   UNL     1       4.724   3.637  18.658  0.00  0.00    +0.000 C 
ATOM      8  C   UNL     1       3.559   2.683  18.989  0.00  0.00    +0.000 C 
ATOM      9  N   UNL     1       3.016   2.670  20.334  0.00  0.00    +0.000 N 
ATOM     10  H   UNL     1       2.632   1.761  20.581  0.00  0.00    +0.000 HD
ENDROOT
BRANCH   4  11
ATOM     11  S   UNL     1       2.592   6.549  18.425  0.00  0.00    +0.000 S 
ATOM     12  O   UNL     1       3.653   7.204  17.687  0.00  0.00    +0.000 OA
ATOM     13  O   UNL     1       1.538   5.853  17.724  0.00  0.00    +0.000 OA
BRANCH  11  14
ATOM     14  C   UNL     1       1.837   7.799  19.446  0.00  0.00    +0.000 A 
ATOM     15  C   UNL     1       1.679   7.582  20.820  0.00  0.00    +0.000 A 
ATOM     16  C   UNL     1       1.107   8.584  21.613  0.00  0.00    +0.000 A 
ATOM     17  C   UNL     1       0.715   9.793  21.036  0.00  0.00    +0.000 A 
ATOM     18 CL   UNL     1       0.005  11.019  22.013  0.00  0.00    +0.000 Cl
ATOM     19  C   UNL     1       0.897  10.019  19.673  0.00  0.00    +0.000 A 
ATOM     20  C   UNL     1       1.459   9.019  18.870  0.00  0.00    +0.000 A 
ENDBRANCH  11  14
ENDBRANCH   4  11
BRANCH   7  21
ATOM     21  C   UNL     1       4.780   3.742  17.115  0.00  0.00    +0.000 C 
BRANCH  21  22
ATOM     22  C   UNL     1       6.120   3.510  16.375  0.00  0.00    +0.000 C 
ATOM     23  C   UNL     1       6.067   3.700  14.854  0.00  0.00    +0.000 C 
ATOM     24  C   UNL     1       5.739   5.134  14.443  0.00  0.00    +0.000 C 
ATOM     25  C   UNL     1       6.650   6.171  15.101  0.00  0.00    +0.000 C 
ATOM     26  C   UNL     1       6.893   5.940  16.591  0.00  0.00    +0.000 C 
ATOM     27  C   UNL     1       7.188   4.478  16.930  0.00  0.00    +0.000 C 
ENDBRANCH  21  22
ENDBRANCH   7  21
TORSDOF 4
ENDMDL
MODEL 7
REMARK VINA RESULT:      -6.4      7.579      9.953
REMARK  Name = 
REMARK  4 active torsions:
REMARK  status: ('A' for Active; 'I' for Inactive)
REMARK    1  A    between atoms: N_4  and  S_5
REMARK    2  A    between atoms: S_5  and  C_8
REMARK    3  A    between atoms: C_17  and  C_18
REMARK    4  A    between atoms: C_18  and  C_19
REMARK                            x       y       z     vdW  Elec       q    Type
REMARK                         _______ _______ _______ _____ _____    ______ ____
ROOT
ATOM      1  O   UNL     1      -3.282  11.860  18.507  0.00  0.00    +0.000 OA
ATOM      2  C   UNL     1      -2.055  11.758  18.506  0.00  0.00    +0.000 C 
ATOM      3  C   UNL     1      -1.348  10.572  19.130  0.00  0.00    +0.000 C 
ATOM      4  N   UNL     1      -0.022  10.875  19.677  0.00  0.00    +0.000 N 
ATOM      5  C   UNL     1       1.052  11.221  18.839  0.00  0.00    +0.000 C 
ATOM      6  O   UNL     1       1.833  10.371  18.434  0.00  0.00    +0.000 OA
ATOM      7  C   UNL     1       1.167  12.687  18.472  0.00  0.00    +0.000 C 
ATOM      8  C   UNL     1      -0.205  13.384  18.375  0.00  0.00    +0.000 C 
ATOM      9  N   UNL     1      -1.320  12.671  17.781  0.00  0.00    +0.000 N 
ATOM     10  H   UNL     1      -1.986  13.303  17.344  0.00  0.00    +0.000 HD
ENDROOT
BRANCH   4  11
ATOM     11  S   UNL     1       0.214  10.671  21.320  0.00  0.00    +0.000 S 
ATOM     12  O   UNL     1      -0.352   9.402  21.730  0.00  0.00    +0.000 OA
ATOM     13  O   UNL     1       1.604  10.967  21.577  0.00  0.00    +0.000 OA
BRANCH  11  14
ATOM     14  C   UNL     1      -0.768  11.940  22.093  0.00  0.00    +0.000 A 
ATOM     15  C   UNL     1      -1.952  11.604  22.760  0.00  0.00    +0.000 A 
ATOM     16  C   UNL     1      -2.700  12.610  23.383  0.00  0.00    +0.000 A 
ATOM     17  C   UNL     1      -2.256  13.932  23.351  0.00  0.00    +0.000 A 
ATOM     18 CL   UNL     1      -3.182  15.166  24.113  0.00  0.00    +0.000 Cl
ATOM     19  C   UNL     1      -1.063  14.263  22.710  0.00  0.00    +0.000 A 
ATOM     20  C   UNL     1      -0.314  13.265  22.075  0.00  0.00    +0.000 A 
ENDBRANCH  11  14
ENDBRANCH   4  11
BRANCH   7  21
ATOM     21  C   UNL     1       1.993  13.487  19.506  0.00  0.00    +0.000 C 
BRANCH  21  22
ATOM     22  C   UNL     1       3.318  14.164  19.077  0.00  0.00    +0.000 C 
ATOM     23  C   UNL     1       3.202  15.136  17.896  0.00  0.00    +0.000 C 
ATOM     24  C   UNL     1       2.329  16.351  18.207  0.00  0.00    +0.000 C 
ATOM     25  C   UNL     1       2.746  17.078  19.486  0.00  0.00    +0.000 C 
ATOM     26  C   UNL     1       3.052  16.154  20.663  0.00  0.00    +0.000 C 
ATOM     27  C   UNL     1       3.906  14.947  20.271  0.00  0.00    +0.000 C 
ENDBRANCH  21  22
ENDBRANCH   7  21
TORSDOF 4
ENDMDL
MODEL 8
REMARK VINA RESULT:      -6.4      7.365      9.689
REMARK  Name = 
REMARK  4 active torsions:
REMARK  status: ('A' for Active; 'I' for Inactive)
REMARK    1  A    between atoms: N_4  and  S_5
REMARK    2  A    between atoms: S_5  and  C_8
REMARK    3  A    between atoms: C_17  and  C_18
REMARK    4  A    between atoms: C_18  and  C_19
REMARK                            x       y       z     vdW  Elec       q    Type
REMARK                         _______ _______ _______ _____ _____    ______ ____
ROOT
ATOM      1  O   UNL     1       0.282  10.024  23.174  0.00  0.00    +0.000 OA
ATOM      2  C   UNL     1       0.447  10.231  21.971  0.00  0.00    +0.000 C 
ATOM      3  C   UNL     1       1.136  11.480  21.460  0.00  0.00    +0.000 C 
ATOM      4  N   UNL     1       0.668  11.935  20.147  0.00  0.00    +0.000 N 
ATOM      5  C   UNL     1       0.911  11.185  18.984  0.00  0.00    +0.000 C 
ATOM      6  O   UNL     1       1.892  11.406  18.287  0.00  0.00    +0.000 OA
ATOM      7  C   UNL     1      -0.099  10.102  18.665  0.00  0.00    +0.000 C 
ATOM      8  C   UNL     1      -0.714   9.473  19.932  0.00  0.00    +0.000 C 
ATOM      9  N   UNL     1       0.135   9.226  21.082  0.00  0.00    +0.000 N 
ATOM     10  H   UNL     1      -0.193   8.437  21.634  0.00  0.00    +0.000 HD
ENDROOT
BRANCH   4  11
ATOM     11  S   UNL     1      -0.051  13.442  20.051  0.00  0.00    +0.000 S 
ATOM     12  O   UNL     1       0.787  14.416  20.720  0.00  0.00    +0.000 OA
ATOM     13  O   UNL     1      -0.430  13.632  18.671  0.00  0.00    +0.000 OA
BRANCH  11  14
ATOM     14  C   UNL     1      -1.543  13.307  21.015  0.00  0.00    +0.000 A 
ATOM     15  C   UNL     1      -2.684  12.711  20.465  0.00  0.00    +0.000 A 
ATOM     16  C   UNL     1      -3.841  12.591  21.243  0.00  0.00    +0.000 A 
ATOM     17  C   UNL     1      -3.846  13.048  22.562  0.00  0.00    +0.000 A 
ATOM     18 CL   UNL     1      -5.273  12.904  23.513  0.00  0.00    +0.000 Cl
ATOM     19  C   UNL     1      -2.702  13.617  23.118  0.00  0.00    +0.000 A 
ATOM     20  C   UNL     1      -1.544  13.751  22.344  0.00  0.00    +0.000 A 
ENDBRANCH  11  14
ENDBRANCH   4  11
BRANCH   7  21
ATOM     21  C   UNL     1      -1.281  10.632  17.820  0.00  0.00    +0.000 C 
BRANCH  21  22
ATOM     22  C   UNL     1      -2.332   9.643  17.260  0.00  0.00    +0.000 C 
ATOM     23  C   UNL     1      -3.697   9.674  17.961  0.00  0.00    +0.000 C 
ATOM     24  C   UNL     1      -4.420  11.009  17.797  0.00  0.00    +0.000 C 
ATOM     25  C   UNL     1      -4.534  11.456  16.339  0.00  0.00    +0.000 C 
ATOM     26  C   UNL     1      -3.252  11.285  15.527  0.00  0.00    +0.000 C 
ATOM     27  C   UNL     1      -2.569   9.938  15.763  0.00  0.00    +0.000 C 
ENDBRANCH  21  22
ENDBRANCH   7  21
TORSDOF 4
ENDMDL
MODEL 9
REMARK VINA RESULT:      -6.4     10.175     11.767
REMARK  Name = 
REMARK  4 active torsions:
REMARK  status: ('A' for Active; 'I' for Inactive)
REMARK    1  A    between atoms: N_4  and  S_5
REMARK    2  A    between atoms: S_5  and  C_8
REMARK    3  A    between atoms: C_17  and  C_18
REMARK    4  A    between atoms: C_18  and  C_19
REMARK                            x       y       z     vdW  Elec       q    Type
REMARK                         _______ _______ _______ _____ _____    ______ ____
ROOT
ATOM      1  O   UNL     1       8.533   9.890  18.197  0.00  0.00    +0.000 OA
ATOM      2  C   UNL     1       8.989  11.003  17.928  0.00  0.00    +0.000 C 
ATOM      3  C   UNL     1      10.471  11.305  18.012  0.00  0.00    +0.000 C 
ATOM      4  N   UNL     1      10.788  12.694  18.358  0.00  0.00    +0.000 N 
ATOM      5  C   UNL     1      10.506  13.749  17.474  0.00  0.00    +0.000 C 
ATOM      6  O   UNL     1      11.352  14.153  16.687  0.00  0.00    +0.000 OA
ATOM      7  C   UNL     1       9.111  14.333  17.556  0.00  0.00    +0.000 C 
ATOM      8  C   UNL     1       8.050  13.283  17.943  0.00  0.00    +0.000 C 
ATOM      9  N   UNL     1       8.142  11.946  17.387  0.00  0.00    +0.000 N 
ATOM     10  H   UNL     1       7.230  11.507  17.300  0.00  0.00    +0.000 HD
ENDROOT
BRANCH   4  11
ATOM     11  S   UNL     1      11.617  12.977  19.783  0.00  0.00    +0.000 S 
ATOM     12  O   UNL     1      12.327  11.775  20.171  0.00  0.00    +0.000 OA
ATOM     13  O   UNL     1      12.331  14.220  19.605  0.00  0.00    +0.000 OA
BRANCH  11  14
ATOM     14  C   UNL     1      10.355  13.241  21.011  0.00  0.00    +0.000 A 
ATOM     15  C   UNL     1       9.490  12.199  21.366  0.00  0.00    +0.000 A 
ATOM     16  C   UNL     1       8.519  12.416  22.351  0.00  0.00    +0.000 A 
ATOM     17  C   UNL     1       8.430  13.656  22.982  0.00  0.00    +0.000 A 
ATOM     18 CL   UNL     1       7.230  13.921  24.188  0.00  0.00    +0.000 Cl
ATOM     19  C   UNL     1       9.309  14.686  22.649  0.00  0.00    +0.000 A 
ATOM     20  C   UNL     1      10.276  14.482  21.658  0.00  0.00    +0.000 A 
ENDBRANCH  11  14
ENDBRANCH   4  11
BRANCH   7  21
ATOM     21  C   UNL     1       9.009  15.466  18.604  0.00  0.00    +0.000 C 
BRANCH  21  22
ATOM     22  C   UNL     1       7.980  16.607  18.409  0.00  0.00    +0.000 C 
ATOM     23  C   UNL     1       6.576  16.320  18.955  0.00  0.00    +0.000 C 
ATOM     24  C   UNL     1       6.551  16.146  20.473  0.00  0.00    +0.000 C 
ATOM     25  C   UNL     1       7.212  17.304  21.222  0.00  0.00    +0.000 C 
ATOM     26  C   UNL     1       8.539  17.764  20.623  0.00  0.00    +0.000 C 
ATOM     27  C   UNL     1       8.497  17.888  19.099  0.00  0.00    +0.000 C 
ENDBRANCH  21  22
ENDBRANCH   7  21
TORSDOF 4
ENDMDL
