MODEL 1
REMARK VINA RESULT:      -8.1      0.000      0.000
REMARK  Name = 
REMARK  4 active torsions:
REMARK  status: ('A' for Active; 'I' for Inactive)
REMARK    1  A    between atoms: C_1  and  C_2
REMARK    2  A    between atoms: C_4  and  C_5
REMARK    3  A    between atoms: C_12  and  N_13
REMARK    4  A    between atoms: N_13  and  C_14
REMARK                            x       y       z     vdW  Elec       q    Type
REMARK                         _______ _______ _______ _____ _____    ______ ____
ROOT
ATOM      1  C   UNL     1       6.562   3.626  13.004  0.00  0.00    +0.000 C 
ATOM      2  C   UNL     1       6.221   4.279  14.290  0.00  0.00    +0.000 A 
ATOM      3  C   UNL     1       6.870   5.359  14.913  0.00  0.00    +0.000 A 
ATOM      4  C   UNL     1       6.175   5.582  16.083  0.00  0.00    +0.000 A 
ATOM      5  C   UNL     1       6.442   6.585  17.143  0.00  0.00    +0.000 C 
ATOM      6  N   UNL     1       5.129   4.658  16.103  0.00  0.00    +0.000 N 
ATOM      7  C   UNL     1       4.076   4.503  17.084  0.00  0.00    +0.000 A 
ATOM      8  N   UNL     1       3.204   3.483  16.936  0.00  0.00    +0.000 NA
ATOM      9  C   UNL     1       2.231   3.371  17.864  0.00  0.00    +0.000 A 
ATOM     10  C   UNL     1       2.089   4.231  18.928  0.00  0.00    +0.000 A 
ATOM     11 CL   UNL     1       0.813   4.017  20.060  0.00  0.00    +0.000 Cl
ATOM     12  C   UNL     1       3.010   5.267  19.006  0.00  0.00    +0.000 A 
ATOM     13  N   UNL     1       4.000   5.397  18.092  0.00  0.00    +0.000 NA
ATOM     14  N   UNL     1       5.185   3.841  15.007  0.00  0.00    +0.000 NA
ENDROOT
BRANCH  12  15
ATOM     15  N   UNL     1       2.895   6.244  20.027  0.00  0.00    +0.000 N 
ATOM     16  H   UNL     1       3.740   6.306  20.583  0.00  0.00    +0.000 HD
BRANCH  15  17
ATOM     17  C   UNL     1       2.149   7.435  19.947  0.00  0.00    +0.000 A 
ATOM     18  C   UNL     1       1.358   7.861  21.025  0.00  0.00    +0.000 A 
ATOM     19  C   UNL     1       0.549   8.993  20.927  0.00  0.00    +0.000 A 
ATOM     20  C   UNL     1       0.534   9.722  19.744  0.00  0.00    +0.000 A 
ATOM     21 CL   UNL     1      -0.497  11.091  19.599  0.00  0.00    +0.000 Cl
ATOM     22  C   UNL     1       1.338   9.340  18.671  0.00  0.00    +0.000 A 
ATOM     23  C   UNL     1       2.148   8.202  18.776  0.00  0.00    +0.000 A 
ENDBRANCH  15  17
ENDBRANCH  12  15
TORSDOF 2
ENDMDL
MODEL 2
REMARK VINA RESULT:      -8.1      0.311      1.073
REMARK  Name = 
REMARK  4 active torsions:
REMARK  status: ('A' for Active; 'I' for Inactive)
REMARK    1  A    between atoms: C_1  and  C_2
REMARK    2  A    between atoms: C_4  and  C_5
REMARK    3  A    between atoms: C_12  and  N_13
REMARK    4  A    between atoms: N_13  and  C_14
REMARK                            x       y       z     vdW  Elec       q    Type
REMARK                         _______ _______ _______ _____ _____    ______ ____
ROOT
ATOM      1  C   UNL     1       6.597   3.804  13.289  0.00  0.00    +0.000 C 
ATOM      2  C   UNL     1       6.198   4.457  14.559  0.00  0.00    +0.000 A 
ATOM      3  C   UNL     1       6.779   5.577  15.178  0.00  0.00    +0.000 A 
ATOM      4  C   UNL     1       6.051   5.780  16.331  0.00  0.00    +0.000 A 
ATOM      5  C   UNL     1       6.245   6.810  17.381  0.00  0.00    +0.000 C 
ATOM      6  N   UNL     1       5.054   4.803  16.346  0.00  0.00    +0.000 N 
ATOM      7  C   UNL     1       3.992   4.607  17.310  0.00  0.00    +0.000 A 
ATOM      8  N   UNL     1       3.178   3.540  17.161  0.00  0.00    +0.000 NA
ATOM      9  C   UNL     1       2.195   3.391  18.074  0.00  0.00    +0.000 A 
ATOM     10  C   UNL     1       1.988   4.257  19.122  0.00  0.00    +0.000 A 
ATOM     11 CL   UNL     1       0.703   3.991  20.233  0.00  0.00    +0.000 Cl
ATOM     12  C   UNL     1       2.852   5.340  19.201  0.00  0.00    +0.000 A 
ATOM     13  N   UNL     1       3.851   5.509  18.303  0.00  0.00    +0.000 NA
ATOM     14  N   UNL     1       5.173   3.975  15.263  0.00  0.00    +0.000 NA
ENDROOT
BRANCH  12  15
ATOM     15  N   UNL     1       2.667   6.324  20.205  0.00  0.00    +0.000 N 
ATOM     16  H   UNL     1       3.458   6.368  20.837  0.00  0.00    +0.000 HD
BRANCH  15  17
ATOM     17  C   UNL     1       1.962   7.532  20.054  0.00  0.00    +0.000 A 
ATOM     18  C   UNL     1       1.993   8.236  18.840  0.00  0.00    +0.000 A 
ATOM     19  C   UNL     1       1.369   9.476  18.706  0.00  0.00    +0.000 A 
ATOM     20  C   UNL     1       0.692  10.022  19.789  0.00  0.00    +0.000 A 
ATOM     21 CL   UNL     1      -0.039  11.572  19.645  0.00  0.00    +0.000 Cl
ATOM     22  C   UNL     1       0.617   9.327  20.996  0.00  0.00    +0.000 A 
ATOM     23  C   UNL     1       1.246   8.082  21.124  0.00  0.00    +0.000 A 
ENDBRANCH  15  17
ENDBRANCH  12  15
TORSDOF 2
ENDMDL
MODEL 3
REMARK VINA RESULT:      -7.6      1.114      1.120
REMARK  Name = 
REMARK  4 active torsions:
REMARK  status: ('A' for Active; 'I' for Inactive)
REMARK    1  A    between atoms: C_1  and  C_2
REMARK    2  A    between atoms: C_4  and  C_5
REMARK    3  A    between atoms: C_12  and  N_13
REMARK    4  A    between atoms: N_13  and  C_14
REMARK                            x       y       z     vdW  Elec       q    Type
REMARK                         _______ _______ _______ _____ _____    ______ ____
ROOT
ATOM      1  C   UNL     1       6.212   3.591  13.704  0.00  0.00    +0.000 C 
ATOM      2  C   UNL     1       5.700   4.338  14.878  0.00  0.00    +0.000 A 
ATOM      3  C   UNL     1       5.724   5.725  15.100  0.00  0.00    +0.000 A 
ATOM      4  C   UNL     1       5.137   5.911  16.333  0.00  0.00    +0.000 A 
ATOM      5  C   UNL     1       4.924   7.177  17.078  0.00  0.00    +0.000 C 
ATOM      6  N   UNL     1       4.760   4.647  16.786  0.00  0.00    +0.000 N 
ATOM      7  C   UNL     1       4.057   4.291  18.001  0.00  0.00    +0.000 A 
ATOM      8  N   UNL     1       3.862   2.983  18.271  0.00  0.00    +0.000 NA
ATOM      9  C   UNL     1       3.198   2.687  19.408  0.00  0.00    +0.000 A 
ATOM     10  C   UNL     1       2.720   3.636  20.283  0.00  0.00    +0.000 A 
ATOM     11 CL   UNL     1       1.878   3.166  21.706  0.00  0.00    +0.000 Cl
ATOM     12  C   UNL     1       2.941   4.960  19.930  0.00  0.00    +0.000 A 
ATOM     13  N   UNL     1       3.611   5.284  18.799  0.00  0.00    +0.000 NA
ATOM     14  N   UNL     1       5.139   3.681  15.894  0.00  0.00    +0.000 NA
ENDROOT
BRANCH  12  15
ATOM     15  N   UNL     1       2.420   6.005  20.733  0.00  0.00    +0.000 N 
ATOM     16  H   UNL     1       2.849   6.022  21.652  0.00  0.00    +0.000 HD
BRANCH  15  17
ATOM     17  C   UNL     1       1.967   7.253  20.268  0.00  0.00    +0.000 A 
ATOM     18  C   UNL     1       1.229   8.107  21.104  0.00  0.00    +0.000 A 
ATOM     19  C   UNL     1       0.703   9.308  20.628  0.00  0.00    +0.000 A 
ATOM     20  C   UNL     1       0.920   9.674  19.306  0.00  0.00    +0.000 A 
ATOM     21 CL   UNL     1       0.233  11.130  18.700  0.00  0.00    +0.000 Cl
ATOM     22  C   UNL     1       1.679   8.860  18.465  0.00  0.00    +0.000 A 
ATOM     23  C   UNL     1       2.205   7.656  18.949  0.00  0.00    +0.000 A 
ENDBRANCH  15  17
ENDBRANCH  12  15
TORSDOF 2
ENDMDL
MODEL 4
REMARK VINA RESULT:      -7.5      2.843      6.517
REMARK  Name = 
REMARK  4 active torsions:
REMARK  status: ('A' for Active; 'I' for Inactive)
REMARK    1  A    between atoms: C_1  and  C_2
REMARK    2  A    between atoms: C_4  and  C_5
REMARK    3  A    between atoms: C_12  and  N_13
REMARK    4  A    between atoms: N_13  and  C_14
REMARK                            x       y       z     vdW  Elec       q    Type
REMARK                         _______ _______ _______ _____ _____    ______ ____
ROOT
ATOM      1  C   UNL     1       0.288  10.607  19.828  0.00  0.00    +0.000 C 
ATOM      2  C   UNL     1       1.157   9.523  19.312  0.00  0.00    +0.000 A 
ATOM      3  C   UNL     1       1.993   9.545  18.183  0.00  0.00    +0.000 A 
ATOM      4  C   UNL     1       2.578   8.298  18.132  0.00  0.00    +0.000 A 
ATOM      5  C   UNL     1       3.528   7.760  17.128  0.00  0.00    +0.000 C 
ATOM      6  N   UNL     1       2.099   7.592  19.236  0.00  0.00    +0.000 N 
ATOM      7  C   UNL     1       2.441   6.255  19.675  0.00  0.00    +0.000 A 
ATOM      8  N   UNL     1       1.791   5.743  20.742  0.00  0.00    +0.000 NA
ATOM      9  C   UNL     1       2.139   4.497  21.128  0.00  0.00    +0.000 A 
ATOM     10  C   UNL     1       3.104   3.745  20.500  0.00  0.00    +0.000 A 
ATOM     11 CL   UNL     1       3.487   2.167  21.067  0.00  0.00    +0.000 Cl
ATOM     12  C   UNL     1       3.742   4.343  19.423  0.00  0.00    +0.000 A 
ATOM     13  N   UNL     1       3.407   5.588  19.010  0.00  0.00    +0.000 NA
ATOM     14  N   UNL     1       1.201   8.347  19.940  0.00  0.00    +0.000 NA
ENDROOT
BRANCH  12  15
ATOM     15  N   UNL     1       4.801   3.671  18.762  0.00  0.00    +0.000 N 
ATOM     16  H   UNL     1       4.744   2.667  18.888  0.00  0.00    +0.000 HD
BRANCH  15  17
ATOM     17  C   UNL     1       5.421   4.084  17.569  0.00  0.00    +0.000 A 
ATOM     18  C   UNL     1       4.766   3.950  16.334  0.00  0.00    +0.000 A 
ATOM     19  C   UNL     1       5.403   4.276  15.138  0.00  0.00    +0.000 A 
ATOM     20  C   UNL     1       6.707   4.755  15.165  0.00  0.00    +0.000 A 
ATOM     21 CL   UNL     1       7.515   5.115  13.689  0.00  0.00    +0.000 Cl
ATOM     22  C   UNL     1       7.367   4.931  16.380  0.00  0.00    +0.000 A 
ATOM     23  C   UNL     1       6.722   4.601  17.579  0.00  0.00    +0.000 A 
ENDBRANCH  15  17
ENDBRANCH  12  15
TORSDOF 2
ENDMDL
MODEL 5
REMARK VINA RESULT:      -7.5      2.818      6.406
REMARK  Name = 
REMARK  4 active torsions:
REMARK  status: ('A' for Active; 'I' for Inactive)
REMARK    1  A    between atoms: C_1  and  C_2
REMARK    2  A    between atoms: C_4  and  C_5
REMARK    3  A    between atoms: C_12  and  N_13
REMARK    4  A    between atoms: N_13  and  C_14
REMARK                            x       y       z     vdW  Elec       q    Type
REMARK                         _______ _______ _______ _____ _____    ______ ____
ROOT
ATOM      1  C   UNL     1       0.378  10.946  19.322  0.00  0.00    +0.000 C 
ATOM      2  C   UNL     1       1.233   9.792  18.953  0.00  0.00    +0.000 A 
ATOM      3  C   UNL     1       2.161   9.702  17.901  0.00  0.00    +0.000 A 
ATOM      4  C   UNL     1       2.685   8.430  17.981  0.00  0.00    +0.000 A 
ATOM      5  C   UNL     1       3.689   7.784  17.099  0.00  0.00    +0.000 C 
ATOM      6  N   UNL     1       2.082   7.822  19.082  0.00  0.00    +0.000 N 
ATOM      7  C   UNL     1       2.320   6.504  19.633  0.00  0.00    +0.000 A 
ATOM      8  N   UNL     1       1.560   6.094  20.671  0.00  0.00    +0.000 NA
ATOM      9  C   UNL     1       1.813   4.864  21.164  0.00  0.00    +0.000 A 
ATOM     10  C   UNL     1       2.789   4.029  20.672  0.00  0.00    +0.000 A 
ATOM     11 CL   UNL     1       3.046   2.479  21.369  0.00  0.00    +0.000 Cl
ATOM     12  C   UNL     1       3.544   4.525  19.617  0.00  0.00    +0.000 A 
ATOM     13  N   UNL     1       3.305   5.752  19.098  0.00  0.00    +0.000 NA
ATOM     14  N   UNL     1       1.167   8.661  19.656  0.00  0.00    +0.000 NA
ENDROOT
BRANCH  12  15
ATOM     15  N   UNL     1       4.620   3.764  19.095  0.00  0.00    +0.000 N 
ATOM     16  H   UNL     1       4.540   2.784  19.340  0.00  0.00    +0.000 HD
BRANCH  15  17
ATOM     17  C   UNL     1       5.300   4.019  17.890  0.00  0.00    +0.000 A 
ATOM     18  C   UNL     1       6.575   4.607  17.896  0.00  0.00    +0.000 A 
ATOM     19  C   UNL     1       7.222   4.943  16.707  0.00  0.00    +0.000 A 
ATOM     20  C   UNL     1       6.601   4.681  15.492  0.00  0.00    +0.000 A 
ATOM     21 CL   UNL     1       7.373   5.136  14.023  0.00  0.00    +0.000 Cl
ATOM     22  C   UNL     1       5.351   4.065  15.459  0.00  0.00    +0.000 A 
ATOM     23  C   UNL     1       4.705   3.731  16.656  0.00  0.00    +0.000 A 
ENDBRANCH  15  17
ENDBRANCH  12  15
TORSDOF 2
ENDMDL
MODEL 6
REMARK VINA RESULT:      -7.3      4.030      7.519
REMARK  Name = 
REMARK  4 active torsions:
REMARK  status: ('A' for Active; 'I' for Inactive)
REMARK    1  A    between atoms: C_1  and  C_2
REMARK    2  A    between atoms: C_4  and  C_5
REMARK    3  A    between atoms: C_12  and  N_13
REMARK    4  A    between atoms: N_13  and  C_14
REMARK                            x       y       z     vdW  Elec       q    Type
REMARK                         _______ _______ _______ _____ _____    ______ ____
ROOT
ATOM      1  C   UNL     1       1.492   2.495  21.954  0.00  0.00    +0.000 C 
ATOM      2  C   UNL     1       2.018   2.895  20.627  0.00  0.00    +0.000 A 
ATOM      3  C   UNL     1       1.484   2.606  19.360  0.00  0.00    +0.000 A 
ATOM      4  C   UNL     1       2.343   3.194  18.455  0.00  0.00    +0.000 A 
ATOM      5  C   UNL     1       2.279   3.181  16.973  0.00  0.00    +0.000 C 
ATOM      6  N   UNL     1       3.331   3.831  19.206  0.00  0.00    +0.000 N 
ATOM      7  C   UNL     1       4.441   4.638  18.744  0.00  0.00    +0.000 A 
ATOM      8  N   UNL     1       5.324   5.099  19.655  0.00  0.00    +0.000 NA
ATOM      9  C   UNL     1       6.343   5.853  19.191  0.00  0.00    +0.000 A 
ATOM     10  C   UNL     1       6.516   6.168  17.863  0.00  0.00    +0.000 A 
ATOM     11 CL   UNL     1       7.841   7.143  17.363  0.00  0.00    +0.000 Cl
ATOM     12  C   UNL     1       5.559   5.676  16.987  0.00  0.00    +0.000 A 
ATOM     13  N   UNL     1       4.533   4.910  17.425  0.00  0.00    +0.000 NA
ATOM     14  N   UNL     1       3.138   3.615  20.543  0.00  0.00    +0.000 NA
ENDROOT
BRANCH  12  15
ATOM     15  N   UNL     1       5.617   6.012  15.611  0.00  0.00    +0.000 N 
ATOM     16  H   UNL     1       5.842   6.990  15.473  0.00  0.00    +0.000 HD
BRANCH  15  17
ATOM     17  C   UNL     1       6.026   5.157  14.571  0.00  0.00    +0.000 A 
ATOM     18  C   UNL     1       7.297   5.291  13.988  0.00  0.00    +0.000 A 
ATOM     19  C   UNL     1       7.681   4.506  12.901  0.00  0.00    +0.000 A 
ATOM     20  C   UNL     1       6.796   3.565  12.390  0.00  0.00    +0.000 A 
ATOM     21 CL   UNL     1       7.246   2.628  11.020  0.00  0.00    +0.000 Cl
ATOM     22  C   UNL     1       5.542   3.388  12.973  0.00  0.00    +0.000 A 
ATOM     23  C   UNL     1       5.162   4.179  14.065  0.00  0.00    +0.000 A 
ENDBRANCH  15  17
ENDBRANCH  12  15
TORSDOF 2
ENDMDL
MODEL 7
REMARK VINA RESULT:      -7.2      4.043      7.443
REMARK  Name = 
REMARK  4 active torsions:
REMARK  status: ('A' for Active; 'I' for Inactive)
REMARK    1  A    between atoms: C_1  and  C_2
REMARK    2  A    between atoms: C_4  and  C_5
REMARK    3  A    between atoms: C_12  and  N_13
REMARK    4  A    between atoms: N_13  and  C_14
REMARK                            x       y       z     vdW  Elec       q    Type
REMARK                         _______ _______ _______ _____ _____    ______ ____
ROOT
ATOM      1  C   UNL     1       1.456   2.496  21.803  0.00  0.00    +0.000 C 
ATOM      2  C   UNL     1       1.998   2.930  20.494  0.00  0.00    +0.000 A 
ATOM      3  C   UNL     1       1.464   2.698  19.215  0.00  0.00    +0.000 A 
ATOM      4  C   UNL     1       2.341   3.297  18.335  0.00  0.00    +0.000 A 
ATOM      5  C   UNL     1       2.284   3.337  16.853  0.00  0.00    +0.000 C 
ATOM      6  N   UNL     1       3.339   3.885  19.112  0.00  0.00    +0.000 N 
ATOM      7  C   UNL     1       4.469   4.682  18.683  0.00  0.00    +0.000 A 
ATOM      8  N   UNL     1       5.357   5.091  19.614  0.00  0.00    +0.000 NA
ATOM      9  C   UNL     1       6.395   5.838  19.181  0.00  0.00    +0.000 A 
ATOM     10  C   UNL     1       6.583   6.195  17.866  0.00  0.00    +0.000 A 
ATOM     11 CL   UNL     1       7.932   7.156  17.406  0.00  0.00    +0.000 Cl
ATOM     12  C   UNL     1       5.620   5.755  16.968  0.00  0.00    +0.000 A 
ATOM     13  N   UNL     1       4.574   4.998  17.375  0.00  0.00    +0.000 NA
ATOM     14  N   UNL     1       3.133   3.628  20.440  0.00  0.00    +0.000 NA
ENDROOT
BRANCH  12  15
ATOM     15  N   UNL     1       5.692   6.137  15.605  0.00  0.00    +0.000 N 
ATOM     16  H   UNL     1       6.013   7.093  15.500  0.00  0.00    +0.000 HD
BRANCH  15  17
ATOM     17  C   UNL     1       6.000   5.287  14.527  0.00  0.00    +0.000 A 
ATOM     18  C   UNL     1       5.068   4.342  14.068  0.00  0.00    +0.000 A 
ATOM     19  C   UNL     1       5.393   3.437  13.058  0.00  0.00    +0.000 A 
ATOM     20  C   UNL     1       6.656   3.478  12.483  0.00  0.00    +0.000 A 
ATOM     21 CL   UNL     1       7.079   2.334  11.269  0.00  0.00    +0.000 Cl
ATOM     22  C   UNL     1       7.588   4.430  12.896  0.00  0.00    +0.000 A 
ATOM     23  C   UNL     1       7.256   5.336  13.912  0.00  0.00    +0.000 A 
ENDBRANCH  15  17
ENDBRANCH  12  15
TORSDOF 2
ENDMDL
MODEL 8
REMARK VINA RESULT:      -6.8      4.333      6.941
REMARK  Name = 
REMARK  4 active torsions:
REMARK  status: ('A' for Active; 'I' for Inactive)
REMARK    1  A    between atoms: C_1  and  C_2
REMARK    2  A    between atoms: C_4  and  C_5
REMARK    3  A    between atoms: C_12  and  N_13
REMARK    4  A    between atoms: N_13  and  C_14
REMARK                            x       y       z     vdW  Elec       q    Type
REMARK                         _______ _______ _______ _____ _____    ______ ____
ROOT
ATOM      1  C   UNL     1       3.382   5.179  19.805  0.00  0.00    +0.000 C 
ATOM      2  C   UNL     1       2.717   6.482  19.565  0.00  0.00    +0.000 A 
ATOM      3  C   UNL     1       2.665   7.222  18.372  0.00  0.00    +0.000 A 
ATOM      4  C   UNL     1       1.938   8.354  18.672  0.00  0.00    +0.000 A 
ATOM      5  C   UNL     1       1.598   9.498  17.790  0.00  0.00    +0.000 C 
ATOM      6  N   UNL     1       1.559   8.238  20.009  0.00  0.00    +0.000 N 
ATOM      7  C   UNL     1       0.740   9.131  20.800  0.00  0.00    +0.000 A 
ATOM      8  N   UNL     1       0.563   8.853  22.109  0.00  0.00    +0.000 NA
ATOM      9  C   UNL     1      -0.212   9.703  22.815  0.00  0.00    +0.000 A 
ATOM     10  C   UNL     1      -0.818  10.812  22.274  0.00  0.00    +0.000 A 
ATOM     11 CL   UNL     1      -1.796  11.836  23.249  0.00  0.00    +0.000 Cl
ATOM     12  C   UNL     1      -0.607  11.025  20.919  0.00  0.00    +0.000 A 
ATOM     13  N   UNL     1       0.172  10.193  20.189  0.00  0.00    +0.000 NA
ATOM     14  N   UNL     1       2.070   7.093  20.558  0.00  0.00    +0.000 NA
ENDROOT
BRANCH  12  15
ATOM     15  N   UNL     1      -1.253  12.102  20.260  0.00  0.00    +0.000 N 
ATOM     16  H   UNL     1      -0.587  12.717  19.806  0.00  0.00    +0.000 HD
BRANCH  15  17
ATOM     17  C   UNL     1      -2.524  12.057  19.658  0.00  0.00    +0.000 A 
ATOM     18  C   UNL     1      -2.697  11.486  18.387  0.00  0.00    +0.000 A 
ATOM     19  C   UNL     1      -3.935  11.512  17.745  0.00  0.00    +0.000 A 
ATOM     20  C   UNL     1      -5.021  12.102  18.378  0.00  0.00    +0.000 A 
ATOM     21 CL   UNL     1      -6.539  12.179  17.571  0.00  0.00    +0.000 Cl
ATOM     22  C   UNL     1      -4.884  12.644  19.655  0.00  0.00    +0.000 A 
ATOM     23  C   UNL     1      -3.638  12.616  20.295  0.00  0.00    +0.000 A 
ENDBRANCH  15  17
ENDBRANCH  12  15
TORSDOF 2
ENDMDL
MODEL 9
REMARK VINA RESULT:      -6.7      3.740      8.033
REMARK  Name = 
REMARK  4 active torsions:
REMARK  status: ('A' for Active; 'I' for Inactive)
REMARK    1  A    between atoms: C_1  and  C_2
REMARK    2  A    between atoms: C_4  and  C_5
REMARK    3  A    between atoms: C_12  and  N_13
REMARK    4  A    between atoms: N_13  and  C_14
REMARK                            x       y       z     vdW  Elec       q    Type
REMARK                         _______ _______ _______ _____ _____    ______ ____
ROOT
ATOM      1  C   UNL     1      -2.457  13.219  20.836  0.00  0.00    +0.000 C 
ATOM      2  C   UNL     1      -1.548  12.080  21.106  0.00  0.00    +0.000 A 
ATOM      3  C   UNL     1      -1.331  11.415  22.325  0.00  0.00    +0.000 A 
ATOM      4  C   UNL     1      -0.395  10.441  22.051  0.00  0.00    +0.000 A 
ATOM      5  C   UNL     1       0.223   9.462  22.979  0.00  0.00    +0.000 C 
ATOM      6  N   UNL     1      -0.111  10.537  20.688  0.00  0.00    +0.000 N 
ATOM      7  C   UNL     1       0.766   9.712  19.884  0.00  0.00    +0.000 A 
ATOM      8  N   UNL     1       0.946  10.038  18.587  0.00  0.00    +0.000 NA
ATOM      9  C   UNL     1       1.764   9.244  17.865  0.00  0.00    +0.000 A 
ATOM     10  C   UNL     1       2.407   8.142  18.379  0.00  0.00    +0.000 A 
ATOM     11 CL   UNL     1       3.427   7.183  17.381  0.00  0.00    +0.000 Cl
ATOM     12  C   UNL     1       2.160   7.856  19.714  0.00  0.00    +0.000 A 
ATOM     13  N   UNL     1       1.350   8.641  20.463  0.00  0.00    +0.000 NA
ATOM     14  N   UNL     1      -0.806  11.571  20.122  0.00  0.00    +0.000 NA
ENDROOT
BRANCH  12  15
ATOM     15  N   UNL     1       2.721   6.697  20.308  0.00  0.00    +0.000 N 
ATOM     16  H   UNL     1       2.971   6.856  21.277  0.00  0.00    +0.000 HD
BRANCH  15  17
ATOM     17  C   UNL     1       2.387   5.367  19.992  0.00  0.00    +0.000 A 
ATOM     18  C   UNL     1       3.193   4.610  19.127  0.00  0.00    +0.000 A 
ATOM     19  C   UNL     1       2.827   3.321  18.740  0.00  0.00    +0.000 A 
ATOM     20  C   UNL     1       1.651   2.769  19.228  0.00  0.00    +0.000 A 
ATOM     21 CL   UNL     1       1.170   1.198  18.718  0.00  0.00    +0.000 Cl
ATOM     22  C   UNL     1       0.851   3.486  20.117  0.00  0.00    +0.000 A 
ATOM     23  C   UNL     1       1.223   4.781  20.502  0.00  0.00    +0.000 A 
ENDBRANCH  15  17
ENDBRANCH  12  15
TORSDOF 2
ENDMDL
