MODEL 1
REMARK VINA RESULT:      -8.9      0.000      0.000
REMARK  Name = 
REMARK  6 active torsions:
REMARK  status: ('A' for Active; 'I' for Inactive)
REMARK    1  A    between atoms: C_2  and  C_23
REMARK    2  A    between atoms: N_3  and  C_4
REMARK    3  A    between atoms: C_7  and  N_8
REMARK    4  A    between atoms: C_10  and  C_11
REMARK    5  A    between atoms: C_16  and  C_17
REMARK    6  A    between atoms: C_28  and  O_29
REMARK                            x       y       z     vdW  Elec       q    Type
REMARK                         _______ _______ _______ _____ _____    ______ ____
ROOT
ATOM      1  C   UNL     1       1.384   8.972  19.666  0.00  0.00    +0.000 A 
ATOM      2  C   UNL     1       1.840   9.103  18.354  0.00  0.00    +0.000 A 
ATOM      3  C   UNL     1       2.598   8.093  17.762  0.00  0.00    +0.000 A 
ATOM      4  C   UNL     1       2.876   6.916  18.465  0.00  0.00    +0.000 A 
ATOM      5  C   UNL     1       2.451   6.787  19.791  0.00  0.00    +0.000 A 
ATOM      6  C   UNL     1       1.715   7.819  20.389  0.00  0.00    +0.000 A 
ENDROOT
BRANCH   4   7
ATOM      7  N   UNL     1       3.641   5.908  17.819  0.00  0.00    +0.000 N 
ATOM      8  N   UNL     1       4.861   6.249  17.318  0.00  0.00    +0.000 NA
ATOM      9  C   UNL     1       5.471   5.088  17.026  0.00  0.00    +0.000 A 
ATOM     10  C   UNL     1       4.569   4.012  17.182  0.00  0.00    +0.000 A 
ATOM     11  C   UNL     1       3.383   4.573  17.620  0.00  0.00    +0.000 A 
BRANCH   9  12
ATOM     12  C   UNL     1       6.903   4.995  16.566  0.00  0.00    +0.000 C 
ATOM     13  F   UNL     1       7.049   4.446  15.334  0.00  0.00    +0.000 F 
ATOM     14  F   UNL     1       7.484   6.227  16.515  0.00  0.00    +0.000 F 
ATOM     15  F   UNL     1       7.654   4.255  17.420  0.00  0.00    +0.000 F 
ENDBRANCH   9  12
BRANCH  11  16
ATOM     16  C   UNL     1       2.065   3.937  17.770  0.00  0.00    +0.000 C 
ATOM     17  F   UNL     1       1.037   4.616  17.211  0.00  0.00    +0.000 F 
ATOM     18  F   UNL     1       2.057   2.707  17.193  0.00  0.00    +0.000 F 
ATOM     19  F   UNL     1       1.759   3.751  19.078  0.00  0.00    +0.000 F 
ENDBRANCH  11  16
ENDBRANCH   4   7
BRANCH   1  22
ATOM     20  O   UNL     1      -1.256  10.057  18.955  0.00  0.00    +0.000 OA
ATOM     21  C   UNL     1      -0.602  10.460  19.913  0.00  0.00    +0.000 C 
ATOM     22  N   UNL     1       0.623   9.961  20.316  0.00  0.00    +0.000 N 
ATOM     23  H   UNL     1       0.995  10.321  21.193  0.00  0.00    +0.000 HD
BRANCH  21  24
ATOM     24  C   UNL     1      -1.191  11.550  20.735  0.00  0.00    +0.000 A 
ATOM     25  C   UNL     1      -0.889  11.592  22.102  0.00  0.00    +0.000 A 
ATOM     26  C   UNL     1      -1.412  12.606  22.902  0.00  0.00    +0.000 A 
ATOM     27  C   UNL     1      -2.230  13.551  22.305  0.00  0.00    +0.000 A 
ATOM     28  N   UNL     1      -2.557  13.543  20.994  0.00  0.00    +0.000 NA
ATOM     29  C   UNL     1      -2.028  12.547  20.255  0.00  0.00    +0.000 A 
BRANCH  29  30
ATOM     30  O   UNL     1      -2.412  12.629  18.954  0.00  0.00    +0.000 OA
ATOM     31  H   UNL     1      -2.517  13.598  18.884  0.00  0.00    +0.000 HD
ENDBRANCH  29  30
ENDBRANCH  21  24
ENDBRANCH   1  22
TORSDOF 6
ENDMDL
MODEL 2
REMARK VINA RESULT:      -8.8      0.948      1.283
REMARK  Name = 
REMARK  6 active torsions:
REMARK  status: ('A' for Active; 'I' for Inactive)
REMARK    1  A    between atoms: C_2  and  C_23
REMARK    2  A    between atoms: N_3  and  C_4
REMARK    3  A    between atoms: C_7  and  N_8
REMARK    4  A    between atoms: C_10  and  C_11
REMARK    5  A    between atoms: C_16  and  C_17
REMARK    6  A    between atoms: C_28  and  O_29
REMARK                            x       y       z     vdW  Elec       q    Type
REMARK                         _______ _______ _______ _____ _____    ______ ____
ROOT
ATOM      1  C   UNL     1       1.421   8.930  19.753  0.00  0.00    +0.000 A 
ATOM      2  C   UNL     1       1.861   9.074  18.437  0.00  0.00    +0.000 A 
ATOM      3  C   UNL     1       2.604   8.066  17.822  0.00  0.00    +0.000 A 
ATOM      4  C   UNL     1       2.882   6.878  18.505  0.00  0.00    +0.000 A 
ATOM      5  C   UNL     1       2.473   6.735  19.836  0.00  0.00    +0.000 A 
ATOM      6  C   UNL     1       1.753   7.764  20.456  0.00  0.00    +0.000 A 
ENDROOT
BRANCH   4   7
ATOM      7  N   UNL     1       3.630   5.873  17.836  0.00  0.00    +0.000 N 
ATOM      8  N   UNL     1       4.849   6.210  17.330  0.00  0.00    +0.000 NA
ATOM      9  C   UNL     1       5.444   5.048  17.013  0.00  0.00    +0.000 A 
ATOM     10  C   UNL     1       4.532   3.978  17.159  0.00  0.00    +0.000 A 
ATOM     11  C   UNL     1       3.356   4.544  17.618  0.00  0.00    +0.000 A 
BRANCH   9  12
ATOM     12  C   UNL     1       6.870   4.947  16.538  0.00  0.00    +0.000 C 
ATOM     13  F   UNL     1       7.006   4.351  15.327  0.00  0.00    +0.000 F 
ATOM     14  F   UNL     1       7.441   6.180  16.431  0.00  0.00    +0.000 F 
ATOM     15  F   UNL     1       7.638   4.247  17.411  0.00  0.00    +0.000 F 
ENDBRANCH   9  12
BRANCH  11  16
ATOM     16  C   UNL     1       2.033   3.919  17.769  0.00  0.00    +0.000 C 
ATOM     17  F   UNL     1       1.015   4.592  17.187  0.00  0.00    +0.000 F 
ATOM     18  F   UNL     1       2.023   2.678  17.218  0.00  0.00    +0.000 F 
ATOM     19  F   UNL     1       1.714   3.764  19.078  0.00  0.00    +0.000 F 
ENDBRANCH  11  16
ENDBRANCH   4   7
BRANCH   1  22
ATOM     20  O   UNL     1      -1.210  10.059  19.080  0.00  0.00    +0.000 OA
ATOM     21  C   UNL     1      -0.544  10.436  20.041  0.00  0.00    +0.000 C 
ATOM     22  N   UNL     1       0.677   9.916  20.427  0.00  0.00    +0.000 N 
ATOM     23  H   UNL     1       1.060  10.254  21.307  0.00  0.00    +0.000 HD
BRANCH  21  24
ATOM     24  C   UNL     1      -1.115  11.519  20.886  0.00  0.00    +0.000 A 
ATOM     25  C   UNL     1      -1.921  12.487  20.274  0.00  0.00    +0.000 A 
ATOM     26  C   UNL     1      -2.482  13.510  21.035  0.00  0.00    +0.000 A 
ATOM     27  C   UNL     1      -2.216  13.534  22.394  0.00  0.00    +0.000 A 
ATOM     28  N   UNL     1      -1.436  12.628  23.024  0.00  0.00    +0.000 NA
ATOM     29  C   UNL     1      -0.914  11.654  22.252  0.00  0.00    +0.000 A 
BRANCH  29  30
ATOM     30  O   UNL     1      -0.152  10.793  22.977  0.00  0.00    +0.000 OA
ATOM     31  H   UNL     1      -0.707  10.731  23.779  0.00  0.00    +0.000 HD
ENDBRANCH  29  30
ENDBRANCH  21  24
ENDBRANCH   1  22
TORSDOF 6
ENDMDL
MODEL 3
REMARK VINA RESULT:      -8.8      0.107      1.018
REMARK  Name = 
REMARK  6 active torsions:
REMARK  status: ('A' for Active; 'I' for Inactive)
REMARK    1  A    between atoms: C_2  and  C_23
REMARK    2  A    between atoms: N_3  and  C_4
REMARK    3  A    between atoms: C_7  and  N_8
REMARK    4  A    between atoms: C_10  and  C_11
REMARK    5  A    between atoms: C_16  and  C_17
REMARK    6  A    between atoms: C_28  and  O_29
REMARK                            x       y       z     vdW  Elec       q    Type
REMARK                         _______ _______ _______ _____ _____    ______ ____
ROOT
ATOM      1  C   UNL     1       1.367   8.976  19.670  0.00  0.00    +0.000 A 
ATOM      2  C   UNL     1       1.808   9.075  18.351  0.00  0.00    +0.000 A 
ATOM      3  C   UNL     1       2.558   8.050  17.774  0.00  0.00    +0.000 A 
ATOM      4  C   UNL     1       2.841   6.889  18.501  0.00  0.00    +0.000 A 
ATOM      5  C   UNL     1       2.431   6.792  19.834  0.00  0.00    +0.000 A 
ATOM      6  C   UNL     1       1.704   7.839  20.416  0.00  0.00    +0.000 A 
ENDROOT
BRANCH   4   7
ATOM      7  N   UNL     1       3.597   5.865  17.870  0.00  0.00    +0.000 N 
ATOM      8  N   UNL     1       4.819   6.188  17.362  0.00  0.00    +0.000 NA
ATOM      9  C   UNL     1       5.419   5.017  17.088  0.00  0.00    +0.000 A 
ATOM     10  C   UNL     1       4.508   3.951  17.260  0.00  0.00    +0.000 A 
ATOM     11  C   UNL     1       3.328   4.529  17.691  0.00  0.00    +0.000 A 
BRANCH   9  12
ATOM     12  C   UNL     1       6.849   4.905  16.627  0.00  0.00    +0.000 C 
ATOM     13  F   UNL     1       7.656   4.245  17.496  0.00  0.00    +0.000 F 
ATOM     14  F   UNL     1       6.932   4.243  15.439  0.00  0.00    +0.000 F 
ATOM     15  F   UNL     1       7.405   6.126  16.423  0.00  0.00    +0.000 F 
ENDBRANCH   9  12
BRANCH  11  16
ATOM     16  C   UNL     1       2.005   3.906  17.852  0.00  0.00    +0.000 C 
ATOM     17  F   UNL     1       1.917   2.632  17.408  0.00  0.00    +0.000 F 
ATOM     18  F   UNL     1       1.647   3.870  19.162  0.00  0.00    +0.000 F 
ATOM     19  F   UNL     1       1.047   4.621  17.210  0.00  0.00    +0.000 F 
ENDBRANCH  11  16
ENDBRANCH   4   7
BRANCH   1  22
ATOM     20  O   UNL     1      -1.268  10.067  18.950  0.00  0.00    +0.000 OA
ATOM     21  C   UNL     1      -0.608  10.481  19.899  0.00  0.00    +0.000 C 
ATOM     22  N   UNL     1       0.615   9.981  20.306  0.00  0.00    +0.000 N 
ATOM     23  H   UNL     1       0.993  10.353  21.175  0.00  0.00    +0.000 HD
BRANCH  21  24
ATOM     24  C   UNL     1      -1.186  11.590  20.704  0.00  0.00    +0.000 A 
ATOM     25  C   UNL     1      -0.875  11.656  22.068  0.00  0.00    +0.000 A 
ATOM     26  C   UNL     1      -1.388  12.687  22.852  0.00  0.00    +0.000 A 
ATOM     27  C   UNL     1      -2.205  13.624  22.243  0.00  0.00    +0.000 A 
ATOM     28  N   UNL     1      -2.541  13.593  20.934  0.00  0.00    +0.000 NA
ATOM     29  C   UNL     1      -2.021  12.581  20.211  0.00  0.00    +0.000 A 
BRANCH  29  30
ATOM     30  O   UNL     1      -2.413  12.641  18.911  0.00  0.00    +0.000 OA
ATOM     31  H   UNL     1      -1.556  12.873  18.501  0.00  0.00    +0.000 HD
ENDBRANCH  29  30
ENDBRANCH  21  24
ENDBRANCH   1  22
TORSDOF 6
ENDMDL
MODEL 4
REMARK VINA RESULT:      -8.8      1.451      1.866
REMARK  Name = 
REMARK  6 active torsions:
REMARK  status: ('A' for Active; 'I' for Inactive)
REMARK    1  A    between atoms: C_2  and  C_23
REMARK    2  A    between atoms: N_3  and  C_4
REMARK    3  A    between atoms: C_7  and  N_8
REMARK    4  A    between atoms: C_10  and  C_11
REMARK    5  A    between atoms: C_16  and  C_17
REMARK    6  A    between atoms: C_28  and  O_29
REMARK                            x       y       z     vdW  Elec       q    Type
REMARK                         _______ _______ _______ _____ _____    ______ ____
ROOT
ATOM      1  C   UNL     1       1.043   8.957  19.810  0.00  0.00    +0.000 A 
ATOM      2  C   UNL     1       1.442   9.129  18.484  0.00  0.00    +0.000 A 
ATOM      3  C   UNL     1       2.300   8.213  17.876  0.00  0.00    +0.000 A 
ATOM      4  C   UNL     1       2.741   7.087  18.578  0.00  0.00    +0.000 A 
ATOM      5  C   UNL     1       2.375   6.921  19.918  0.00  0.00    +0.000 A 
ATOM      6  C   UNL     1       1.535   7.860  20.530  0.00  0.00    +0.000 A 
ENDROOT
BRANCH   4   7
ATOM      7  N   UNL     1       3.605   6.174  17.916  0.00  0.00    +0.000 N 
ATOM      8  N   UNL     1       4.799   6.639  17.454  0.00  0.00    +0.000 NA
ATOM      9  C   UNL     1       5.516   5.547  17.137  0.00  0.00    +0.000 A 
ATOM     10  C   UNL     1       4.710   4.391  17.235  0.00  0.00    +0.000 A 
ATOM     11  C   UNL     1       3.471   4.829  17.666  0.00  0.00    +0.000 A 
BRANCH   9  12
ATOM     12  C   UNL     1       6.959   5.596  16.706  0.00  0.00    +0.000 C 
ATOM     13  F   UNL     1       7.732   4.633  17.265  0.00  0.00    +0.000 F 
ATOM     14  F   UNL     1       7.073   5.454  15.356  0.00  0.00    +0.000 F 
ATOM     15  F   UNL     1       7.530   6.788  17.013  0.00  0.00    +0.000 F 
ENDBRANCH   9  12
BRANCH  11  16
ATOM     16  C   UNL     1       2.212   4.075  17.764  0.00  0.00    +0.000 C 
ATOM     17  F   UNL     1       1.829   3.766  19.024  0.00  0.00    +0.000 F 
ATOM     18  F   UNL     1       1.185   4.781  17.225  0.00  0.00    +0.000 F 
ATOM     19  F   UNL     1       2.285   2.911  17.072  0.00  0.00    +0.000 F 
ENDBRANCH  11  16
ENDBRANCH   4   7
BRANCH   1  22
ATOM     20  O   UNL     1       1.683  11.496  21.150  0.00  0.00    +0.000 OA
ATOM     21  C   UNL     1       0.551  11.018  21.123  0.00  0.00    +0.000 C 
ATOM     22  N   UNL     1       0.186   9.852  20.477  0.00  0.00    +0.000 N 
ATOM     23  H   UNL     1      -0.808   9.637  20.450  0.00  0.00    +0.000 HD
BRANCH  21  24
ATOM     24  C   UNL     1      -0.528  11.775  21.812  0.00  0.00    +0.000 A 
ATOM     25  C   UNL     1      -0.790  13.087  21.398  0.00  0.00    +0.000 A 
ATOM     26  C   UNL     1      -1.801  13.824  22.010  0.00  0.00    +0.000 A 
ATOM     27  C   UNL     1      -2.522  13.221  23.028  0.00  0.00    +0.000 A 
ATOM     28  N   UNL     1      -2.296  11.963  23.467  0.00  0.00    +0.000 NA
ATOM     29  C   UNL     1      -1.311  11.285  22.846  0.00  0.00    +0.000 A 
BRANCH  29  30
ATOM     30  O   UNL     1      -1.166  10.033  23.355  0.00  0.00    +0.000 OA
ATOM     31  H   UNL     1      -0.522  10.227  24.064  0.00  0.00    +0.000 HD
ENDBRANCH  29  30
ENDBRANCH  21  24
ENDBRANCH   1  22
TORSDOF 6
ENDMDL
MODEL 5
REMARK VINA RESULT:      -8.7      1.186      1.692
REMARK  Name = 
REMARK  6 active torsions:
REMARK  status: ('A' for Active; 'I' for Inactive)
REMARK    1  A    between atoms: C_2  and  C_23
REMARK    2  A    between atoms: N_3  and  C_4
REMARK    3  A    between atoms: C_7  and  N_8
REMARK    4  A    between atoms: C_10  and  C_11
REMARK    5  A    between atoms: C_16  and  C_17
REMARK    6  A    between atoms: C_28  and  O_29
REMARK                            x       y       z     vdW  Elec       q    Type
REMARK                         _______ _______ _______ _____ _____    ______ ____
ROOT
ATOM      1  C   UNL     1       1.380   8.834  19.673  0.00  0.00    +0.000 A 
ATOM      2  C   UNL     1       1.754   7.678  20.358  0.00  0.00    +0.000 A 
ATOM      3  C   UNL     1       2.524   6.698  19.731  0.00  0.00    +0.000 A 
ATOM      4  C   UNL     1       2.965   6.883  18.417  0.00  0.00    +0.000 A 
ATOM      5  C   UNL     1       2.570   8.023  17.710  0.00  0.00    +0.000 A 
ATOM      6  C   UNL     1       1.772   8.989  18.337  0.00  0.00    +0.000 A 
ENDROOT
BRANCH   4   7
ATOM      7  N   UNL     1       3.757   5.866  17.821  0.00  0.00    +0.000 N 
ATOM      8  N   UNL     1       4.995   6.201  17.363  0.00  0.00    +0.000 NA
ATOM      9  C   UNL     1       5.620   5.037  17.117  0.00  0.00    +0.000 A 
ATOM     10  C   UNL     1       4.715   3.961  17.256  0.00  0.00    +0.000 A 
ATOM     11  C   UNL     1       3.511   4.526  17.637  0.00  0.00    +0.000 A 
BRANCH   9  12
ATOM     12  C   UNL     1       7.068   4.939  16.716  0.00  0.00    +0.000 C 
ATOM     13  F   UNL     1       7.842   4.273  17.609  0.00  0.00    +0.000 F 
ATOM     14  F   UNL     1       7.206   4.293  15.524  0.00  0.00    +0.000 F 
ATOM     15  F   UNL     1       7.624   6.166  16.551  0.00  0.00    +0.000 F 
ENDBRANCH   9  12
BRANCH  11  16
ATOM     16  C   UNL     1       2.189   3.889  17.745  0.00  0.00    +0.000 C 
ATOM     17  F   UNL     1       1.164   4.613  17.242  0.00  0.00    +0.000 F 
ATOM     18  F   UNL     1       2.171   2.704  17.081  0.00  0.00    +0.000 F 
ATOM     19  F   UNL     1       1.886   3.611  19.038  0.00  0.00    +0.000 F 
ENDBRANCH  11  16
ENDBRANCH   4   7
BRANCH   1  22
ATOM     20  O   UNL     1       1.310   9.769  22.461  0.00  0.00    +0.000 OA
ATOM     21  C   UNL     1       0.582  10.224  21.583  0.00  0.00    +0.000 C 
ATOM     22  N   UNL     1       0.598   9.851  20.252  0.00  0.00    +0.000 N 
ATOM     23  H   UNL     1       0.012  10.391  19.619  0.00  0.00    +0.000 HD
BRANCH  21  24
ATOM     24  C   UNL     1      -0.376  11.293  21.973  0.00  0.00    +0.000 A 
ATOM     25  C   UNL     1      -1.295  11.023  22.996  0.00  0.00    +0.000 A 
ATOM     26  C   UNL     1      -2.199  12.003  23.398  0.00  0.00    +0.000 A 
ATOM     27  C   UNL     1      -2.158  13.231  22.757  0.00  0.00    +0.000 A 
ATOM     28  N   UNL     1      -1.297  13.530  21.759  0.00  0.00    +0.000 NA
ATOM     29  C   UNL     1      -0.438  12.555  21.403  0.00  0.00    +0.000 A 
BRANCH  29  30
ATOM     30  O   UNL     1       0.386  12.955  20.398  0.00  0.00    +0.000 OA
ATOM     31  H   UNL     1       0.149  13.902  20.370  0.00  0.00    +0.000 HD
ENDBRANCH  29  30
ENDBRANCH  21  24
ENDBRANCH   1  22
TORSDOF 6
ENDMDL
MODEL 6
REMARK VINA RESULT:      -8.7      1.088      1.122
REMARK  Name = 
REMARK  6 active torsions:
REMARK  status: ('A' for Active; 'I' for Inactive)
REMARK    1  A    between atoms: C_2  and  C_23
REMARK    2  A    between atoms: N_3  and  C_4
REMARK    3  A    between atoms: C_7  and  N_8
REMARK    4  A    between atoms: C_10  and  C_11
REMARK    5  A    between atoms: C_16  and  C_17
REMARK    6  A    between atoms: C_28  and  O_29
REMARK                            x       y       z     vdW  Elec       q    Type
REMARK                         _______ _______ _______ _____ _____    ______ ____
ROOT
ATOM      1  C   UNL     1       1.253   8.953  19.542  0.00  0.00    +0.000 A 
ATOM      2  C   UNL     1       1.796   9.069  18.262  0.00  0.00    +0.000 A 
ATOM      3  C   UNL     1       2.625   8.072  17.750  0.00  0.00    +0.000 A 
ATOM      4  C   UNL     1       2.890   6.921  18.498  0.00  0.00    +0.000 A 
ATOM      5  C   UNL     1       2.377   6.808  19.795  0.00  0.00    +0.000 A 
ATOM      6  C   UNL     1       1.569   7.827  20.314  0.00  0.00    +0.000 A 
ENDROOT
BRANCH   4   7
ATOM      7  N   UNL     1       3.730   5.926  17.932  0.00  0.00    +0.000 N 
ATOM      8  N   UNL     1       4.981   6.290  17.535  0.00  0.00    +0.000 NA
ATOM      9  C   UNL     1       5.640   5.140  17.310  0.00  0.00    +0.000 A 
ATOM     10  C   UNL     1       4.751   4.045  17.397  0.00  0.00    +0.000 A 
ATOM     11  C   UNL     1       3.520   4.583  17.725  0.00  0.00    +0.000 A 
BRANCH   9  12
ATOM     12  C   UNL     1       7.107   5.075  16.977  0.00  0.00    +0.000 C 
ATOM     13  F   UNL     1       7.378   4.449  15.804  0.00  0.00    +0.000 F 
ATOM     14  F   UNL     1       7.646   6.324  16.884  0.00  0.00    +0.000 F 
ATOM     15  F   UNL     1       7.809   4.428  17.941  0.00  0.00    +0.000 F 
ENDBRANCH   9  12
BRANCH  11  16
ATOM     16  C   UNL     1       2.208   3.919  17.766  0.00  0.00    +0.000 C 
ATOM     17  F   UNL     1       1.192   4.627  17.221  0.00  0.00    +0.000 F 
ATOM     18  F   UNL     1       2.245   2.740  17.092  0.00  0.00    +0.000 F 
ATOM     19  F   UNL     1       1.850   3.623  19.040  0.00  0.00    +0.000 F 
ENDBRANCH  11  16
ENDBRANCH   4   7
BRANCH   1  22
ATOM     20  O   UNL     1       1.397  10.197  22.203  0.00  0.00    +0.000 OA
ATOM     21  C   UNL     1       0.513  10.453  21.390  0.00  0.00    +0.000 C 
ATOM     22  N   UNL     1       0.417   9.930  20.114  0.00  0.00    +0.000 N 
ATOM     23  H   UNL     1      -0.308  10.318  19.515  0.00  0.00    +0.000 HD
BRANCH  21  24
ATOM     24  C   UNL     1      -0.525  11.439  21.795  0.00  0.00    +0.000 A 
ATOM     25  C   UNL     1      -1.299  11.163  22.930  0.00  0.00    +0.000 A 
ATOM     26  C   UNL     1      -2.273  12.067  23.348  0.00  0.00    +0.000 A 
ATOM     27  C   UNL     1      -2.445  13.227  22.610  0.00  0.00    +0.000 A 
ATOM     28  N   UNL     1      -1.730  13.528  21.504  0.00  0.00    +0.000 NA
ATOM     29  C   UNL     1      -0.797  12.628  21.135  0.00  0.00    +0.000 A 
BRANCH  29  30
ATOM     30  O   UNL     1      -0.131  13.024  20.018  0.00  0.00    +0.000 OA
ATOM     31  H   UNL     1       0.307  13.822  20.374  0.00  0.00    +0.000 HD
ENDBRANCH  29  30
ENDBRANCH  21  24
ENDBRANCH   1  22
TORSDOF 6
ENDMDL
MODEL 7
REMARK VINA RESULT:      -8.7      0.173      1.134
REMARK  Name = 
REMARK  6 active torsions:
REMARK  status: ('A' for Active; 'I' for Inactive)
REMARK    1  A    between atoms: C_2  and  C_23
REMARK    2  A    between atoms: N_3  and  C_4
REMARK    3  A    between atoms: C_7  and  N_8
REMARK    4  A    between atoms: C_10  and  C_11
REMARK    5  A    between atoms: C_16  and  C_17
REMARK    6  A    between atoms: C_28  and  O_29
REMARK                            x       y       z     vdW  Elec       q    Type
REMARK                         _______ _______ _______ _____ _____    ______ ____
ROOT
ATOM      1  C   UNL     1       1.374   8.972  19.743  0.00  0.00    +0.000 A 
ATOM      2  C   UNL     1       1.724   7.803  20.418  0.00  0.00    +0.000 A 
ATOM      3  C   UNL     1       2.437   6.795  19.769  0.00  0.00    +0.000 A 
ATOM      4  C   UNL     1       2.846   6.962  18.442  0.00  0.00    +0.000 A 
ATOM      5  C   UNL     1       2.473   8.116  17.745  0.00  0.00    +0.000 A 
ATOM      6  C   UNL     1       1.732   9.111  18.395  0.00  0.00    +0.000 A 
ENDROOT
BRANCH   4   7
ATOM      7  N   UNL     1       3.580   5.915  17.825  0.00  0.00    +0.000 N 
ATOM      8  N   UNL     1       4.800   6.212  17.295  0.00  0.00    +0.000 NA
ATOM      9  C   UNL     1       5.382   5.028  17.039  0.00  0.00    +0.000 A 
ATOM     10  C   UNL     1       4.461   3.977  17.246  0.00  0.00    +0.000 A 
ATOM     11  C   UNL     1       3.293   4.579  17.679  0.00  0.00    +0.000 A 
BRANCH   9  12
ATOM     12  C   UNL     1       6.805   4.888  16.563  0.00  0.00    +0.000 C 
ATOM     13  F   UNL     1       6.929   4.216  15.391  0.00  0.00    +0.000 F 
ATOM     14  F   UNL     1       7.383   6.107  16.376  0.00  0.00    +0.000 F 
ATOM     15  F   UNL     1       7.573   4.237  17.474  0.00  0.00    +0.000 F 
ENDBRANCH   9  12
BRANCH  11  16
ATOM     16  C   UNL     1       1.964   3.977  17.869  0.00  0.00    +0.000 C 
ATOM     17  F   UNL     1       1.534   3.938  19.151  0.00  0.00    +0.000 F 
ATOM     18  F   UNL     1       1.020   4.667  17.180  0.00  0.00    +0.000 F 
ATOM     19  F   UNL     1       1.933   2.705  17.399  0.00  0.00    +0.000 F 
ENDBRANCH  11  16
ENDBRANCH   4   7
BRANCH   1  22
ATOM     20  O   UNL     1      -1.283  10.028  19.054  0.00  0.00    +0.000 OA
ATOM     21  C   UNL     1      -0.587  10.497  19.950  0.00  0.00    +0.000 C 
ATOM     22  N   UNL     1       0.649  10.018  20.343  0.00  0.00    +0.000 N 
ATOM     23  H   UNL     1       1.060  10.441  21.173  0.00  0.00    +0.000 HD
BRANCH  21  24
ATOM     24  C   UNL     1      -1.133  11.656  20.706  0.00  0.00    +0.000 A 
ATOM     25  C   UNL     1      -0.906  11.718  22.087  0.00  0.00    +0.000 A 
ATOM     26  C   UNL     1      -1.391  12.794  22.827  0.00  0.00    +0.000 A 
ATOM     27  C   UNL     1      -2.097  13.780  22.157  0.00  0.00    +0.000 A 
ATOM     28  N   UNL     1      -2.349  13.756  20.830  0.00  0.00    +0.000 NA
ATOM     29  C   UNL     1      -1.860  12.699  20.151  0.00  0.00    +0.000 A 
BRANCH  29  30
ATOM     30  O   UNL     1      -2.162  12.769  18.828  0.00  0.00    +0.000 OA
ATOM     31  H   UNL     1      -2.817  12.045  18.779  0.00  0.00    +0.000 HD
ENDBRANCH  29  30
ENDBRANCH  21  24
ENDBRANCH   1  22
TORSDOF 6
ENDMDL
MODEL 8
REMARK VINA RESULT:      -8.7      0.962      1.718
REMARK  Name = 
REMARK  6 active torsions:
REMARK  status: ('A' for Active; 'I' for Inactive)
REMARK    1  A    between atoms: C_2  and  C_23
REMARK    2  A    between atoms: N_3  and  C_4
REMARK    3  A    between atoms: C_7  and  N_8
REMARK    4  A    between atoms: C_10  and  C_11
REMARK    5  A    between atoms: C_16  and  C_17
REMARK    6  A    between atoms: C_28  and  O_29
REMARK                            x       y       z     vdW  Elec       q    Type
REMARK                         _______ _______ _______ _____ _____    ______ ____
ROOT
ATOM      1  C   UNL     1       1.410   8.855  19.851  0.00  0.00    +0.000 A 
ATOM      2  C   UNL     1       1.769   7.659  20.472  0.00  0.00    +0.000 A 
ATOM      3  C   UNL     1       2.486   6.686  19.776  0.00  0.00    +0.000 A 
ATOM      4  C   UNL     1       2.889   6.915  18.457  0.00  0.00    +0.000 A 
ATOM      5  C   UNL     1       2.506   8.098  17.814  0.00  0.00    +0.000 A 
ATOM      6  C   UNL     1       1.761   9.058  18.510  0.00  0.00    +0.000 A 
ENDROOT
BRANCH   4   7
ATOM      7  N   UNL     1       3.628   5.902  17.790  0.00  0.00    +0.000 N 
ATOM      8  N   UNL     1       4.830   6.237  17.244  0.00  0.00    +0.000 NA
ATOM      9  C   UNL     1       5.427   5.073  16.937  0.00  0.00    +0.000 A 
ATOM     10  C   UNL     1       4.528   4.000  17.130  0.00  0.00    +0.000 A 
ATOM     11  C   UNL     1       3.360   4.567  17.607  0.00  0.00    +0.000 A 
BRANCH   9  12
ATOM     12  C   UNL     1       6.841   4.974  16.427  0.00  0.00    +0.000 C 
ATOM     13  F   UNL     1       6.938   4.463  15.174  0.00  0.00    +0.000 F 
ATOM     14  F   UNL     1       7.440   6.197  16.396  0.00  0.00    +0.000 F 
ATOM     15  F   UNL     1       7.607   4.194  17.231  0.00  0.00    +0.000 F 
ENDBRANCH   9  12
BRANCH  11  16
ATOM     16  C   UNL     1       2.047   3.935  17.806  0.00  0.00    +0.000 C 
ATOM     17  F   UNL     1       1.671   3.796  19.099  0.00  0.00    +0.000 F 
ATOM     18  F   UNL     1       1.067   4.662  17.209  0.00  0.00    +0.000 F 
ATOM     19  F   UNL     1       2.008   2.701  17.244  0.00  0.00    +0.000 F 
ENDBRANCH  11  16
ENDBRANCH   4   7
BRANCH   1  22
ATOM     20  O   UNL     1      -1.201  10.012  19.146  0.00  0.00    +0.000 OA
ATOM     21  C   UNL     1      -0.532  10.400  20.100  0.00  0.00    +0.000 C 
ATOM     22  N   UNL     1       0.680   9.869  20.501  0.00  0.00    +0.000 N 
ATOM     23  H   UNL     1       1.067  10.221  21.374  0.00  0.00    +0.000 HD
BRANCH  21  24
ATOM     24  C   UNL     1      -1.086  11.511  20.919  0.00  0.00    +0.000 A 
ATOM     25  C   UNL     1      -1.846  12.497  20.277  0.00  0.00    +0.000 A 
ATOM     26  C   UNL     1      -2.391  13.547  21.012  0.00  0.00    +0.000 A 
ATOM     27  C   UNL     1      -2.156  13.579  22.376  0.00  0.00    +0.000 A 
ATOM     28  N   UNL     1      -1.421  12.656  23.035  0.00  0.00    +0.000 NA
ATOM     29  C   UNL     1      -0.913  11.656  22.287  0.00  0.00    +0.000 A 
BRANCH  29  30
ATOM     30  O   UNL     1      -0.196  10.781  23.040  0.00  0.00    +0.000 OA
ATOM     31  H   UNL     1       0.579  11.343  23.237  0.00  0.00    +0.000 HD
ENDBRANCH  29  30
ENDBRANCH  21  24
ENDBRANCH   1  22
TORSDOF 6
ENDMDL
MODEL 9
REMARK VINA RESULT:      -8.7      1.075      1.587
REMARK  Name = 
REMARK  6 active torsions:
REMARK  status: ('A' for Active; 'I' for Inactive)
REMARK    1  A    between atoms: C_2  and  C_23
REMARK    2  A    between atoms: N_3  and  C_4
REMARK    3  A    between atoms: C_7  and  N_8
REMARK    4  A    between atoms: C_10  and  C_11
REMARK    5  A    between atoms: C_16  and  C_17
REMARK    6  A    between atoms: C_28  and  O_29
REMARK                            x       y       z     vdW  Elec       q    Type
REMARK                         _______ _______ _______ _____ _____    ______ ____
ROOT
ATOM      1  C   UNL     1       1.218   8.933  19.643  0.00  0.00    +0.000 A 
ATOM      2  C   UNL     1       1.608   7.810  20.374  0.00  0.00    +0.000 A 
ATOM      3  C   UNL     1       2.420   6.835  19.797  0.00  0.00    +0.000 A 
ATOM      4  C   UNL     1       2.889   6.990  18.489  0.00  0.00    +0.000 A 
ATOM      5  C   UNL     1       2.479   8.096  17.735  0.00  0.00    +0.000 A 
ATOM      6  C   UNL     1       1.639   9.056  18.312  0.00  0.00    +0.000 A 
ENDROOT
BRANCH   4   7
ATOM      7  N   UNL     1       3.724   5.978  17.945  0.00  0.00    +0.000 N 
ATOM      8  N   UNL     1       4.978   6.327  17.543  0.00  0.00    +0.000 NA
ATOM      9  C   UNL     1       5.631   5.170  17.343  0.00  0.00    +0.000 A 
ATOM     10  C   UNL     1       4.736   4.082  17.452  0.00  0.00    +0.000 A 
ATOM     11  C   UNL     1       3.507   4.633  17.766  0.00  0.00    +0.000 A 
BRANCH   9  12
ATOM     12  C   UNL     1       7.098   5.090  17.014  0.00  0.00    +0.000 C 
ATOM     13  F   UNL     1       7.356   4.677  15.748  0.00  0.00    +0.000 F 
ATOM     14  F   UNL     1       7.701   6.304  17.157  0.00  0.00    +0.000 F 
ATOM     15  F   UNL     1       7.751   4.240  17.847  0.00  0.00    +0.000 F 
ENDBRANCH   9  12
BRANCH  11  16
ATOM     16  C   UNL     1       2.192   3.976  17.820  0.00  0.00    +0.000 C 
ATOM     17  F   UNL     1       1.736   3.713  19.066  0.00  0.00    +0.000 F 
ATOM     18  F   UNL     1       1.244   4.751  17.232  0.00  0.00    +0.000 F 
ATOM     19  F   UNL     1       2.205   2.802  17.142  0.00  0.00    +0.000 F 
ENDBRANCH  11  16
ENDBRANCH   4   7
BRANCH   1  22
ATOM     20  O   UNL     1       1.265  10.172  22.310  0.00  0.00    +0.000 OA
ATOM     21  C   UNL     1       0.439  10.464  21.450  0.00  0.00    +0.000 C 
ATOM     22  N   UNL     1       0.393   9.944  20.169  0.00  0.00    +0.000 N 
ATOM     23  H   UNL     1      -0.282  10.361  19.531  0.00  0.00    +0.000 HD
BRANCH  21  24
ATOM     24  C   UNL     1      -0.578  11.492  21.798  0.00  0.00    +0.000 A 
ATOM     25  C   UNL     1      -1.337  11.311  22.962  0.00  0.00    +0.000 A 
ATOM     26  C   UNL     1      -2.291  12.258  23.327  0.00  0.00    +0.000 A 
ATOM     27  C   UNL     1      -2.459  13.363  22.510  0.00  0.00    +0.000 A 
ATOM     28  N   UNL     1      -1.758  13.573  21.374  0.00  0.00    +0.000 NA
ATOM     29  C   UNL     1      -0.844  12.634  21.057  0.00  0.00    +0.000 A 
BRANCH  29  30
ATOM     30  O   UNL     1      -0.191  12.938  19.904  0.00  0.00    +0.000 OA
ATOM     31  H   UNL     1       0.712  13.045  20.261  0.00  0.00    +0.000 HD
ENDBRANCH  29  30
ENDBRANCH  21  24
ENDBRANCH   1  22
TORSDOF 6
ENDMDL
