MODEL 1
REMARK VINA RESULT:      -7.7      0.000      0.000
REMARK  Name = 
REMARK  4 active torsions:
REMARK  status: ('A' for Active; 'I' for Inactive)
REMARK    1  A    between atoms: O_1  and  C_2
REMARK    2  A    between atoms: C_4  and  S_5
REMARK    3  A    between atoms: S_5  and  C_6
REMARK    4  A    between atoms: C_6  and  C_7
REMARK                            x       y       z     vdW  Elec       q    Type
REMARK                         _______ _______ _______ _____ _____    ______ ____
ROOT
ATOM      1  C   UNL     1       5.446   4.311  16.236  0.00  0.00    +0.000 A 
ATOM      2  N   UNL     1       4.575   3.354  16.584  0.00  0.00    +0.000 NA
ATOM      3  C   UNL     1       4.448   3.133  17.906  0.00  0.00    +0.000 A 
ATOM      4  N   UNL     1       5.152   3.766  18.857  0.00  0.00    +0.000 NA
ATOM      5  C   UNL     1       6.039   4.720  18.435  0.00  0.00    +0.000 A 
ATOM      6  C   UNL     1       6.198   5.056  17.101  0.00  0.00    +0.000 A 
ATOM      7  C   UNL     1       7.164   6.097  16.615  0.00  0.00    +0.000 C 
ATOM      8  C   UNL     1       7.614   7.033  17.731  0.00  0.00    +0.000 C 
ATOM      9  C   UNL     1       8.020   6.218  18.954  0.00  0.00    +0.000 C 
ATOM     10  C   UNL     1       6.810   5.458  19.505  0.00  0.00    +0.000 C 
ENDROOT
BRANCH   1  11
ATOM     11  O   UNL     1       5.533   4.496  14.890  0.00  0.00    +0.000 OA
ATOM     12  H   UNL     1       5.687   3.586  14.591  0.00  0.00    +0.000 HD
ENDBRANCH   1  11
BRANCH   3  13
ATOM     13  S   UNL     1       3.293   1.828  18.315  0.00  0.00    +0.000 S 
BRANCH  13  14
ATOM     14  C   UNL     1       1.683   2.682  18.476  0.00  0.00    +0.000 C 
BRANCH  14  15
ATOM     15  C   UNL     1       1.839   4.133  18.935  0.00  0.00    +0.000 A 
ATOM     16  C   UNL     1       1.981   5.184  17.996  0.00  0.00    +0.000 A 
ATOM     17  C   UNL     1       2.120   6.523  18.405  0.00  0.00    +0.000 A 
ATOM     18  C   UNL     1       2.123   6.843  19.752  0.00  0.00    +0.000 A 
ATOM     19  C   UNL     1       1.990   5.829  20.696  0.00  0.00    +0.000 A 
ATOM     20  C   UNL     1       1.853   4.495  20.296  0.00  0.00    +0.000 A 
ATOM     21 CL   UNL     1       1.692   3.312  21.550  0.00  0.00    +0.000 Cl
ENDBRANCH  14  15
ENDBRANCH  13  14
ENDBRANCH   3  13
TORSDOF 4
ENDMDL
MODEL 2
REMARK VINA RESULT:      -7.1      3.662      6.355
REMARK  Name = 
REMARK  4 active torsions:
REMARK  status: ('A' for Active; 'I' for Inactive)
REMARK    1  A    between atoms: O_1  and  C_2
REMARK    2  A    between atoms: C_4  and  S_5
REMARK    3  A    between atoms: S_5  and  C_6
REMARK    4  A    between atoms: C_6  and  C_7
REMARK                            x       y       z     vdW  Elec       q    Type
REMARK                         _______ _______ _______ _____ _____    ______ ____
ROOT
ATOM      1  C   UNL     1       3.619   5.712  18.342  0.00  0.00    +0.000 A 
ATOM      2  N   UNL     1       4.804   5.657  17.720  0.00  0.00    +0.000 NA
ATOM      3  C   UNL     1       5.561   4.579  17.999  0.00  0.00    +0.000 A 
ATOM      4  N   UNL     1       5.224   3.614  18.868  0.00  0.00    +0.000 NA
ATOM      5  C   UNL     1       4.008   3.738  19.485  0.00  0.00    +0.000 A 
ATOM      6  C   UNL     1       3.137   4.781  19.220  0.00  0.00    +0.000 A 
ATOM      7  C   UNL     1       1.801   4.938  19.884  0.00  0.00    +0.000 C 
ATOM      8  C   UNL     1       1.318   3.641  20.525  0.00  0.00    +0.000 C 
ATOM      9  C   UNL     1       2.443   3.025  21.350  0.00  0.00    +0.000 C 
ATOM     10  C   UNL     1       3.611   2.635  20.440  0.00  0.00    +0.000 C 
ENDROOT
BRANCH   1  11
ATOM     11  O   UNL     1       2.894   6.819  18.023  0.00  0.00    +0.000 OA
ATOM     12  H   UNL     1       3.602   7.470  17.897  0.00  0.00    +0.000 HD
ENDBRANCH   1  11
BRANCH   3  13
ATOM     13  S   UNL     1       7.144   4.569  17.162  0.00  0.00    +0.000 S 
BRANCH  13  14
ATOM     14  C   UNL     1       6.900   5.667  15.718  0.00  0.00    +0.000 C 
BRANCH  14  15
ATOM     15  C   UNL     1       6.606   4.884  14.438  0.00  0.00    +0.000 A 
ATOM     16  C   UNL     1       5.460   4.057  14.335  0.00  0.00    +0.000 A 
ATOM     17  C   UNL     1       5.175   3.336  13.160  0.00  0.00    +0.000 A 
ATOM     18  C   UNL     1       6.022   3.422  12.069  0.00  0.00    +0.000 A 
ATOM     19  C   UNL     1       7.157   4.224  12.144  0.00  0.00    +0.000 A 
ATOM     20  C   UNL     1       7.447   4.942  13.310  0.00  0.00    +0.000 A 
ATOM     21 CL   UNL     1       8.882   5.911  13.298  0.00  0.00    +0.000 Cl
ENDBRANCH  14  15
ENDBRANCH  13  14
ENDBRANCH   3  13
TORSDOF 4
ENDMDL
MODEL 3
REMARK VINA RESULT:      -7.1      5.486      8.157
REMARK  Name = 
REMARK  4 active torsions:
REMARK  status: ('A' for Active; 'I' for Inactive)
REMARK    1  A    between atoms: O_1  and  C_2
REMARK    2  A    between atoms: C_4  and  S_5
REMARK    3  A    between atoms: S_5  and  C_6
REMARK    4  A    between atoms: C_6  and  C_7
REMARK                            x       y       z     vdW  Elec       q    Type
REMARK                         _______ _______ _______ _____ _____    ______ ____
ROOT
ATOM      1  C   UNL     1       7.751   6.191  18.910  0.00  0.00    +0.000 A 
ATOM      2  N   UNL     1       8.290   7.414  18.801  0.00  0.00    +0.000 NA
ATOM      3  C   UNL     1       7.781   8.192  17.827  0.00  0.00    +0.000 A 
ATOM      4  N   UNL     1       6.827   7.808  16.964  0.00  0.00    +0.000 NA
ATOM      5  C   UNL     1       6.331   6.542  17.117  0.00  0.00    +0.000 A 
ATOM      6  C   UNL     1       6.752   5.689  18.124  0.00  0.00    +0.000 A 
ATOM      7  C   UNL     1       6.224   4.297  18.310  0.00  0.00    +0.000 C 
ATOM      8  C   UNL     1       4.900   4.080  17.585  0.00  0.00    +0.000 C 
ATOM      9  C   UNL     1       5.004   4.604  16.157  0.00  0.00    +0.000 C 
ATOM     10  C   UNL     1       5.234   6.118  16.168  0.00  0.00    +0.000 C 
ENDROOT
BRANCH   1  11
ATOM     11  O   UNL     1       8.300   5.449  19.911  0.00  0.00    +0.000 OA
ATOM     12  H   UNL     1       7.847   5.822  20.684  0.00  0.00    +0.000 HD
ENDBRANCH   1  11
BRANCH   3  13
ATOM     13  S   UNL     1       8.554   9.802  17.708  0.00  0.00    +0.000 S 
BRANCH  13  14
ATOM     14  C   UNL     1       9.275  10.082  19.366  0.00  0.00    +0.000 C 
BRANCH  14  15
ATOM     15  C   UNL     1      10.179  11.314  19.405  0.00  0.00    +0.000 A 
ATOM     16  C   UNL     1      11.106  11.574  18.365  0.00  0.00    +0.000 A 
ATOM     17  C   UNL     1      11.939  12.707  18.387  0.00  0.00    +0.000 A 
ATOM     18  C   UNL     1      11.869  13.603  19.440  0.00  0.00    +0.000 A 
ATOM     19  C   UNL     1      10.970  13.370  20.477  0.00  0.00    +0.000 A 
ATOM     20  C   UNL     1      10.140  12.244  20.462  0.00  0.00    +0.000 A 
ATOM     21 CL   UNL     1       9.057  12.051  21.800  0.00  0.00    +0.000 Cl
ENDBRANCH  14  15
ENDBRANCH  13  14
ENDBRANCH   3  13
TORSDOF 4
ENDMDL
MODEL 4
REMARK VINA RESULT:      -7.1      3.748      6.560
REMARK  Name = 
REMARK  4 active torsions:
REMARK  status: ('A' for Active; 'I' for Inactive)
REMARK    1  A    between atoms: O_1  and  C_2
REMARK    2  A    between atoms: C_4  and  S_5
REMARK    3  A    between atoms: S_5  and  C_6
REMARK    4  A    between atoms: C_6  and  C_7
REMARK                            x       y       z     vdW  Elec       q    Type
REMARK                         _______ _______ _______ _____ _____    ______ ____
ROOT
ATOM      1  C   UNL     1       3.985   3.029  17.901  0.00  0.00    +0.000 A 
ATOM      2  N   UNL     1       4.641   3.830  17.050  0.00  0.00    +0.000 NA
ATOM      3  C   UNL     1       4.436   5.151  17.215  0.00  0.00    +0.000 A 
ATOM      4  N   UNL     1       3.607   5.686  18.125  0.00  0.00    +0.000 NA
ATOM      5  C   UNL     1       2.953   4.814  18.952  0.00  0.00    +0.000 A 
ATOM      6  C   UNL     1       3.143   3.443  18.895  0.00  0.00    +0.000 A 
ATOM      7  C   UNL     1       2.437   2.468  19.790  0.00  0.00    +0.000 C 
ATOM      8  C   UNL     1       1.849   3.139  21.027  0.00  0.00    +0.000 C 
ATOM      9  C   UNL     1       1.085   4.394  20.617  0.00  0.00    +0.000 C 
ATOM     10  C   UNL     1       2.044   5.415  19.999  0.00  0.00    +0.000 C 
ENDROOT
BRANCH   1  11
ATOM     11  O   UNL     1       4.231   1.707  17.692  0.00  0.00    +0.000 OA
ATOM     12  H   UNL     1       4.699   1.740  16.843  0.00  0.00    +0.000 HD
ENDBRANCH   1  11
BRANCH   3  13
ATOM     13  S   UNL     1       5.313   6.174  16.036  0.00  0.00    +0.000 S 
BRANCH  13  14
ATOM     14  C   UNL     1       6.752   5.158  15.540  0.00  0.00    +0.000 C 
BRANCH  14  15
ATOM     15  C   UNL     1       6.596   4.580  14.133  0.00  0.00    +0.000 A 
ATOM     16  C   UNL     1       5.519   3.716  13.813  0.00  0.00    +0.000 A 
ATOM     17  C   UNL     1       5.362   3.183  12.520  0.00  0.00    +0.000 A 
ATOM     18  C   UNL     1       6.269   3.495  11.523  0.00  0.00    +0.000 A 
ATOM     19  C   UNL     1       7.339   4.338  11.810  0.00  0.00    +0.000 A 
ATOM     20  C   UNL     1       7.502   4.871  13.094  0.00  0.00    +0.000 A 
ATOM     21 CL   UNL     1       8.864   5.910  13.345  0.00  0.00    +0.000 Cl
ENDBRANCH  14  15
ENDBRANCH  13  14
ENDBRANCH   3  13
TORSDOF 4
ENDMDL
MODEL 5
REMARK VINA RESULT:      -7.0      3.698      6.440
REMARK  Name = 
REMARK  4 active torsions:
REMARK  status: ('A' for Active; 'I' for Inactive)
REMARK    1  A    between atoms: O_1  and  C_2
REMARK    2  A    between atoms: C_4  and  S_5
REMARK    3  A    between atoms: S_5  and  C_6
REMARK    4  A    between atoms: C_6  and  C_7
REMARK                            x       y       z     vdW  Elec       q    Type
REMARK                         _______ _______ _______ _____ _____    ______ ____
ROOT
ATOM      1  C   UNL     1       1.754   8.947  18.540  0.00  0.00    +0.000 A 
ATOM      2  N   UNL     1       2.311   7.729  18.481  0.00  0.00    +0.000 NA
ATOM      3  C   UNL     1       2.163   6.966  19.581  0.00  0.00    +0.000 A 
ATOM      4  N   UNL     1       1.548   7.360  20.707  0.00  0.00    +0.000 NA
ATOM      5  C   UNL     1       1.016   8.622  20.709  0.00  0.00    +0.000 A 
ATOM      6  C   UNL     1       1.069   9.459  19.607  0.00  0.00    +0.000 A 
ATOM      7  C   UNL     1       0.494  10.845  19.587  0.00  0.00    +0.000 C 
ATOM      8  C   UNL     1      -0.514  11.068  20.709  0.00  0.00    +0.000 C 
ATOM      9  C   UNL     1       0.065  10.569  22.028  0.00  0.00    +0.000 C 
ATOM     10  C   UNL     1       0.294   9.057  21.964  0.00  0.00    +0.000 C 
ENDROOT
BRANCH   1  11
ATOM     11  O   UNL     1       1.930   9.674  17.403  0.00  0.00    +0.000 OA
ATOM     12  H   UNL     1       1.690   9.020  16.729  0.00  0.00    +0.000 HD
ENDBRANCH   1  11
BRANCH   3  13
ATOM     13  S   UNL     1       2.948   5.361  19.460  0.00  0.00    +0.000 S 
BRANCH  13  14
ATOM     14  C   UNL     1       4.734   5.740  19.333  0.00  0.00    +0.000 C 
BRANCH  14  15
ATOM     15  C   UNL     1       5.353   5.190  18.048  0.00  0.00    +0.000 A 
ATOM     16  C   UNL     1       4.539   4.713  16.990  0.00  0.00    +0.000 A 
ATOM     17  C   UNL     1       5.097   4.210  15.801  0.00  0.00    +0.000 A 
ATOM     18  C   UNL     1       6.471   4.168  15.639  0.00  0.00    +0.000 A 
ATOM     19  C   UNL     1       7.295   4.627  16.664  0.00  0.00    +0.000 A 
ATOM     20  C   UNL     1       6.746   5.127  17.850  0.00  0.00    +0.000 A 
ATOM     21 CL   UNL     1       7.859   5.674  19.060  0.00  0.00    +0.000 Cl
ENDBRANCH  14  15
ENDBRANCH  13  14
ENDBRANCH   3  13
TORSDOF 4
ENDMDL
MODEL 6
REMARK VINA RESULT:      -7.0      3.348      6.085
REMARK  Name = 
REMARK  4 active torsions:
REMARK  status: ('A' for Active; 'I' for Inactive)
REMARK    1  A    between atoms: O_1  and  C_2
REMARK    2  A    between atoms: C_4  and  S_5
REMARK    3  A    between atoms: S_5  and  C_6
REMARK    4  A    between atoms: C_6  and  C_7
REMARK                            x       y       z     vdW  Elec       q    Type
REMARK                         _______ _______ _______ _____ _____    ______ ____
ROOT
ATOM      1  C   UNL     1       2.126   8.328  18.366  0.00  0.00    +0.000 A 
ATOM      2  N   UNL     1       2.641   7.092  18.417  0.00  0.00    +0.000 NA
ATOM      3  C   UNL     1       2.457   6.430  19.575  0.00  0.00    +0.000 A 
ATOM      4  N   UNL     1       1.845   6.938  20.656  0.00  0.00    +0.000 NA
ATOM      5  C   UNL     1       1.357   8.212  20.546  0.00  0.00    +0.000 A 
ATOM      6  C   UNL     1       1.449   8.951  19.377  0.00  0.00    +0.000 A 
ATOM      7  C   UNL     1       0.923  10.348  19.234  0.00  0.00    +0.000 C 
ATOM      8  C   UNL     1      -0.087  10.700  20.320  0.00  0.00    +0.000 C 
ATOM      9  C   UNL     1       0.462  10.295  21.684  0.00  0.00    +0.000 C 
ATOM     10  C   UNL     1       0.639   8.776  21.750  0.00  0.00    +0.000 C 
ENDROOT
BRANCH   1  11
ATOM     11  O   UNL     1       2.338   8.950  17.174  0.00  0.00    +0.000 OA
ATOM     12  H   UNL     1       3.077   9.535  17.403  0.00  0.00    +0.000 HD
ENDBRANCH   1  11
BRANCH   3  13
ATOM     13  S   UNL     1       3.187   4.795  19.599  0.00  0.00    +0.000 S 
BRANCH  13  14
ATOM     14  C   UNL     1       4.168   4.715  18.056  0.00  0.00    +0.000 C 
BRANCH  14  15
ATOM     15  C   UNL     1       5.509   5.439  18.183  0.00  0.00    +0.000 A 
ATOM     16  C   UNL     1       6.371   5.193  19.280  0.00  0.00    +0.000 A 
ATOM     17  C   UNL     1       7.610   5.849  19.405  0.00  0.00    +0.000 A 
ATOM     18  C   UNL     1       8.014   6.762  18.446  0.00  0.00    +0.000 A 
ATOM     19  C   UNL     1       7.185   7.025  17.360  0.00  0.00    +0.000 A 
ATOM     20  C   UNL     1       5.951   6.378  17.230  0.00  0.00    +0.000 A 
ATOM     21 CL   UNL     1       4.997   6.776  15.841  0.00  0.00    +0.000 Cl
ENDBRANCH  14  15
ENDBRANCH  13  14
ENDBRANCH   3  13
TORSDOF 4
ENDMDL
MODEL 7
REMARK VINA RESULT:      -7.0      2.570      5.542
REMARK  Name = 
REMARK  4 active torsions:
REMARK  status: ('A' for Active; 'I' for Inactive)
REMARK    1  A    between atoms: O_1  and  C_2
REMARK    2  A    between atoms: C_4  and  S_5
REMARK    3  A    between atoms: S_5  and  C_6
REMARK    4  A    between atoms: C_6  and  C_7
REMARK                            x       y       z     vdW  Elec       q    Type
REMARK                         _______ _______ _______ _____ _____    ______ ____
ROOT
ATOM      1  C   UNL     1       4.396   2.910  19.063  0.00  0.00    +0.000 A 
ATOM      2  N   UNL     1       5.585   3.520  18.961  0.00  0.00    +0.000 NA
ATOM      3  C   UNL     1       5.626   4.795  19.393  0.00  0.00    +0.000 A 
ATOM      4  N   UNL     1       4.570   5.477  19.862  0.00  0.00    +0.000 NA
ATOM      5  C   UNL     1       3.380   4.803  19.923  0.00  0.00    +0.000 A 
ATOM      6  C   UNL     1       3.252   3.474  19.556  0.00  0.00    +0.000 A 
ATOM      7  C   UNL     1       1.959   2.715  19.614  0.00  0.00    +0.000 C 
ATOM      8  C   UNL     1       0.930   3.396  20.510  0.00  0.00    +0.000 C 
ATOM      9  C   UNL     1       0.856   4.881  20.174  0.00  0.00    +0.000 C 
ATOM     10  C   UNL     1       2.195   5.557  20.482  0.00  0.00    +0.000 C 
ENDROOT
BRANCH   1  11
ATOM     11  O   UNL     1       4.411   1.625  18.616  0.00  0.00    +0.000 OA
ATOM     12  H   UNL     1       4.519   1.143  19.452  0.00  0.00    +0.000 HD
ENDBRANCH   1  11
BRANCH   3  13
ATOM     13  S   UNL     1       7.230   5.571  19.209  0.00  0.00    +0.000 S 
BRANCH  13  14
ATOM     14  C   UNL     1       7.060   6.612  17.714  0.00  0.00    +0.000 C 
BRANCH  14  15
ATOM     15  C   UNL     1       6.553   5.819  16.510  0.00  0.00    +0.000 A 
ATOM     16  C   UNL     1       7.409   4.940  15.800  0.00  0.00    +0.000 A 
ATOM     17  C   UNL     1       6.952   4.200  14.694  0.00  0.00    +0.000 A 
ATOM     18  C   UNL     1       5.640   4.320  14.270  0.00  0.00    +0.000 A 
ATOM     19  C   UNL     1       4.778   5.179  14.946  0.00  0.00    +0.000 A 
ATOM     20  C   UNL     1       5.226   5.919  16.046  0.00  0.00    +0.000 A 
ATOM     21 CL   UNL     1       4.073   6.956  16.817  0.00  0.00    +0.000 Cl
ENDBRANCH  14  15
ENDBRANCH  13  14
ENDBRANCH   3  13
TORSDOF 4
ENDMDL
MODEL 8
REMARK VINA RESULT:      -7.0      2.764      5.718
REMARK  Name = 
REMARK  4 active torsions:
REMARK  status: ('A' for Active; 'I' for Inactive)
REMARK    1  A    between atoms: O_1  and  C_2
REMARK    2  A    between atoms: C_4  and  S_5
REMARK    3  A    between atoms: S_5  and  C_6
REMARK    4  A    between atoms: C_6  and  C_7
REMARK                            x       y       z     vdW  Elec       q    Type
REMARK                         _______ _______ _______ _____ _____    ______ ____
ROOT
ATOM      1  C   UNL     1       3.322   5.500  19.764  0.00  0.00    +0.000 A 
ATOM      2  N   UNL     1       4.612   5.864  19.728  0.00  0.00    +0.000 NA
ATOM      3  C   UNL     1       5.471   4.926  19.286  0.00  0.00    +0.000 A 
ATOM      4  N   UNL     1       5.124   3.678  18.934  0.00  0.00    +0.000 NA
ATOM      5  C   UNL     1       3.795   3.363  19.011  0.00  0.00    +0.000 A 
ATOM      6  C   UNL     1       2.830   4.278  19.399  0.00  0.00    +0.000 A 
ATOM      7  C   UNL     1       1.367   3.955  19.492  0.00  0.00    +0.000 C 
ATOM      8  C   UNL     1       1.003   2.697  18.712  0.00  0.00    +0.000 C 
ATOM      9  C   UNL     1       1.988   1.582  19.044  0.00  0.00    +0.000 C 
ATOM     10  C   UNL     1       3.396   1.969  18.583  0.00  0.00    +0.000 C 
ENDROOT
BRANCH   1  11
ATOM     11  O   UNL     1       2.498   6.485  20.215  0.00  0.00    +0.000 OA
ATOM     12  H   UNL     1       2.505   7.089  19.456  0.00  0.00    +0.000 HD
ENDBRANCH   1  11
BRANCH   3  13
ATOM     13  S   UNL     1       7.182   5.455  19.283  0.00  0.00    +0.000 S 
BRANCH  13  14
ATOM     14  C   UNL     1       7.350   6.433  17.746  0.00  0.00    +0.000 C 
BRANCH  14  15
ATOM     15  C   UNL     1       6.732   5.728  16.539  0.00  0.00    +0.000 A 
ATOM     16  C   UNL     1       7.423   4.691  15.865  0.00  0.00    +0.000 A 
ATOM     17  C   UNL     1       6.862   4.031  14.756  0.00  0.00    +0.000 A 
ATOM     18  C   UNL     1       5.607   4.387  14.295  0.00  0.00    +0.000 A 
ATOM     19  C   UNL     1       4.907   5.405  14.936  0.00  0.00    +0.000 A 
ATOM     20  C   UNL     1       5.459   6.067  16.038  0.00  0.00    +0.000 A 
ATOM     21 CL   UNL     1       4.504   7.316  16.764  0.00  0.00    +0.000 Cl
ENDBRANCH  14  15
ENDBRANCH  13  14
ENDBRANCH   3  13
TORSDOF 4
ENDMDL
MODEL 9
REMARK VINA RESULT:      -6.9      5.822      8.208
REMARK  Name = 
REMARK  4 active torsions:
REMARK  status: ('A' for Active; 'I' for Inactive)
REMARK    1  A    between atoms: O_1  and  C_2
REMARK    2  A    between atoms: C_4  and  S_5
REMARK    3  A    between atoms: S_5  and  C_6
REMARK    4  A    between atoms: C_6  and  C_7
REMARK                            x       y       z     vdW  Elec       q    Type
REMARK                         _______ _______ _______ _____ _____    ______ ____
ROOT
ATOM      1  C   UNL     1       7.859   6.257  18.802  0.00  0.00    +0.000 A 
ATOM      2  N   UNL     1       8.375   7.493  18.831  0.00  0.00    +0.000 NA
ATOM      3  C   UNL     1       7.864   8.360  17.935  0.00  0.00    +0.000 A 
ATOM      4  N   UNL     1       6.931   8.051  17.021  0.00  0.00    +0.000 NA
ATOM      5  C   UNL     1       6.459   6.767  17.032  0.00  0.00    +0.000 A 
ATOM      6  C   UNL     1       6.882   5.821  17.951  0.00  0.00    +0.000 A 
ATOM      7  C   UNL     1       6.380   4.407  17.981  0.00  0.00    +0.000 C 
ATOM      8  C   UNL     1       5.072   4.242  17.214  0.00  0.00    +0.000 C 
ATOM      9  C   UNL     1       5.186   4.916  15.851  0.00  0.00    +0.000 C 
ATOM     10  C   UNL     1       5.385   6.424  16.024  0.00  0.00    +0.000 C 
ENDROOT
BRANCH   1  11
ATOM     11  O   UNL     1       8.408   5.424  19.728  0.00  0.00    +0.000 OA
ATOM     12  H   UNL     1       9.231   5.171  19.281  0.00  0.00    +0.000 HD
ENDBRANCH   1  11
BRANCH   3  13
ATOM     13  S   UNL     1       8.605   9.988  17.999  0.00  0.00    +0.000 S 
BRANCH  13  14
ATOM     14  C   UNL     1       9.516  10.010  19.586  0.00  0.00    +0.000 C 
BRANCH  14  15
ATOM     15  C   UNL     1       9.837  11.430  20.051  0.00  0.00    +0.000 A 
ATOM     16  C   UNL     1       9.160  12.008  21.153  0.00  0.00    +0.000 A 
ATOM     17  C   UNL     1       9.451  13.312  21.595  0.00  0.00    +0.000 A 
ATOM     18  C   UNL     1      10.416  14.067  20.951  0.00  0.00    +0.000 A 
ATOM     19  C   UNL     1      11.094  13.525  19.862  0.00  0.00    +0.000 A 
ATOM     20  C   UNL     1      10.808  12.229  19.417  0.00  0.00    +0.000 A 
ATOM     21 CL   UNL     1      11.711  11.650  18.057  0.00  0.00    +0.000 Cl
ENDBRANCH  14  15
ENDBRANCH  13  14
ENDBRANCH   3  13
TORSDOF 4
ENDMDL
