MODEL 1
REMARK VINA RESULT:      -7.9      0.000      0.000
REMARK  Name = 
REMARK  4 active torsions:
REMARK  status: ('A' for Active; 'I' for Inactive)
REMARK    1  A    between atoms: C_2  and  C_5
REMARK    2  A    between atoms: N_3  and  O_4
REMARK    3  A    between atoms: C_8  and  C_9
REMARK    4  A    between atoms: C_9  and  N_10
REMARK                            x       y       z     vdW  Elec       q    Type
REMARK                         _______ _______ _______ _____ _____    ______ ____
ROOT
ATOM      1  N   UNL     1       3.404   5.510  18.638  0.00  0.00    +0.000 N 
ATOM      2  C   UNL     1       2.547   4.493  19.118  0.00  0.00    +0.000 A 
ATOM      3  C   UNL     1       2.045   4.474  20.433  0.00  0.00    +0.000 A 
ATOM      4  C   UNL     1       1.124   3.515  20.870  0.00  0.00    +0.000 A 
ATOM      5  C   UNL     1       0.646   2.559  19.989  0.00  0.00    +0.000 A 
ATOM      6  C   UNL     1       1.178   2.494  18.707  0.00  0.00    +0.000 A 
ATOM      7  C   UNL     1       2.171   3.405  18.299  0.00  0.00    +0.000 A 
ATOM      8  S   UNL     1       3.002   3.028  16.763  0.00  0.00    +0.000 S 
ATOM      9  C   UNL     1       4.392   4.130  16.862  0.00  0.00    +0.000 A 
ATOM     10  N   UNL     1       5.500   3.764  16.160  0.00  0.00    +0.000 NA
ATOM     11  C   UNL     1       6.478   4.689  16.090  0.00  0.00    +0.000 A 
ATOM     12  C   UNL     1       6.309   5.966  16.578  0.00  0.00    +0.000 A 
ATOM     13  N   UNL     1       5.240   6.312  17.317  0.00  0.00    +0.000 NA
ATOM     14  C   UNL     1       4.316   5.344  17.564  0.00  0.00    +0.000 A 
ENDROOT
BRANCH   1  15
ATOM     15  C   UNL     1       3.616   6.753  19.404  0.00  0.00    +0.000 C 
BRANCH  15  19
ATOM     16  C   UNL     1       0.528   9.681  18.666  0.00  0.00    +0.000 A 
ATOM     17  C   UNL     1       0.748   9.201  19.962  0.00  0.00    +0.000 A 
ATOM     18  C   UNL     1       1.739   8.247  20.194  0.00  0.00    +0.000 A 
ATOM     19  C   UNL     1       2.525   7.772  19.142  0.00  0.00    +0.000 A 
ATOM     20  C   UNL     1       2.309   8.271  17.843  0.00  0.00    +0.000 A 
ATOM     21  C   UNL     1       1.315   9.226  17.607  0.00  0.00    +0.000 A 
BRANCH  16  23
ATOM     22  O   UNL     1      -1.738  10.368  18.646  0.00  0.00    +0.000 OA
ATOM     23  C   UNL     1      -0.561  10.669  18.470  0.00  0.00    +0.000 C 
ATOM     24  N   UNL     1      -0.188  11.913  18.008  0.00  0.00    +0.000 N 
ATOM     25  H   UNL     1       0.678  12.050  17.498  0.00  0.00    +0.000 HD
BRANCH  24  26
ATOM     26  O   UNL     1      -1.274  12.736  17.616  0.00  0.00    +0.000 OA
ATOM     27  H   UNL     1      -2.022  12.096  17.604  0.00  0.00    +0.000 HD
ENDBRANCH  24  26
ENDBRANCH  16  23
ENDBRANCH  15  19
ENDBRANCH   1  15
TORSDOF 4
ENDMDL
MODEL 2
REMARK VINA RESULT:      -7.7      2.293      4.340
REMARK  Name = 
REMARK  4 active torsions:
REMARK  status: ('A' for Active; 'I' for Inactive)
REMARK    1  A    between atoms: C_2  and  C_5
REMARK    2  A    between atoms: N_3  and  O_4
REMARK    3  A    between atoms: C_8  and  C_9
REMARK    4  A    between atoms: C_9  and  N_10
REMARK                            x       y       z     vdW  Elec       q    Type
REMARK                         _______ _______ _______ _____ _____    ______ ____
ROOT
ATOM      1  N   UNL     1       3.611   5.789  18.145  0.00  0.00    +0.000 N 
ATOM      2  C   UNL     1       5.001   6.048  18.127  0.00  0.00    +0.000 A 
ATOM      3  C   UNL     1       5.579   7.056  17.334  0.00  0.00    +0.000 A 
ATOM      4  C   UNL     1       6.943   7.366  17.393  0.00  0.00    +0.000 A 
ATOM      5  C   UNL     1       7.770   6.696  18.281  0.00  0.00    +0.000 A 
ATOM      6  C   UNL     1       7.253   5.640  19.021  0.00  0.00    +0.000 A 
ATOM      7  C   UNL     1       5.900   5.271  18.892  0.00  0.00    +0.000 A 
ATOM      8  S   UNL     1       5.434   3.717  19.637  0.00  0.00    +0.000 S 
ATOM      9  C   UNL     1       3.843   3.458  18.890  0.00  0.00    +0.000 A 
ATOM     10  N   UNL     1       3.425   2.166  18.797  0.00  0.00    +0.000 NA
ATOM     11  C   UNL     1       2.148   1.992  18.402  0.00  0.00    +0.000 A 
ATOM     12  C   UNL     1       1.285   3.053  18.237  0.00  0.00    +0.000 A 
ATOM     13  N   UNL     1       1.709   4.329  18.275  0.00  0.00    +0.000 NA
ATOM     14  C   UNL     1       3.037   4.537  18.490  0.00  0.00    +0.000 A 
ENDROOT
BRANCH   1  15
ATOM     15  C   UNL     1       2.651   6.727  17.534  0.00  0.00    +0.000 C 
BRANCH  15  19
ATOM     16  C   UNL     1       1.094   9.558  20.400  0.00  0.00    +0.000 A 
ATOM     17  C   UNL     1       1.162   9.895  19.044  0.00  0.00    +0.000 A 
ATOM     18  C   UNL     1       1.677   8.982  18.123  0.00  0.00    +0.000 A 
ATOM     19  C   UNL     1       2.116   7.725  18.542  0.00  0.00    +0.000 A 
ATOM     20  C   UNL     1       2.028   7.386  19.906  0.00  0.00    +0.000 A 
ATOM     21  C   UNL     1       1.516   8.300  20.832  0.00  0.00    +0.000 A 
BRANCH  16  23
ATOM     22  O   UNL     1       0.917  11.755  21.267  0.00  0.00    +0.000 OA
ATOM     23  C   UNL     1       0.570  10.579  21.340  0.00  0.00    +0.000 C 
ATOM     24  N   UNL     1      -0.262  10.125  22.341  0.00  0.00    +0.000 N 
ATOM     25  H   UNL     1      -0.240   9.159  22.650  0.00  0.00    +0.000 HD
BRANCH  24  26
ATOM     26  O   UNL     1      -0.543  11.088  23.343  0.00  0.00    +0.000 OA
ATOM     27  H   UNL     1       0.329  11.532  23.450  0.00  0.00    +0.000 HD
ENDBRANCH  24  26
ENDBRANCH  16  23
ENDBRANCH  15  19
ENDBRANCH   1  15
TORSDOF 4
ENDMDL
MODEL 3
REMARK VINA RESULT:      -7.3      2.282      4.210
REMARK  Name = 
REMARK  4 active torsions:
REMARK  status: ('A' for Active; 'I' for Inactive)
REMARK    1  A    between atoms: C_2  and  C_5
REMARK    2  A    between atoms: N_3  and  O_4
REMARK    3  A    between atoms: C_8  and  C_9
REMARK    4  A    between atoms: C_9  and  N_10
REMARK                            x       y       z     vdW  Elec       q    Type
REMARK                         _______ _______ _______ _____ _____    ______ ____
ROOT
ATOM      1  N   UNL     1       3.367   5.672  18.254  0.00  0.00    +0.000 N 
ATOM      2  C   UNL     1       4.754   5.921  18.137  0.00  0.00    +0.000 A 
ATOM      3  C   UNL     1       5.281   6.928  17.309  0.00  0.00    +0.000 A 
ATOM      4  C   UNL     1       6.648   7.228  17.270  0.00  0.00    +0.000 A 
ATOM      5  C   UNL     1       7.532   6.549  18.092  0.00  0.00    +0.000 A 
ATOM      6  C   UNL     1       7.062   5.492  18.864  0.00  0.00    +0.000 A 
ATOM      7  C   UNL     1       5.701   5.134  18.831  0.00  0.00    +0.000 A 
ATOM      8  S   UNL     1       5.277   3.580  19.602  0.00  0.00    +0.000 S 
ATOM      9  C   UNL     1       3.635   3.336  18.970  0.00  0.00    +0.000 A 
ATOM     10  N   UNL     1       3.201   2.047  18.903  0.00  0.00    +0.000 NA
ATOM     11  C   UNL     1       1.898   1.885  18.600  0.00  0.00    +0.000 A 
ATOM     12  C   UNL     1       1.034   2.953  18.502  0.00  0.00    +0.000 A 
ATOM     13  N   UNL     1       1.468   4.226  18.515  0.00  0.00    +0.000 NA
ATOM     14  C   UNL     1       2.811   4.423  18.634  0.00  0.00    +0.000 A 
ENDROOT
BRANCH   1  15
ATOM     15  C   UNL     1       2.373   6.620  17.718  0.00  0.00    +0.000 C 
BRANCH  15  19
ATOM     16  C   UNL     1       1.102   9.462  20.713  0.00  0.00    +0.000 A 
ATOM     17  C   UNL     1       1.491   8.171  21.087  0.00  0.00    +0.000 A 
ATOM     18  C   UNL     1       1.890   7.252  20.115  0.00  0.00    +0.000 A 
ATOM     19  C   UNL     1       1.916   7.614  18.768  0.00  0.00    +0.000 A 
ATOM     20  C   UNL     1       1.539   8.920  18.399  0.00  0.00    +0.000 A 
ATOM     21  C   UNL     1       1.137   9.842  19.370  0.00  0.00    +0.000 A 
BRANCH  16  23
ATOM     22  O   UNL     1       0.555  10.017  22.949  0.00  0.00    +0.000 OA
ATOM     23  C   UNL     1       0.655  10.387  21.782  0.00  0.00    +0.000 C 
ATOM     24  N   UNL     1       0.286  11.655  21.386  0.00  0.00    +0.000 N 
ATOM     25  H   UNL     1      -0.010  11.846  20.434  0.00  0.00    +0.000 HD
BRANCH  24  26
ATOM     26  O   UNL     1      -0.351  12.417  22.397  0.00  0.00    +0.000 OA
ATOM     27  H   UNL     1      -0.853  13.078  21.869  0.00  0.00    +0.000 HD
ENDBRANCH  24  26
ENDBRANCH  16  23
ENDBRANCH  15  19
ENDBRANCH   1  15
TORSDOF 4
ENDMDL
MODEL 4
REMARK VINA RESULT:      -6.9      6.884     11.304
REMARK  Name = 
REMARK  4 active torsions:
REMARK  status: ('A' for Active; 'I' for Inactive)
REMARK    1  A    between atoms: C_2  and  C_5
REMARK    2  A    between atoms: N_3  and  O_4
REMARK    3  A    between atoms: C_8  and  C_9
REMARK    4  A    between atoms: C_9  and  N_10
REMARK                            x       y       z     vdW  Elec       q    Type
REMARK                         _______ _______ _______ _____ _____    ______ ____
ROOT
ATOM      1  N   UNL     1      -4.836  13.247  21.286  0.00  0.00    +0.000 N 
ATOM      2  C   UNL     1      -5.542  12.383  20.418  0.00  0.00    +0.000 A 
ATOM      3  C   UNL     1      -5.098  12.075  19.119  0.00  0.00    +0.000 A 
ATOM      4  C   UNL     1      -5.754  11.146  18.303  0.00  0.00    +0.000 A 
ATOM      5  C   UNL     1      -6.863  10.464  18.778  0.00  0.00    +0.000 A 
ATOM      6  C   UNL     1      -7.380  10.799  20.024  0.00  0.00    +0.000 A 
ATOM      7  C   UNL     1      -6.770  11.800  20.805  0.00  0.00    +0.000 A 
ATOM      8  S   UNL     1      -7.697  12.365  22.224  0.00  0.00    +0.000 S 
ATOM      9  C   UNL     1      -6.804  13.845  22.631  0.00  0.00    +0.000 A 
ATOM     10  N   UNL     1      -7.503  14.805  23.297  0.00  0.00    +0.000 NA
ATOM     11  C   UNL     1      -6.776  15.840  23.763  0.00  0.00    +0.000 A 
ATOM     12  C   UNL     1      -5.400  15.856  23.689  0.00  0.00    +0.000 A 
ATOM     13  N   UNL     1      -4.713  14.938  22.986  0.00  0.00    +0.000 NA
ATOM     14  C   UNL     1      -5.435  13.978  22.345  0.00  0.00    +0.000 A 
ENDROOT
BRANCH   1  15
ATOM     15  C   UNL     1      -3.458  13.676  20.982  0.00  0.00    +0.000 C 
BRANCH  15  19
ATOM     16  C   UNL     1      -0.538  10.669  22.028  0.00  0.00    +0.000 A 
ATOM     17  C   UNL     1      -0.661  11.100  20.703  0.00  0.00    +0.000 A 
ATOM     18  C   UNL     1      -1.614  12.063  20.367  0.00  0.00    +0.000 A 
ATOM     19  C   UNL     1      -2.442  12.612  21.347  0.00  0.00    +0.000 A 
ATOM     20  C   UNL     1      -2.302  12.186  22.683  0.00  0.00    +0.000 A 
ATOM     21  C   UNL     1      -1.350  11.219  23.022  0.00  0.00    +0.000 A 
BRANCH  16  23
ATOM     22  O   UNL     1       1.076   9.598  23.390  0.00  0.00    +0.000 OA
ATOM     23  C   UNL     1       0.466   9.619  22.324  0.00  0.00    +0.000 C 
ATOM     24  N   UNL     1       0.733   8.719  21.314  0.00  0.00    +0.000 N 
ATOM     25  H   UNL     1       0.552   8.947  20.341  0.00  0.00    +0.000 HD
BRANCH  24  26
ATOM     26  O   UNL     1       1.857   7.890  21.557  0.00  0.00    +0.000 OA
ATOM     27  H   UNL     1       2.605   8.498  21.359  0.00  0.00    +0.000 HD
ENDBRANCH  24  26
ENDBRANCH  16  23
ENDBRANCH  15  19
ENDBRANCH   1  15
TORSDOF 4
ENDMDL
MODEL 5
REMARK VINA RESULT:      -6.8      1.110      3.710
REMARK  Name = 
REMARK  4 active torsions:
REMARK  status: ('A' for Active; 'I' for Inactive)
REMARK    1  A    between atoms: C_2  and  C_5
REMARK    2  A    between atoms: N_3  and  O_4
REMARK    3  A    between atoms: C_8  and  C_9
REMARK    4  A    between atoms: C_9  and  N_10
REMARK                            x       y       z     vdW  Elec       q    Type
REMARK                         _______ _______ _______ _____ _____    ______ ____
ROOT
ATOM      1  N   UNL     1       3.619   5.263  18.697  0.00  0.00    +0.000 N 
ATOM      2  C   UNL     1       4.258   5.271  17.436  0.00  0.00    +0.000 A 
ATOM      3  C   UNL     1       4.774   6.440  16.848  0.00  0.00    +0.000 A 
ATOM      4  C   UNL     1       5.486   6.423  15.643  0.00  0.00    +0.000 A 
ATOM      5  C   UNL     1       5.738   5.220  15.002  0.00  0.00    +0.000 A 
ATOM      6  C   UNL     1       5.176   4.054  15.508  0.00  0.00    +0.000 A 
ATOM      7  C   UNL     1       4.383   4.089  16.671  0.00  0.00    +0.000 A 
ATOM      8  S   UNL     1       3.460   2.605  17.039  0.00  0.00    +0.000 S 
ATOM      9  C   UNL     1       2.329   3.217  18.265  0.00  0.00    +0.000 A 
ATOM     10  N   UNL     1       1.155   2.540  18.391  0.00  0.00    +0.000 NA
ATOM     11  C   UNL     1       0.387   2.893  19.442  0.00  0.00    +0.000 A 
ATOM     12  C   UNL     1       0.826   3.781  20.399  0.00  0.00    +0.000 A 
ATOM     13  N   UNL     1       1.960   4.489  20.249  0.00  0.00    +0.000 NA
ATOM     14  C   UNL     1       2.669   4.291  19.104  0.00  0.00    +0.000 A 
ENDROOT
BRANCH   1  15
ATOM     15  C   UNL     1       3.684   6.433  19.592  0.00  0.00    +0.000 C 
BRANCH  15  19
ATOM     16  C   UNL     1       0.660   9.375  18.662  0.00  0.00    +0.000 A 
ATOM     17  C   UNL     1       0.830   8.932  19.978  0.00  0.00    +0.000 A 
ATOM     18  C   UNL     1       1.800   7.973  20.273  0.00  0.00    +0.000 A 
ATOM     19  C   UNL     1       2.615   7.457  19.264  0.00  0.00    +0.000 A 
ATOM     20  C   UNL     1       2.450   7.919  17.943  0.00  0.00    +0.000 A 
ATOM     21  C   UNL     1       1.477   8.878  17.645  0.00  0.00    +0.000 A 
BRANCH  16  23
ATOM     22  O   UNL     1      -1.595  10.059  18.438  0.00  0.00    +0.000 OA
ATOM     23  C   UNL     1      -0.408  10.370  18.400  0.00  0.00    +0.000 C 
ATOM     24  N   UNL     1       0.003  11.634  18.038  0.00  0.00    +0.000 N 
ATOM     25  H   UNL     1       0.918  11.796  17.627  0.00  0.00    +0.000 HD
BRANCH  24  26
ATOM     26  O   UNL     1      -1.041  12.474  17.573  0.00  0.00    +0.000 OA
ATOM     27  H   UNL     1      -1.233  12.089  16.687  0.00  0.00    +0.000 HD
ENDBRANCH  24  26
ENDBRANCH  16  23
ENDBRANCH  15  19
ENDBRANCH   1  15
TORSDOF 4
ENDMDL
MODEL 6
REMARK VINA RESULT:      -6.6      4.296      7.901
REMARK  Name = 
REMARK  4 active torsions:
REMARK  status: ('A' for Active; 'I' for Inactive)
REMARK    1  A    between atoms: C_2  and  C_5
REMARK    2  A    between atoms: N_3  and  O_4
REMARK    3  A    between atoms: C_8  and  C_9
REMARK    4  A    between atoms: C_9  and  N_10
REMARK                            x       y       z     vdW  Elec       q    Type
REMARK                         _______ _______ _______ _____ _____    ______ ____
ROOT
ATOM      1  N   UNL     1       0.360  10.976  18.732  0.00  0.00    +0.000 N 
ATOM      2  C   UNL     1      -0.941  10.691  18.255  0.00  0.00    +0.000 A 
ATOM      3  C   UNL     1      -1.179   9.990  17.059  0.00  0.00    +0.000 A 
ATOM      4  C   UNL     1      -2.467   9.632  16.644  0.00  0.00    +0.000 A 
ATOM      5  C   UNL     1      -3.562   9.935  17.437  0.00  0.00    +0.000 A 
ATOM      6  C   UNL     1      -3.376  10.698  18.584  0.00  0.00    +0.000 A 
ATOM      7  C   UNL     1      -2.089  11.134  18.950  0.00  0.00    +0.000 A 
ATOM      8  S   UNL     1      -2.013  12.362  20.245  0.00  0.00    +0.000 S 
ATOM      9  C   UNL     1      -0.332  12.911  20.080  0.00  0.00    +0.000 A 
ATOM     10  N   UNL     1      -0.065  14.172  20.517  0.00  0.00    +0.000 NA
ATOM     11  C   UNL     1       1.239  14.512  20.561  0.00  0.00    +0.000 A 
ATOM     12  C   UNL     1       2.239  13.598  20.310  0.00  0.00    +0.000 A 
ATOM     13  N   UNL     1       1.978  12.370  19.827  0.00  0.00    +0.000 NA
ATOM     14  C   UNL     1       0.673  12.057  19.596  0.00  0.00    +0.000 A 
ENDROOT
BRANCH   1  15
ATOM     15  C   UNL     1       1.547  10.331  18.142  0.00  0.00    +0.000 C 
BRANCH  15  19
ATOM     16  C   UNL     1       2.201   6.364  19.720  0.00  0.00    +0.000 A 
ATOM     17  C   UNL     1       2.527   6.655  18.391  0.00  0.00    +0.000 A 
ATOM     18  C   UNL     1       2.304   7.935  17.882  0.00  0.00    +0.000 A 
ATOM     19  C   UNL     1       1.766   8.936  18.693  0.00  0.00    +0.000 A 
ATOM     20  C   UNL     1       1.455   8.640  20.034  0.00  0.00    +0.000 A 
ATOM     21  C   UNL     1       1.675   7.358  20.547  0.00  0.00    +0.000 A 
BRANCH  16  23
ATOM     22  O   UNL     1       2.714   4.071  19.424  0.00  0.00    +0.000 OA
ATOM     23  C   UNL     1       2.427   4.979  20.200  0.00  0.00    +0.000 C 
ATOM     24  N   UNL     1       2.224   4.752  21.544  0.00  0.00    +0.000 N 
ATOM     25  H   UNL     1       1.628   5.358  22.099  0.00  0.00    +0.000 HD
BRANCH  24  26
ATOM     26  O   UNL     1       2.223   3.381  21.908  0.00  0.00    +0.000 OA
ATOM     27  H   UNL     1       1.260   3.191  21.984  0.00  0.00    +0.000 HD
ENDBRANCH  24  26
ENDBRANCH  16  23
ENDBRANCH  15  19
ENDBRANCH   1  15
TORSDOF 4
ENDMDL
MODEL 7
REMARK VINA RESULT:      -6.5      4.414      8.763
REMARK  Name = 
REMARK  4 active torsions:
REMARK  status: ('A' for Active; 'I' for Inactive)
REMARK    1  A    between atoms: C_2  and  C_5
REMARK    2  A    between atoms: N_3  and  O_4
REMARK    3  A    between atoms: C_8  and  C_9
REMARK    4  A    between atoms: C_9  and  N_10
REMARK                            x       y       z     vdW  Elec       q    Type
REMARK                         _______ _______ _______ _____ _____    ______ ____
ROOT
ATOM      1  N   UNL     1      -0.743  12.135  19.273  0.00  0.00    +0.000 N 
ATOM      2  C   UNL     1      -1.872  11.794  18.491  0.00  0.00    +0.000 A 
ATOM      3  C   UNL     1      -1.779  11.431  17.135  0.00  0.00    +0.000 A 
ATOM      4  C   UNL     1      -2.889  11.006  16.396  0.00  0.00    +0.000 A 
ATOM      5  C   UNL     1      -4.129  10.895  17.005  0.00  0.00    +0.000 A 
ATOM      6  C   UNL     1      -4.277  11.322  18.320  0.00  0.00    +0.000 A 
ATOM      7  C   UNL     1      -3.177  11.835  19.033  0.00  0.00    +0.000 A 
ATOM      8  S   UNL     1      -3.549  12.642  20.582  0.00  0.00    +0.000 S 
ATOM      9  C   UNL     1      -2.012  13.474  20.897  0.00  0.00    +0.000 A 
ATOM     10  N   UNL     1      -2.079  14.586  21.679  0.00  0.00    +0.000 NA
ATOM     11  C   UNL     1      -0.895  15.102  22.065  0.00  0.00    +0.000 A 
ATOM     12  C   UNL     1       0.298  14.466  21.798  0.00  0.00    +0.000 A 
ATOM     13  N   UNL     1       0.371  13.400  20.981  0.00  0.00    +0.000 NA
ATOM     14  C   UNL     1      -0.791  12.963  20.424  0.00  0.00    +0.000 A 
ENDROOT
BRANCH   1  15
ATOM     15  C   UNL     1       0.626  11.880  18.789  0.00  0.00    +0.000 C 
BRANCH  15  19
ATOM     16  C   UNL     1       1.882   7.810  19.508  0.00  0.00    +0.000 A 
ATOM     17  C   UNL     1       2.129   8.414  18.270  0.00  0.00    +0.000 A 
ATOM     18  C   UNL     1       1.711   9.725  18.038  0.00  0.00    +0.000 A 
ATOM     19  C   UNL     1       1.056  10.447  19.037  0.00  0.00    +0.000 A 
ATOM     20  C   UNL     1       0.826   9.839  20.286  0.00  0.00    +0.000 A 
ATOM     21  C   UNL     1       1.241   8.524  20.521  0.00  0.00    +0.000 A 
BRANCH  16  23
ATOM     22  O   UNL     1       2.680   5.718  18.737  0.00  0.00    +0.000 OA
ATOM     23  C   UNL     1       2.317   6.403  19.689  0.00  0.00    +0.000 C 
ATOM     24  N   UNL     1       2.219   5.888  20.963  0.00  0.00    +0.000 N 
ATOM     25  H   UNL     1       1.578   6.281  21.645  0.00  0.00    +0.000 HD
BRANCH  24  26
ATOM     26  O   UNL     1       2.420   4.486  21.040  0.00  0.00    +0.000 OA
ATOM     27  H   UNL     1       2.790   4.382  21.945  0.00  0.00    +0.000 HD
ENDBRANCH  24  26
ENDBRANCH  16  23
ENDBRANCH  15  19
ENDBRANCH   1  15
TORSDOF 4
ENDMDL
MODEL 8
REMARK VINA RESULT:      -6.3      4.515      8.897
REMARK  Name = 
REMARK  4 active torsions:
REMARK  status: ('A' for Active; 'I' for Inactive)
REMARK    1  A    between atoms: C_2  and  C_5
REMARK    2  A    between atoms: N_3  and  O_4
REMARK    3  A    between atoms: C_8  and  C_9
REMARK    4  A    between atoms: C_9  and  N_10
REMARK                            x       y       z     vdW  Elec       q    Type
REMARK                         _______ _______ _______ _____ _____    ______ ____
ROOT
ATOM      1  N   UNL     1      -1.030  12.370  19.383  0.00  0.00    +0.000 N 
ATOM      2  C   UNL     1      -2.041  11.905  18.510  0.00  0.00    +0.000 A 
ATOM      3  C   UNL     1      -1.788  11.536  17.177  0.00  0.00    +0.000 A 
ATOM      4  C   UNL     1      -2.776  10.989  16.350  0.00  0.00    +0.000 A 
ATOM      5  C   UNL     1      -4.049  10.760  16.846  0.00  0.00    +0.000 A 
ATOM      6  C   UNL     1      -4.360  11.187  18.132  0.00  0.00    +0.000 A 
ATOM      7  C   UNL     1      -3.388  11.820  18.930  0.00  0.00    +0.000 A 
ATOM      8  S   UNL     1      -3.982  12.605  20.420  0.00  0.00    +0.000 S 
ATOM      9  C   UNL     1      -2.572  13.594  20.854  0.00  0.00    +0.000 A 
ATOM     10  N   UNL     1      -2.823  14.704  21.602  0.00  0.00    +0.000 NA
ATOM     11  C   UNL     1      -1.737  15.343  22.081  0.00  0.00    +0.000 A 
ATOM     12  C   UNL     1      -0.467  14.830  21.938  0.00  0.00    +0.000 A 
ATOM     13  N   UNL     1      -0.211  13.766  21.157  0.00  0.00    +0.000 NA
ATOM     14  C   UNL     1      -1.268  13.204  20.506  0.00  0.00    +0.000 A 
ENDROOT
BRANCH   1  15
ATOM     15  C   UNL     1       0.397  12.250  19.031  0.00  0.00    +0.000 C 
BRANCH  15  19
ATOM     16  C   UNL     1       1.805   8.191  19.477  0.00  0.00    +0.000 A 
ATOM     17  C   UNL     1       1.110   8.813  20.519  0.00  0.00    +0.000 A 
ATOM     18  C   UNL     1       0.667  10.129  20.375  0.00  0.00    +0.000 A 
ATOM     19  C   UNL     1       0.901  10.830  19.191  0.00  0.00    +0.000 A 
ATOM     20  C   UNL     1       1.588  10.192  18.140  0.00  0.00    +0.000 A 
ATOM     21  C   UNL     1       2.036   8.875  18.281  0.00  0.00    +0.000 A 
BRANCH  16  23
ATOM     22  O   UNL     1       2.736   6.130  18.774  0.00  0.00    +0.000 OA
ATOM     23  C   UNL     1       2.284   6.805  19.695  0.00  0.00    +0.000 C 
ATOM     24  N   UNL     1       2.124   6.290  20.964  0.00  0.00    +0.000 N 
ATOM     25  H   UNL     1       1.424   6.660  21.600  0.00  0.00    +0.000 HD
BRANCH  24  26
ATOM     26  O   UNL     1       2.375   4.898  21.062  0.00  0.00    +0.000 OA
ATOM     27  H   UNL     1       1.639   4.598  21.642  0.00  0.00    +0.000 HD
ENDBRANCH  24  26
ENDBRANCH  16  23
ENDBRANCH  15  19
ENDBRANCH   1  15
TORSDOF 4
ENDMDL
MODEL 9
REMARK VINA RESULT:      -6.3      4.648      9.158
REMARK  Name = 
REMARK  4 active torsions:
REMARK  status: ('A' for Active; 'I' for Inactive)
REMARK    1  A    between atoms: C_2  and  C_5
REMARK    2  A    between atoms: N_3  and  O_4
REMARK    3  A    between atoms: C_8  and  C_9
REMARK    4  A    between atoms: C_9  and  N_10
REMARK                            x       y       z     vdW  Elec       q    Type
REMARK                         _______ _______ _______ _____ _____    ______ ____
ROOT
ATOM      1  N   UNL     1      -1.872  12.272  19.443  0.00  0.00    +0.000 N 
ATOM      2  C   UNL     1      -2.593  11.795  18.324  0.00  0.00    +0.000 A 
ATOM      3  C   UNL     1      -2.011  11.636  17.053  0.00  0.00    +0.000 A 
ATOM      4  C   UNL     1      -2.707  11.076  15.975  0.00  0.00    +0.000 A 
ATOM      5  C   UNL     1      -4.005  10.622  16.146  0.00  0.00    +0.000 A 
ATOM      6  C   UNL     1      -4.641  10.836  17.363  0.00  0.00    +0.000 A 
ATOM      7  C   UNL     1      -3.968  11.482  18.417  0.00  0.00    +0.000 A 
ATOM      8  S   UNL     1      -4.976  11.987  19.803  0.00  0.00    +0.000 S 
ATOM      9  C   UNL     1      -3.859  13.087  20.639  0.00  0.00    +0.000 A 
ATOM     10  N   UNL     1      -4.430  14.049  21.413  0.00  0.00    +0.000 NA
ATOM     11  C   UNL     1      -3.581  14.757  22.185  0.00  0.00    +0.000 A 
ATOM     12  C   UNL     1      -2.246  14.435  22.285  0.00  0.00    +0.000 A 
ATOM     13  N   UNL     1      -1.670  13.523  21.482  0.00  0.00    +0.000 NA
ATOM     14  C   UNL     1      -2.466  12.917  20.558  0.00  0.00    +0.000 A 
ENDROOT
BRANCH   1  15
ATOM     15  C   UNL     1      -0.402  12.384  19.413  0.00  0.00    +0.000 C 
BRANCH  15  19
ATOM     16  C   UNL     1       1.488   8.512  19.719  0.00  0.00    +0.000 A 
ATOM     17  C   UNL     1       0.743   9.018  20.789  0.00  0.00    +0.000 A 
ATOM     18  C   UNL     1       0.144  10.275  20.691  0.00  0.00    +0.000 A 
ATOM     19  C   UNL     1       0.271  11.030  19.524  0.00  0.00    +0.000 A 
ATOM     20  C   UNL     1       1.009  10.508  18.444  0.00  0.00    +0.000 A 
ATOM     21  C   UNL     1       1.613   9.251  18.540  0.00  0.00    +0.000 A 
BRANCH  16  23
ATOM     22  O   UNL     1       2.774   6.665  18.982  0.00  0.00    +0.000 OA
ATOM     23  C   UNL     1       2.132   7.187  19.890  0.00  0.00    +0.000 C 
ATOM     24  N   UNL     1       1.908   6.543  21.087  0.00  0.00    +0.000 N 
ATOM     25  H   UNL     1       1.097   6.757  21.659  0.00  0.00    +0.000 HD
BRANCH  24  26
ATOM     26  O   UNL     1       2.343   5.193  21.111  0.00  0.00    +0.000 OA
ATOM     27  H   UNL     1       3.284   5.287  21.384  0.00  0.00    +0.000 HD
ENDBRANCH  24  26
ENDBRANCH  16  23
ENDBRANCH  15  19
ENDBRANCH   1  15
TORSDOF 4
ENDMDL
