MODEL 1
REMARK VINA RESULT:      -6.8      0.000      0.000
REMARK  Name = 
REMARK  14 active torsions:
REMARK  status: ('A' for Active; 'I' for Inactive)
REMARK    1  A    between atoms: N_1  and  C_2
REMARK    2  A    between atoms: C_2  and  C_3
REMARK    3  A    between atoms: C_3  and  C_4
REMARK    4  A    between atoms: C_4  and  C_5
REMARK    5  A    between atoms: C_5  and  C_6
REMARK    6  A    between atoms: C_6  and  N_7
REMARK    7  A    between atoms: C_6  and  C_8
REMARK    8  A    between atoms: N_10  and  C_11
REMARK    9  A    between atoms: C_11  and  C_12
REMARK   10  A    between atoms: C_11  and  C_22
REMARK   11  A    between atoms: C_12  and  C_13
REMARK   12  A    between atoms: C_13  and  C_14
REMARK   13  A    between atoms: C_14  and  N_15
REMARK   14  A    between atoms: N_18  and  N_19
REMARK                            x       y       z     vdW  Elec       q    Type
REMARK                         _______ _______ _______ _____ _____    ______ ____
ROOT
ATOM      1  C   UNL     1       5.839   5.343  17.413  0.00  0.00    +0.000 C 
ENDROOT
BRANCH   1   2
ATOM      2  C   UNL     1       7.322   5.470  17.835  0.00  0.00    +0.000 C 
ATOM      3  N   UNL     1       8.025   4.290  17.873  0.00  0.00    +0.000 N 
ATOM      4  O   UNL     1       7.875   6.505  18.188  0.00  0.00    +0.000 OA
ATOM      5  H   UNL     1       7.693   3.431  17.456  0.00  0.00    +0.000 HD
ATOM      6  H   UNL     1       8.990   4.336  18.175  0.00  0.00    +0.000 HD
ENDBRANCH   1   2
BRANCH   1   9
ATOM      7  C   UNL     1       4.457   4.065  19.134  0.00  0.00    +0.000 C 
ATOM      8  O   UNL     1       4.178   5.021  19.848  0.00  0.00    +0.000 OA
ATOM      9  N   UNL     1       5.263   4.133  18.009  0.00  0.00    +0.000 N 
ATOM     10  H   UNL     1       5.262   3.265  17.475  0.00  0.00    +0.000 HD
BRANCH   7  11
ATOM     11  C   UNL     1       4.013   2.601  19.435  0.00  0.00    +0.000 C 
BRANCH  11  12
ATOM     12  N   UNL     1       5.201   1.846  19.933  0.00  0.00    +0.000 NA
ATOM     13  H   UNL     1       5.571   2.365  20.732  0.00  0.00    +0.000 HD
ATOM     14  H   UNL     1       5.932   1.902  19.220  0.00  0.00    +0.000 HD
ENDBRANCH  11  12
BRANCH  11  15
ATOM     15  C   UNL     1       3.372   1.895  18.225  0.00  0.00    +0.000 C 
BRANCH  15  16
ATOM     16  C   UNL     1       2.046   2.551  17.805  0.00  0.00    +0.000 C 
BRANCH  16  17
ATOM     17  C   UNL     1       0.901   2.274  18.778  0.00  0.00    +0.000 C 
BRANCH  17  18
ATOM     18  C   UNL     1       0.799   3.412  19.799  0.00  0.00    +0.000 C 
BRANCH  18  19
ATOM     19  N   UNL     1       0.870   2.889  21.154  0.00  0.00    +0.000 NA
ATOM     20  H   UNL     1       0.009   2.386  21.369  0.00  0.00    +0.000 HD
ATOM     21  H   UNL     1       0.923   3.660  21.820  0.00  0.00    +0.000 HD
ENDBRANCH  18  19
ENDBRANCH  17  18
ENDBRANCH  16  17
ENDBRANCH  15  16
ENDBRANCH  11  15
ENDBRANCH   7  11
ENDBRANCH   1   9
BRANCH   1  22
ATOM     22  C   UNL     1       5.546   5.481  15.908  0.00  0.00    +0.000 C 
BRANCH  22  23
ATOM     23  C   UNL     1       5.847   4.238  15.051  0.00  0.00    +0.000 C 
BRANCH  23  24
ATOM     24  C   UNL     1       6.407   4.514  13.661  0.00  0.00    +0.000 C 
BRANCH  24  25
ATOM     25  N   UNL     1       6.482   3.247  12.935  0.00  0.00    +0.000 NA
ATOM     26  C   UNL     1       5.573   2.980  12.049  0.00  0.00    +0.000 C 
ATOM     27  N   UNL     1       5.676   1.739  11.516  0.00  0.00    +0.000 N 
ATOM     28  N   UNL     1       4.552   3.802  11.674  0.00  0.00    +0.000 N 
ATOM     29  H   UNL     1       6.575   1.302  11.689  0.00  0.00    +0.000 HD
ATOM     30  H   UNL     1       5.305   1.586  10.583  0.00  0.00    +0.000 HD
ATOM     31  H   UNL     1       4.503   4.704  12.115  0.00  0.00    +0.000 HD
BRANCH  28  32
ATOM     32  N   UNL     1       3.612   3.527  10.763  0.00  0.00    +0.000 N 
ATOM     33  O   UNL     1       3.378   4.328   9.845  0.00  0.00    +0.000 OA
ATOM     34  O   UNL     1       3.025   2.465  10.966  0.00  0.00    +0.000 OA
ENDBRANCH  28  32
ENDBRANCH  24  25
ENDBRANCH  23  24
ENDBRANCH  22  23
ENDBRANCH   1  22
TORSDOF 14
ENDMDL
MODEL 2
REMARK VINA RESULT:      -6.8      3.676      6.331
REMARK  Name = 
REMARK  14 active torsions:
REMARK  status: ('A' for Active; 'I' for Inactive)
REMARK    1  A    between atoms: N_1  and  C_2
REMARK    2  A    between atoms: C_2  and  C_3
REMARK    3  A    between atoms: C_3  and  C_4
REMARK    4  A    between atoms: C_4  and  C_5
REMARK    5  A    between atoms: C_5  and  C_6
REMARK    6  A    between atoms: C_6  and  N_7
REMARK    7  A    between atoms: C_6  and  C_8
REMARK    8  A    between atoms: N_10  and  C_11
REMARK    9  A    between atoms: C_11  and  C_12
REMARK   10  A    between atoms: C_11  and  C_22
REMARK   11  A    between atoms: C_12  and  C_13
REMARK   12  A    between atoms: C_13  and  C_14
REMARK   13  A    between atoms: C_14  and  N_15
REMARK   14  A    between atoms: N_18  and  N_19
REMARK                            x       y       z     vdW  Elec       q    Type
REMARK                         _______ _______ _______ _____ _____    ______ ____
ROOT
ATOM      1  C   UNL     1       5.887   4.764  17.442  0.00  0.00    +0.000 C 
ENDROOT
BRANCH   1   2
ATOM      2  C   UNL     1       6.358   4.760  15.968  0.00  0.00    +0.000 C 
ATOM      3  N   UNL     1       5.605   3.992  15.114  0.00  0.00    +0.000 N 
ATOM      4  O   UNL     1       7.359   5.323  15.540  0.00  0.00    +0.000 OA
ATOM      5  H   UNL     1       4.692   3.628  15.351  0.00  0.00    +0.000 HD
ATOM      6  H   UNL     1       5.905   3.944  14.148  0.00  0.00    +0.000 HD
ENDBRANCH   1   2
BRANCH   1   9
ATOM      7  C   UNL     1       4.572   3.091  18.847  0.00  0.00    +0.000 C 
ATOM      8  O   UNL     1       5.124   3.320  19.917  0.00  0.00    +0.000 OA
ATOM      9  N   UNL     1       4.906   3.694  17.645  0.00  0.00    +0.000 N 
ATOM     10  H   UNL     1       4.244   3.475  16.902  0.00  0.00    +0.000 HD
BRANCH   7  11
ATOM     11  C   UNL     1       3.458   2.016  18.662  0.00  0.00    +0.000 C 
BRANCH  11  12
ATOM     12  N   UNL     1       4.059   0.836  17.973  0.00  0.00    +0.000 NA
ATOM     13  H   UNL     1       4.304   0.159  18.698  0.00  0.00    +0.000 HD
ATOM     14  H   UNL     1       4.953   1.127  17.570  0.00  0.00    +0.000 HD
ENDBRANCH  11  12
BRANCH  11  15
ATOM     15  C   UNL     1       2.225   2.538  17.899  0.00  0.00    +0.000 C 
BRANCH  15  16
ATOM     16  C   UNL     1       0.990   2.662  18.806  0.00  0.00    +0.000 C 
BRANCH  16  17
ATOM     17  C   UNL     1       1.215   3.576  20.010  0.00  0.00    +0.000 C 
BRANCH  17  18
ATOM     18  C   UNL     1       1.261   2.741  21.294  0.00  0.00    +0.000 C 
BRANCH  18  19
ATOM     19  N   UNL     1       2.487   3.004  22.030  0.00  0.00    +0.000 NA
ATOM     20  H   UNL     1       2.564   2.347  22.807  0.00  0.00    +0.000 HD
ATOM     21  H   UNL     1       2.449   3.934  22.445  0.00  0.00    +0.000 HD
ENDBRANCH  18  19
ENDBRANCH  17  18
ENDBRANCH  16  17
ENDBRANCH  15  16
ENDBRANCH  11  15
ENDBRANCH   7  11
ENDBRANCH   1   9
BRANCH   1  22
ATOM     22  C   UNL     1       5.435   6.123  18.008  0.00  0.00    +0.000 C 
BRANCH  22  23
ATOM     23  C   UNL     1       4.267   6.800  17.266  0.00  0.00    +0.000 C 
BRANCH  23  24
ATOM     24  C   UNL     1       3.039   7.110  18.113  0.00  0.00    +0.000 C 
BRANCH  24  25
ATOM     25  N   UNL     1       2.418   8.328  17.594  0.00  0.00    +0.000 NA
ATOM     26  C   UNL     1       1.676   9.038  18.386  0.00  0.00    +0.000 C 
ATOM     27  N   UNL     1       1.066  10.082  17.776  0.00  0.00    +0.000 N 
ATOM     28  N   UNL     1       1.447   8.790  19.707  0.00  0.00    +0.000 N 
ATOM     29  H   UNL     1       1.467  10.308  16.872  0.00  0.00    +0.000 HD
ATOM     30  H   UNL     1       0.817  10.888  18.341  0.00  0.00    +0.000 HD
ATOM     31  H   UNL     1       1.903   7.989  20.110  0.00  0.00    +0.000 HD
BRANCH  28  32
ATOM     32  N   UNL     1       0.679   9.518  20.525  0.00  0.00    +0.000 N 
ATOM     33  O   UNL     1      -0.314   9.009  21.068  0.00  0.00    +0.000 OA
ATOM     34  O   UNL     1       1.042  10.689  20.629  0.00  0.00    +0.000 OA
ENDBRANCH  28  32
ENDBRANCH  24  25
ENDBRANCH  23  24
ENDBRANCH  22  23
ENDBRANCH   1  22
TORSDOF 14
ENDMDL
MODEL 3
REMARK VINA RESULT:      -6.7      4.505      7.588
REMARK  Name = 
REMARK  14 active torsions:
REMARK  status: ('A' for Active; 'I' for Inactive)
REMARK    1  A    between atoms: N_1  and  C_2
REMARK    2  A    between atoms: C_2  and  C_3
REMARK    3  A    between atoms: C_3  and  C_4
REMARK    4  A    between atoms: C_4  and  C_5
REMARK    5  A    between atoms: C_5  and  C_6
REMARK    6  A    between atoms: C_6  and  N_7
REMARK    7  A    between atoms: C_6  and  C_8
REMARK    8  A    between atoms: N_10  and  C_11
REMARK    9  A    between atoms: C_11  and  C_12
REMARK   10  A    between atoms: C_11  and  C_22
REMARK   11  A    between atoms: C_12  and  C_13
REMARK   12  A    between atoms: C_13  and  C_14
REMARK   13  A    between atoms: C_14  and  N_15
REMARK   14  A    between atoms: N_18  and  N_19
REMARK                            x       y       z     vdW  Elec       q    Type
REMARK                         _______ _______ _______ _____ _____    ______ ____
ROOT
ATOM      1  C   UNL     1       6.534   6.179  17.739  0.00  0.00    +0.000 C 
ENDROOT
BRANCH   1   2
ATOM      2  C   UNL     1       6.864   4.986  16.810  0.00  0.00    +0.000 C 
ATOM      3  N   UNL     1       7.963   4.245  17.172  0.00  0.00    +0.000 N 
ATOM      4  O   UNL     1       6.270   4.706  15.774  0.00  0.00    +0.000 OA
ATOM      5  H   UNL     1       8.405   4.314  18.078  0.00  0.00    +0.000 HD
ATOM      6  H   UNL     1       8.222   3.476  16.568  0.00  0.00    +0.000 HD
ENDBRANCH   1   2
BRANCH   1   9
ATOM      7  C   UNL     1       4.413   5.309  18.856  0.00  0.00    +0.000 C 
ATOM      8  O   UNL     1       4.914   4.331  19.399  0.00  0.00    +0.000 OA
ATOM      9  N   UNL     1       5.097   6.188  18.032  0.00  0.00    +0.000 N 
ATOM     10  H   UNL     1       4.543   7.009  17.791  0.00  0.00    +0.000 HD
BRANCH   7  11
ATOM     11  C   UNL     1       2.898   5.664  18.943  0.00  0.00    +0.000 C 
BRANCH  11  12
ATOM     12  N   UNL     1       2.525   5.768  20.385  0.00  0.00    +0.000 NA
ATOM     13  H   UNL     1       3.276   5.324  20.920  0.00  0.00    +0.000 HD
ATOM     14  H   UNL     1       1.705   5.178  20.543  0.00  0.00    +0.000 HD
ENDBRANCH  11  12
BRANCH  11  15
ATOM     15  C   UNL     1       1.991   4.661  18.205  0.00  0.00    +0.000 C 
BRANCH  15  16
ATOM     16  C   UNL     1       1.270   3.708  19.170  0.00  0.00    +0.000 C 
BRANCH  16  17
ATOM     17  C   UNL     1       1.599   2.236  18.923  0.00  0.00    +0.000 C 
BRANCH  17  18
ATOM     18  C   UNL     1       2.678   2.119  17.842  0.00  0.00    +0.000 C 
BRANCH  18  19
ATOM     19  N   UNL     1       3.888   1.525  18.390  0.00  0.00    +0.000 NA
ATOM     20  H   UNL     1       4.212   2.084  19.179  0.00  0.00    +0.000 HD
ATOM     21  H   UNL     1       4.632   1.553  17.694  0.00  0.00    +0.000 HD
ENDBRANCH  18  19
ENDBRANCH  17  18
ENDBRANCH  16  17
ENDBRANCH  15  16
ENDBRANCH  11  15
ENDBRANCH   7  11
ENDBRANCH   1   9
BRANCH   1  22
ATOM     22  C   UNL     1       7.077   7.551  17.301  0.00  0.00    +0.000 C 
BRANCH  22  23
ATOM     23  C   UNL     1       8.181   8.149  18.193  0.00  0.00    +0.000 C 
BRANCH  23  24
ATOM     24  C   UNL     1       8.443   9.639  18.010  0.00  0.00    +0.000 C 
BRANCH  24  25
ATOM     25  N   UNL     1       9.127  10.135  19.202  0.00  0.00    +0.000 NA
ATOM     26  C   UNL     1       9.924  11.152  19.087  0.00  0.00    +0.000 C 
ATOM     27  N   UNL     1      10.587  11.461  20.229  0.00  0.00    +0.000 N 
ATOM     28  N   UNL     1      10.160  11.862  17.947  0.00  0.00    +0.000 N 
ATOM     29  H   UNL     1      10.184  11.030  21.054  0.00  0.00    +0.000 HD
ATOM     30  H   UNL     1      10.893  12.420  20.359  0.00  0.00    +0.000 HD
ATOM     31  H   UNL     1       9.663  11.580  17.120  0.00  0.00    +0.000 HD
BRANCH  28  32
ATOM     32  N   UNL     1      10.984  12.908  17.826  0.00  0.00    +0.000 N 
ATOM     33  O   UNL     1      12.038  12.802  17.180  0.00  0.00    +0.000 OA
ATOM     34  O   UNL     1      10.602  13.910  18.430  0.00  0.00    +0.000 OA
ENDBRANCH  28  32
ENDBRANCH  24  25
ENDBRANCH  23  24
ENDBRANCH  22  23
ENDBRANCH   1  22
TORSDOF 14
ENDMDL
MODEL 4
REMARK VINA RESULT:      -6.7      4.099      6.635
REMARK  Name = 
REMARK  14 active torsions:
REMARK  status: ('A' for Active; 'I' for Inactive)
REMARK    1  A    between atoms: N_1  and  C_2
REMARK    2  A    between atoms: C_2  and  C_3
REMARK    3  A    between atoms: C_3  and  C_4
REMARK    4  A    between atoms: C_4  and  C_5
REMARK    5  A    between atoms: C_5  and  C_6
REMARK    6  A    between atoms: C_6  and  N_7
REMARK    7  A    between atoms: C_6  and  C_8
REMARK    8  A    between atoms: N_10  and  C_11
REMARK    9  A    between atoms: C_11  and  C_12
REMARK   10  A    between atoms: C_11  and  C_22
REMARK   11  A    between atoms: C_12  and  C_13
REMARK   12  A    between atoms: C_13  and  C_14
REMARK   13  A    between atoms: C_14  and  N_15
REMARK   14  A    between atoms: N_18  and  N_19
REMARK                            x       y       z     vdW  Elec       q    Type
REMARK                         _______ _______ _______ _____ _____    ______ ____
ROOT
ATOM      1  C   UNL     1       5.257   5.126  17.667  0.00  0.00    +0.000 C 
ENDROOT
BRANCH   1   2
ATOM      2  C   UNL     1       6.365   4.883  16.614  0.00  0.00    +0.000 C 
ATOM      3  N   UNL     1       7.536   4.359  17.105  0.00  0.00    +0.000 N 
ATOM      4  O   UNL     1       6.293   5.176  15.426  0.00  0.00    +0.000 OA
ATOM      5  H   UNL     1       7.621   3.953  18.026  0.00  0.00    +0.000 HD
ATOM      6  H   UNL     1       8.291   4.217  16.445  0.00  0.00    +0.000 HD
ENDBRANCH   1   2
BRANCH   1   9
ATOM      7  C   UNL     1       4.482   3.024  18.887  0.00  0.00    +0.000 C 
ATOM      8  O   UNL     1       5.261   3.097  19.830  0.00  0.00    +0.000 OA
ATOM      9  N   UNL     1       4.453   3.908  17.821  0.00  0.00    +0.000 N 
ATOM     10  H   UNL     1       3.649   3.761  17.213  0.00  0.00    +0.000 HD
BRANCH   7  11
ATOM     11  C   UNL     1       3.455   1.866  18.702  0.00  0.00    +0.000 C 
BRANCH  11  12
ATOM     12  N   UNL     1       4.128   0.759  17.962  0.00  0.00    +0.000 NA
ATOM     13  H   UNL     1       5.054   1.099  17.691  0.00  0.00    +0.000 HD
ATOM     14  H   UNL     1       3.630   0.618  17.081  0.00  0.00    +0.000 HD
ENDBRANCH  11  12
BRANCH  11  15
ATOM     15  C   UNL     1       2.161   2.306  17.989  0.00  0.00    +0.000 C 
BRANCH  15  16
ATOM     16  C   UNL     1       1.373   3.345  18.803  0.00  0.00    +0.000 C 
BRANCH  16  17
ATOM     17  C   UNL     1       0.969   2.845  20.190  0.00  0.00    +0.000 C 
BRANCH  17  18
ATOM     18  C   UNL     1       1.717   3.638  21.266  0.00  0.00    +0.000 C 
BRANCH  18  19
ATOM     19  N   UNL     1       2.634   2.774  21.993  0.00  0.00    +0.000 NA
ATOM     20  H   UNL     1       2.606   3.008  22.985  0.00  0.00    +0.000 HD
ATOM     21  H   UNL     1       3.589   2.947  21.685  0.00  0.00    +0.000 HD
ENDBRANCH  18  19
ENDBRANCH  17  18
ENDBRANCH  16  17
ENDBRANCH  15  16
ENDBRANCH  11  15
ENDBRANCH   7  11
ENDBRANCH   1   9
BRANCH   1  22
ATOM     22  C   UNL     1       4.410   6.398  17.481  0.00  0.00    +0.000 C 
BRANCH  22  23
ATOM     23  C   UNL     1       2.952   6.306  17.969  0.00  0.00    +0.000 C 
BRANCH  23  24
ATOM     24  C   UNL     1       2.504   7.411  18.918  0.00  0.00    +0.000 C 
BRANCH  24  25
ATOM     25  N   UNL     1       2.227   8.610  18.129  0.00  0.00    +0.000 NA
ATOM     26  C   UNL     1       1.530   9.564  18.665  0.00  0.00    +0.000 C 
ATOM     27  N   UNL     1       1.243  10.578  17.813  0.00  0.00    +0.000 N 
ATOM     28  N   UNL     1       1.056   9.591  19.943  0.00  0.00    +0.000 N 
ATOM     29  H   UNL     1       1.816  10.572  16.976  0.00  0.00    +0.000 HD
ATOM     30  H   UNL     1       1.078  11.500  18.206  0.00  0.00    +0.000 HD
ATOM     31  H   UNL     1       1.275   8.804  20.530  0.00  0.00    +0.000 HD
BRANCH  28  32
ATOM     32  N   UNL     1       0.334  10.571  20.497  0.00  0.00    +0.000 N 
ATOM     33  O   UNL     1       0.830  11.291  21.377  0.00  0.00    +0.000 OA
ATOM     34  O   UNL     1      -0.819  10.634  20.072  0.00  0.00    +0.000 OA
ENDBRANCH  28  32
ENDBRANCH  24  25
ENDBRANCH  23  24
ENDBRANCH  22  23
ENDBRANCH   1  22
TORSDOF 14
ENDMDL
MODEL 5
REMARK VINA RESULT:      -6.6      2.185      2.960
REMARK  Name = 
REMARK  14 active torsions:
REMARK  status: ('A' for Active; 'I' for Inactive)
REMARK    1  A    between atoms: N_1  and  C_2
REMARK    2  A    between atoms: C_2  and  C_3
REMARK    3  A    between atoms: C_3  and  C_4
REMARK    4  A    between atoms: C_4  and  C_5
REMARK    5  A    between atoms: C_5  and  C_6
REMARK    6  A    between atoms: C_6  and  N_7
REMARK    7  A    between atoms: C_6  and  C_8
REMARK    8  A    between atoms: N_10  and  C_11
REMARK    9  A    between atoms: C_11  and  C_12
REMARK   10  A    between atoms: C_11  and  C_22
REMARK   11  A    between atoms: C_12  and  C_13
REMARK   12  A    between atoms: C_13  and  C_14
REMARK   13  A    between atoms: C_14  and  N_15
REMARK   14  A    between atoms: N_18  and  N_19
REMARK                            x       y       z     vdW  Elec       q    Type
REMARK                         _______ _______ _______ _____ _____    ______ ____
ROOT
ATOM      1  C   UNL     1       4.856   5.903  18.181  0.00  0.00    +0.000 C 
ENDROOT
BRANCH   1   2
ATOM      2  C   UNL     1       6.034   5.149  18.843  0.00  0.00    +0.000 C 
ATOM      3  N   UNL     1       7.226   5.832  18.873  0.00  0.00    +0.000 N 
ATOM      4  O   UNL     1       5.994   4.000  19.269  0.00  0.00    +0.000 OA
ATOM      5  H   UNL     1       7.304   6.822  18.688  0.00  0.00    +0.000 HD
ATOM      6  H   UNL     1       8.023   5.354  19.273  0.00  0.00    +0.000 HD
ENDBRANCH   1   2
BRANCH   1   9
ATOM      7  C   UNL     1       2.693   6.878  19.116  0.00  0.00    +0.000 C 
ATOM      8  O   UNL     1       2.633   7.856  18.379  0.00  0.00    +0.000 OA
ATOM      9  N   UNL     1       3.722   5.951  19.110  0.00  0.00    +0.000 N 
ATOM     10  H   UNL     1       3.522   5.142  19.696  0.00  0.00    +0.000 HD
BRANCH   7  11
ATOM     11  C   UNL     1       1.654   6.576  20.238  0.00  0.00    +0.000 C 
BRANCH  11  12
ATOM     12  N   UNL     1       1.709   7.685  21.235  0.00  0.00    +0.000 NA
ATOM     13  H   UNL     1       2.585   8.188  21.075  0.00  0.00    +0.000 HD
ATOM     14  H   UNL     1       1.809   7.269  22.164  0.00  0.00    +0.000 HD
ENDBRANCH  11  12
BRANCH  11  15
ATOM     15  C   UNL     1       1.864   5.208  20.913  0.00  0.00    +0.000 C 
BRANCH  15  16
ATOM     16  C   UNL     1       0.932   4.127  20.341  0.00  0.00    +0.000 C 
BRANCH  16  17
ATOM     17  C   UNL     1       1.446   2.706  20.567  0.00  0.00    +0.000 C 
BRANCH  17  18
ATOM     18  C   UNL     1       1.945   2.117  19.245  0.00  0.00    +0.000 C 
BRANCH  18  19
ATOM     19  N   UNL     1       3.198   2.741  18.848  0.00  0.00    +0.000 NA
ATOM     20  H   UNL     1       3.918   2.025  18.755  0.00  0.00    +0.000 HD
ATOM     21  H   UNL     1       3.516   3.373  19.582  0.00  0.00    +0.000 HD
ENDBRANCH  18  19
ENDBRANCH  17  18
ENDBRANCH  16  17
ENDBRANCH  15  16
ENDBRANCH  11  15
ENDBRANCH   7  11
ENDBRANCH   1   9
BRANCH   1  22
ATOM     22  C   UNL     1       4.466   5.444  16.764  0.00  0.00    +0.000 C 
BRANCH  22  23
ATOM     23  C   UNL     1       5.544   5.632  15.680  0.00  0.00    +0.000 C 
BRANCH  23  24
ATOM     24  C   UNL     1       6.265   4.364  15.241  0.00  0.00    +0.000 C 
BRANCH  24  25
ATOM     25  N   UNL     1       6.968   4.645  13.990  0.00  0.00    +0.000 NA
ATOM     26  C   UNL     1       6.578   4.047  12.907  0.00  0.00    +0.000 C 
ATOM     27  N   UNL     1       7.364   4.297  11.831  0.00  0.00    +0.000 N 
ATOM     28  N   UNL     1       5.518   3.197  12.796  0.00  0.00    +0.000 N 
ATOM     29  H   UNL     1       7.975   5.096  11.958  0.00  0.00    +0.000 HD
ATOM     30  H   UNL     1       6.947   4.226  10.908  0.00  0.00    +0.000 HD
ATOM     31  H   UNL     1       4.980   3.025  13.627  0.00  0.00    +0.000 HD
BRANCH  28  32
ATOM     32  N   UNL     1       5.117   2.577  11.681  0.00  0.00    +0.000 N 
ATOM     33  O   UNL     1       4.092   2.952  11.091  0.00  0.00    +0.000 OA
ATOM     34  O   UNL     1       5.830   1.626  11.362  0.00  0.00    +0.000 OA
ENDBRANCH  28  32
ENDBRANCH  24  25
ENDBRANCH  23  24
ENDBRANCH  22  23
ENDBRANCH   1  22
TORSDOF 14
ENDMDL
MODEL 6
REMARK VINA RESULT:      -6.6      2.819      3.872
REMARK  Name = 
REMARK  14 active torsions:
REMARK  status: ('A' for Active; 'I' for Inactive)
REMARK    1  A    between atoms: N_1  and  C_2
REMARK    2  A    between atoms: C_2  and  C_3
REMARK    3  A    between atoms: C_3  and  C_4
REMARK    4  A    between atoms: C_4  and  C_5
REMARK    5  A    between atoms: C_5  and  C_6
REMARK    6  A    between atoms: C_6  and  N_7
REMARK    7  A    between atoms: C_6  and  C_8
REMARK    8  A    between atoms: N_10  and  C_11
REMARK    9  A    between atoms: C_11  and  C_12
REMARK   10  A    between atoms: C_11  and  C_22
REMARK   11  A    between atoms: C_12  and  C_13
REMARK   12  A    between atoms: C_13  and  C_14
REMARK   13  A    between atoms: C_14  and  N_15
REMARK   14  A    between atoms: N_18  and  N_19
REMARK                            x       y       z     vdW  Elec       q    Type
REMARK                         _______ _______ _______ _____ _____    ______ ____
ROOT
ATOM      1  C   UNL     1       3.799   6.560  17.443  0.00  0.00    +0.000 C 
ENDROOT
BRANCH   1   2
ATOM      2  C   UNL     1       2.812   7.441  18.245  0.00  0.00    +0.000 C 
ATOM      3  N   UNL     1       2.301   8.520  17.565  0.00  0.00    +0.000 N 
ATOM      4  O   UNL     1       2.516   7.284  19.424  0.00  0.00    +0.000 OA
ATOM      5  H   UNL     1       2.372   8.629  16.563  0.00  0.00    +0.000 HD
ATOM      6  H   UNL     1       1.676   9.133  18.072  0.00  0.00    +0.000 HD
ENDBRANCH   1   2
BRANCH   1   9
ATOM      7  C   UNL     1       2.860   4.205  17.724  0.00  0.00    +0.000 C 
ATOM      8  O   UNL     1       1.847   4.362  17.051  0.00  0.00    +0.000 OA
ATOM      9  N   UNL     1       3.790   5.197  17.986  0.00  0.00    +0.000 N 
ATOM     10  H   UNL     1       4.626   4.837  18.444  0.00  0.00    +0.000 HD
BRANCH   7  11
ATOM     11  C   UNL     1       3.211   2.878  18.462  0.00  0.00    +0.000 C 
BRANCH  11  12
ATOM     12  N   UNL     1       4.340   2.225  17.736  0.00  0.00    +0.000 NA
ATOM     13  H   UNL     1       4.979   1.859  18.445  0.00  0.00    +0.000 HD
ATOM     14  H   UNL     1       4.869   2.954  17.254  0.00  0.00    +0.000 HD
ENDBRANCH  11  12
BRANCH  11  15
ATOM     15  C   UNL     1       2.011   1.921  18.603  0.00  0.00    +0.000 C 
BRANCH  15  16
ATOM     16  C   UNL     1       1.420   1.936  20.022  0.00  0.00    +0.000 C 
BRANCH  16  17
ATOM     17  C   UNL     1       1.058   3.338  20.511  0.00  0.00    +0.000 C 
BRANCH  17  18
ATOM     18  C   UNL     1       2.083   3.807  21.547  0.00  0.00    +0.000 C 
BRANCH  18  19
ATOM     19  N   UNL     1       2.545   5.151  21.236  0.00  0.00    +0.000 NA
ATOM     20  H   UNL     1       3.520   5.113  20.937  0.00  0.00    +0.000 HD
ATOM     21  H   UNL     1       2.526   5.727  22.077  0.00  0.00    +0.000 HD
ENDBRANCH  18  19
ENDBRANCH  17  18
ENDBRANCH  16  17
ENDBRANCH  15  16
ENDBRANCH  11  15
ENDBRANCH   7  11
ENDBRANCH   1   9
BRANCH   1  22
ATOM     22  C   UNL     1       5.215   7.130  17.247  0.00  0.00    +0.000 C 
BRANCH  22  23
ATOM     23  C   UNL     1       6.291   6.593  18.208  0.00  0.00    +0.000 C 
BRANCH  23  24
ATOM     24  C   UNL     1       7.382   5.743  17.570  0.00  0.00    +0.000 C 
BRANCH  24  25
ATOM     25  N   UNL     1       6.767   4.525  17.043  0.00  0.00    +0.000 NA
ATOM     26  C   UNL     1       6.770   4.328  15.761  0.00  0.00    +0.000 C 
ATOM     27  N   UNL     1       6.082   3.226  15.375  0.00  0.00    +0.000 N 
ATOM     28  N   UNL     1       7.348   5.134  14.826  0.00  0.00    +0.000 N 
ATOM     29  H   UNL     1       5.887   2.588  16.139  0.00  0.00    +0.000 HD
ATOM     30  H   UNL     1       6.349   2.775  14.506  0.00  0.00    +0.000 HD
ATOM     31  H   UNL     1       7.827   5.953  15.160  0.00  0.00    +0.000 HD
BRANCH  28  32
ATOM     32  N   UNL     1       7.349   4.934  13.504  0.00  0.00    +0.000 N 
ATOM     33  O   UNL     1       6.628   4.057  13.004  0.00  0.00    +0.000 OA
ATOM     34  O   UNL     1       8.135   5.660  12.896  0.00  0.00    +0.000 OA
ENDBRANCH  28  32
ENDBRANCH  24  25
ENDBRANCH  23  24
ENDBRANCH  22  23
ENDBRANCH   1  22
TORSDOF 14
ENDMDL
MODEL 7
REMARK VINA RESULT:      -6.6      3.093      7.324
REMARK  Name = 
REMARK  14 active torsions:
REMARK  status: ('A' for Active; 'I' for Inactive)
REMARK    1  A    between atoms: N_1  and  C_2
REMARK    2  A    between atoms: C_2  and  C_3
REMARK    3  A    between atoms: C_3  and  C_4
REMARK    4  A    between atoms: C_4  and  C_5
REMARK    5  A    between atoms: C_5  and  C_6
REMARK    6  A    between atoms: C_6  and  N_7
REMARK    7  A    between atoms: C_6  and  C_8
REMARK    8  A    between atoms: N_10  and  C_11
REMARK    9  A    between atoms: C_11  and  C_12
REMARK   10  A    between atoms: C_11  and  C_22
REMARK   11  A    between atoms: C_12  and  C_13
REMARK   12  A    between atoms: C_13  and  C_14
REMARK   13  A    between atoms: C_14  and  N_15
REMARK   14  A    between atoms: N_18  and  N_19
REMARK                            x       y       z     vdW  Elec       q    Type
REMARK                         _______ _______ _______ _____ _____    ______ ____
ROOT
ATOM      1  C   UNL     1       3.111   5.392  18.503  0.00  0.00    +0.000 C 
ENDROOT
BRANCH   1   2
ATOM      2  C   UNL     1       2.650   6.668  19.248  0.00  0.00    +0.000 C 
ATOM      3  N   UNL     1       2.284   6.482  20.559  0.00  0.00    +0.000 N 
ATOM      4  O   UNL     1       2.533   7.780  18.747  0.00  0.00    +0.000 OA
ATOM      5  H   UNL     1       2.494   5.644  21.082  0.00  0.00    +0.000 HD
ATOM      6  H   UNL     1       1.948   7.292  21.064  0.00  0.00    +0.000 HD
ENDBRANCH   1   2
BRANCH   1   9
ATOM      7  C   UNL     1       5.559   5.186  17.817  0.00  0.00    +0.000 C 
ATOM      8  O   UNL     1       5.911   4.441  18.725  0.00  0.00    +0.000 OA
ATOM      9  N   UNL     1       4.282   5.704  17.677  0.00  0.00    +0.000 N 
ATOM     10  H   UNL     1       4.152   6.187  16.789  0.00  0.00    +0.000 HD
BRANCH   7  11
ATOM     11  C   UNL     1       6.525   5.735  16.724  0.00  0.00    +0.000 C 
BRANCH  11  12
ATOM     12  N   UNL     1       6.823   7.163  17.039  0.00  0.00    +0.000 NA
ATOM     13  H   UNL     1       5.949   7.587  17.359  0.00  0.00    +0.000 HD
ATOM     14  H   UNL     1       7.042   7.641  16.162  0.00  0.00    +0.000 HD
ENDBRANCH  11  12
BRANCH  11  15
ATOM     15  C   UNL     1       5.978   5.582  15.292  0.00  0.00    +0.000 C 
BRANCH  15  16
ATOM     16  C   UNL     1       6.621   4.402  14.547  0.00  0.00    +0.000 C 
BRANCH  16  17
ATOM     17  C   UNL     1       7.399   4.825  13.302  0.00  0.00    +0.000 C 
BRANCH  17  18
ATOM     18  C   UNL     1       6.910   4.030  12.088  0.00  0.00    +0.000 C 
BRANCH  18  19
ATOM     19  N   UNL     1       6.235   2.814  12.512  0.00  0.00    +0.000 NA
ATOM     20  H   UNL     1       6.777   2.365  13.250  0.00  0.00    +0.000 HD
ATOM     21  H   UNL     1       6.200   2.150  11.740  0.00  0.00    +0.000 HD
ENDBRANCH  18  19
ENDBRANCH  17  18
ENDBRANCH  16  17
ENDBRANCH  15  16
ENDBRANCH  11  15
ENDBRANCH   7  11
ENDBRANCH   1   9
BRANCH   1  22
ATOM     22  C   UNL     1       2.019   4.615  17.746  0.00  0.00    +0.000 C 
BRANCH  22  23
ATOM     23  C   UNL     1       2.497   3.373  16.972  0.00  0.00    +0.000 C 
BRANCH  23  24
ATOM     24  C   UNL     1       2.404   2.050  17.723  0.00  0.00    +0.000 C 
BRANCH  24  25
ATOM     25  N   UNL     1       3.559   1.945  18.613  0.00  0.00    +0.000 NA
ATOM     26  C   UNL     1       3.409   2.231  19.869  0.00  0.00    +0.000 C 
ATOM     27  N   UNL     1       4.563   2.204  20.580  0.00  0.00    +0.000 N 
ATOM     28  N   UNL     1       2.240   2.583  20.478  0.00  0.00    +0.000 N 
ATOM     29  H   UNL     1       5.317   1.724  20.100  0.00  0.00    +0.000 HD
ATOM     30  H   UNL     1       4.507   2.014  21.575  0.00  0.00    +0.000 HD
ATOM     31  H   UNL     1       1.415   2.612  19.904  0.00  0.00    +0.000 HD
BRANCH  28  32
ATOM     32  N   UNL     1       2.084   2.883  21.772  0.00  0.00    +0.000 N 
ATOM     33  O   UNL     1       2.665   3.864  22.261  0.00  0.00    +0.000 OA
ATOM     34  O   UNL     1       1.366   2.089  22.379  0.00  0.00    +0.000 OA
ENDBRANCH  28  32
ENDBRANCH  24  25
ENDBRANCH  23  24
ENDBRANCH  22  23
ENDBRANCH   1  22
TORSDOF 14
ENDMDL
MODEL 8
REMARK VINA RESULT:      -6.5      3.512      6.236
REMARK  Name = 
REMARK  14 active torsions:
REMARK  status: ('A' for Active; 'I' for Inactive)
REMARK    1  A    between atoms: N_1  and  C_2
REMARK    2  A    between atoms: C_2  and  C_3
REMARK    3  A    between atoms: C_3  and  C_4
REMARK    4  A    between atoms: C_4  and  C_5
REMARK    5  A    between atoms: C_5  and  C_6
REMARK    6  A    between atoms: C_6  and  N_7
REMARK    7  A    between atoms: C_6  and  C_8
REMARK    8  A    between atoms: N_10  and  C_11
REMARK    9  A    between atoms: C_11  and  C_12
REMARK   10  A    between atoms: C_11  and  C_22
REMARK   11  A    between atoms: C_12  and  C_13
REMARK   12  A    between atoms: C_13  and  C_14
REMARK   13  A    between atoms: C_14  and  N_15
REMARK   14  A    between atoms: N_18  and  N_19
REMARK                            x       y       z     vdW  Elec       q    Type
REMARK                         _______ _______ _______ _____ _____    ______ ____
ROOT
ATOM      1  C   UNL     1       5.824   5.373  16.707  0.00  0.00    +0.000 C 
ENDROOT
BRANCH   1   2
ATOM      2  C   UNL     1       6.602   4.722  15.538  0.00  0.00    +0.000 C 
ATOM      3  N   UNL     1       6.306   3.402  15.299  0.00  0.00    +0.000 N 
ATOM      4  O   UNL     1       7.479   5.267  14.877  0.00  0.00    +0.000 OA
ATOM      5  H   UNL     1       5.501   2.933  15.689  0.00  0.00    +0.000 HD
ATOM      6  H   UNL     1       6.821   2.940  14.561  0.00  0.00    +0.000 HD
ENDBRANCH   1   2
BRANCH   1   9
ATOM      7  C   UNL     1       5.239   4.003  18.777  0.00  0.00    +0.000 C 
ATOM      8  O   UNL     1       6.085   4.482  19.523  0.00  0.00    +0.000 OA
ATOM      9  N   UNL     1       5.089   4.338  17.442  0.00  0.00    +0.000 N 
ATOM     10  H   UNL     1       4.247   3.937  17.031  0.00  0.00    +0.000 HD
BRANCH   7  11
ATOM     11  C   UNL     1       4.252   2.873  19.201  0.00  0.00    +0.000 C 
BRANCH  11  12
ATOM     12  N   UNL     1       4.992   1.908  20.066  0.00  0.00    +0.000 NA
ATOM     13  H   UNL     1       4.480   1.844  20.949  0.00  0.00    +0.000 HD
ATOM     14  H   UNL     1       5.891   2.329  20.313  0.00  0.00    +0.000 HD
ENDBRANCH  11  12
BRANCH  11  15
ATOM     15  C   UNL     1       3.592   2.159  18.007  0.00  0.00    +0.000 C 
BRANCH  15  16
ATOM     16  C   UNL     1       2.403   2.951  17.440  0.00  0.00    +0.000 C 
BRANCH  16  17
ATOM     17  C   UNL     1       1.588   3.669  18.515  0.00  0.00    +0.000 C 
BRANCH  17  18
ATOM     18  C   UNL     1       0.753   2.652  19.299  0.00  0.00    +0.000 C 
BRANCH  18  19
ATOM     19  N   UNL     1       0.695   3.015  20.706  0.00  0.00    +0.000 NA
ATOM     20  H   UNL     1       0.123   2.336  21.208  0.00  0.00    +0.000 HD
ATOM     21  H   UNL     1       0.230   3.915  20.813  0.00  0.00    +0.000 HD
ENDBRANCH  18  19
ENDBRANCH  17  18
ENDBRANCH  16  17
ENDBRANCH  15  16
ENDBRANCH  11  15
ENDBRANCH   7  11
ENDBRANCH   1   9
BRANCH   1  22
ATOM     22  C   UNL     1       4.963   6.599  16.352  0.00  0.00    +0.000 C 
BRANCH  22  23
ATOM     23  C   UNL     1       4.339   7.345  17.546  0.00  0.00    +0.000 C 
BRANCH  23  24
ATOM     24  C   UNL     1       2.846   7.123  17.755  0.00  0.00    +0.000 C 
BRANCH  24  25
ATOM     25  N   UNL     1       2.592   7.025  19.192  0.00  0.00    +0.000 NA
ATOM     26  C   UNL     1       1.891   7.953  19.767  0.00  0.00    +0.000 C 
ATOM     27  N   UNL     1       1.809   7.822  21.113  0.00  0.00    +0.000 N 
ATOM     28  N   UNL     1       1.304   9.016  19.147  0.00  0.00    +0.000 N 
ATOM     29  H   UNL     1       2.080   6.902  21.443  0.00  0.00    +0.000 HD
ATOM     30  H   UNL     1       1.001   8.218  21.584  0.00  0.00    +0.000 HD
ATOM     31  H   UNL     1       1.413   9.083  18.150  0.00  0.00    +0.000 HD
BRANCH  28  32
ATOM     32  N   UNL     1       0.584   9.975  19.738  0.00  0.00    +0.000 N 
ATOM     33  O   UNL     1       1.074  10.645  20.661  0.00  0.00    +0.000 OA
ATOM     34  O   UNL     1      -0.562  10.072  19.301  0.00  0.00    +0.000 OA
ENDBRANCH  28  32
ENDBRANCH  24  25
ENDBRANCH  23  24
ENDBRANCH  22  23
ENDBRANCH   1  22
TORSDOF 14
ENDMDL
MODEL 9
REMARK VINA RESULT:      -6.5      2.780      7.041
REMARK  Name = 
REMARK  14 active torsions:
REMARK  status: ('A' for Active; 'I' for Inactive)
REMARK    1  A    between atoms: N_1  and  C_2
REMARK    2  A    between atoms: C_2  and  C_3
REMARK    3  A    between atoms: C_3  and  C_4
REMARK    4  A    between atoms: C_4  and  C_5
REMARK    5  A    between atoms: C_5  and  C_6
REMARK    6  A    between atoms: C_6  and  N_7
REMARK    7  A    between atoms: C_6  and  C_8
REMARK    8  A    between atoms: N_10  and  C_11
REMARK    9  A    between atoms: C_11  and  C_12
REMARK   10  A    between atoms: C_11  and  C_22
REMARK   11  A    between atoms: C_12  and  C_13
REMARK   12  A    between atoms: C_13  and  C_14
REMARK   13  A    between atoms: C_14  and  N_15
REMARK   14  A    between atoms: N_18  and  N_19
REMARK                            x       y       z     vdW  Elec       q    Type
REMARK                         _______ _______ _______ _____ _____    ______ ____
ROOT
ATOM      1  C   UNL     1       6.447   5.944  17.017  0.00  0.00    +0.000 C 
ENDROOT
BRANCH   1   2
ATOM      2  C   UNL     1       7.437   6.873  17.761  0.00  0.00    +0.000 C 
ATOM      3  N   UNL     1       7.661   8.090  17.164  0.00  0.00    +0.000 N 
ATOM      4  O   UNL     1       8.061   6.581  18.775  0.00  0.00    +0.000 OA
ATOM      5  H   UNL     1       7.081   8.463  16.426  0.00  0.00    +0.000 HD
ATOM      6  H   UNL     1       8.327   8.708  17.611  0.00  0.00    +0.000 HD
ENDBRANCH   1   2
BRANCH   1   9
ATOM      7  C   UNL     1       6.773   4.431  14.990  0.00  0.00    +0.000 C 
ATOM      8  O   UNL     1       6.137   3.472  15.410  0.00  0.00    +0.000 OA
ATOM      9  N   UNL     1       6.996   5.599  15.702  0.00  0.00    +0.000 N 
ATOM     10  H   UNL     1       7.426   6.327  15.132  0.00  0.00    +0.000 HD
BRANCH   7  11
ATOM     11  C   UNL     1       7.504   4.449  13.613  0.00  0.00    +0.000 C 
BRANCH  11  12
ATOM     12  N   UNL     1       8.328   5.691  13.538  0.00  0.00    +0.000 NA
ATOM     13  H   UNL     1       8.665   5.769  12.575  0.00  0.00    +0.000 HD
ATOM     14  H   UNL     1       9.170   5.546  14.100  0.00  0.00    +0.000 HD
ENDBRANCH  11  12
BRANCH  11  15
ATOM     15  C   UNL     1       6.546   4.343  12.411  0.00  0.00    +0.000 C 
BRANCH  15  16
ATOM     16  C   UNL     1       5.467   3.268  12.620  0.00  0.00    +0.000 C 
BRANCH  16  17
ATOM     17  C   UNL     1       5.300   2.339  11.418  0.00  0.00    +0.000 C 
BRANCH  17  18
ATOM     18  C   UNL     1       6.562   1.489  11.238  0.00  0.00    +0.000 C 
BRANCH  18  19
ATOM     19  N   UNL     1       6.222   0.076  11.180  0.00  0.00    +0.000 NA
ATOM     20  H   UNL     1       5.238  -0.026  10.935  0.00  0.00    +0.000 HD
ATOM     21  H   UNL     1       6.332  -0.344  12.102  0.00  0.00    +0.000 HD
ENDBRANCH  18  19
ENDBRANCH  17  18
ENDBRANCH  16  17
ENDBRANCH  15  16
ENDBRANCH  11  15
ENDBRANCH   7  11
ENDBRANCH   1   9
BRANCH   1  22
ATOM     22  C   UNL     1       4.983   6.414  16.963  0.00  0.00    +0.000 C 
BRANCH  22  23
ATOM     23  C   UNL     1       4.124   6.066  18.193  0.00  0.00    +0.000 C 
BRANCH  23  24
ATOM     24  C   UNL     1       2.848   5.284  17.906  0.00  0.00    +0.000 C 
BRANCH  24  25
ATOM     25  N   UNL     1       3.218   3.914  17.552  0.00  0.00    +0.000 NA
ATOM     26  C   UNL     1       3.519   3.083  18.501  0.00  0.00    +0.000 C 
ATOM     27  N   UNL     1       3.950   1.877  18.057  0.00  0.00    +0.000 N 
ATOM     28  N   UNL     1       3.478   3.343  19.839  0.00  0.00    +0.000 N 
ATOM     29  H   UNL     1       3.735   1.710  17.080  0.00  0.00    +0.000 HD
ATOM     30  H   UNL     1       3.822   1.071  18.661  0.00  0.00    +0.000 HD
ATOM     31  H   UNL     1       3.175   4.260  20.119  0.00  0.00    +0.000 HD
BRANCH  28  32
ATOM     32  N   UNL     1       3.792   2.489  20.819  0.00  0.00    +0.000 N 
ATOM     33  O   UNL     1       3.018   2.322  21.774  0.00  0.00    +0.000 OA
ATOM     34  O   UNL     1       4.892   1.957  20.675  0.00  0.00    +0.000 OA
ENDBRANCH  28  32
ENDBRANCH  24  25
ENDBRANCH  23  24
ENDBRANCH  22  23
ENDBRANCH   1  22
TORSDOF 14
ENDMDL
