MODEL 1
REMARK VINA RESULT:      -7.9      0.000      0.000
REMARK  Name = 
REMARK  9 active torsions:
REMARK  status: ('A' for Active; 'I' for Inactive)
REMARK    1  A    between atoms: O_1  and  C_2
REMARK    2  A    between atoms: C_2  and  C_3
REMARK    3  A    between atoms: C_2  and  C_24
REMARK    4  A    between atoms: C_3  and  N_4
REMARK    5  A    between atoms: N_4  and  C_5
REMARK    6  A    between atoms: C_5  and  C_6
REMARK    7  A    between atoms: C_6  and  C_7
REMARK    8  A    between atoms: C_10  and  C_11
REMARK    9  A    between atoms: C_14  and  C_15
REMARK                            x       y       z     vdW  Elec       q    Type
REMARK                         _______ _______ _______ _____ _____    ______ ____
ROOT
ATOM      1  C   UNL     1       2.664   6.942  19.196  0.00  0.00    +0.000 A 
ATOM      2  C   UNL     1       2.606   7.636  17.982  0.00  0.00    +0.000 A 
ATOM      3  C   UNL     1       1.855   8.807  17.870  0.00  0.00    +0.000 A 
ATOM      4  C   UNL     1       1.127   9.294  18.964  0.00  0.00    +0.000 A 
ATOM      5  C   UNL     1       1.202   8.610  20.183  0.00  0.00    +0.000 A 
ATOM      6  C   UNL     1       1.958   7.442  20.298  0.00  0.00    +0.000 A 
ENDROOT
BRANCH   4   7
ATOM      7  C   UNL     1       0.271  10.468  18.853  0.00  0.00    +0.000 A 
ATOM      8  C   UNL     1       0.752  11.758  18.766  0.00  0.00    +0.000 A 
ATOM      9  S   UNL     1      -0.540  12.856  18.567  0.00  0.00    +0.000 S 
ATOM     10  C   UNL     1      -1.657  11.541  18.583  0.00  0.00    +0.000 A 
ATOM     11  N   UNL     1      -1.107  10.354  18.760  0.00  0.00    +0.000 NA
BRANCH  10  12
ATOM     12  C   UNL     1      -3.104  11.779  18.457  0.00  0.00    +0.000 A 
ATOM     13  C   UNL     1      -3.877  12.279  19.516  0.00  0.00    +0.000 A 
ATOM     14  C   UNL     1      -5.255  12.465  19.373  0.00  0.00    +0.000 A 
ATOM     15  C   UNL     1      -5.876  12.163  18.164  0.00  0.00    +0.000 A 
ATOM     16  C   UNL     1      -5.122  11.689  17.094  0.00  0.00    +0.000 A 
ATOM     17  C   UNL     1      -3.743  11.505  17.237  0.00  0.00    +0.000 A 
ENDBRANCH  10  12
ENDBRANCH   4   7
BRANCH   1  18
ATOM     18  C   UNL     1       3.506   5.695  19.333  0.00  0.00    +0.000 C 
BRANCH  18  19
ATOM     19  C   UNL     1       2.787   4.422  18.856  0.00  0.00    +0.000 C 
BRANCH  19  20
ATOM     20  N   UNL     1       3.069   4.145  17.441  0.00  0.00    +0.000 NA
ATOM     21  H   UNL     1       2.304   3.568  17.082  0.00  0.00    +0.000 HD
BRANCH  20  22
ATOM     22  C   UNL     1       4.325   3.387  17.295  0.00  0.00    +0.000 C 
BRANCH  22  23
ATOM     23  C   UNL     1       5.264   4.065  16.272  0.00  0.00    +0.000 C 
BRANCH  23  24
ATOM     24  C   UNL     1       6.146   5.093  16.934  0.00  0.00    +0.000 A 
ATOM     25  C   UNL     1       6.929   4.806  18.055  0.00  0.00    +0.000 A 
ATOM     26  C   UNL     1       7.707   5.807  18.629  0.00  0.00    +0.000 A 
ATOM     27  C   UNL     1       7.671   7.071  18.066  0.00  0.00    +0.000 A 
ATOM     28  N   UNL     1       6.917   7.393  16.994  0.00  0.00    +0.000 NA
ATOM     29  C   UNL     1       6.178   6.399  16.454  0.00  0.00    +0.000 A 
ENDBRANCH  23  24
BRANCH  23  30
ATOM     30  O   UNL     1       6.073   3.074  15.628  0.00  0.00    +0.000 OA
ATOM     31  H   UNL     1       5.456   2.378  15.342  0.00  0.00    +0.000 HD
ENDBRANCH  23  30
ENDBRANCH  22  23
ENDBRANCH  20  22
ENDBRANCH  19  20
ENDBRANCH  18  19
ENDBRANCH   1  18
TORSDOF 9
ENDMDL
MODEL 2
REMARK VINA RESULT:      -7.8      2.708      4.424
REMARK  Name = 
REMARK  9 active torsions:
REMARK  status: ('A' for Active; 'I' for Inactive)
REMARK    1  A    between atoms: O_1  and  C_2
REMARK    2  A    between atoms: C_2  and  C_3
REMARK    3  A    between atoms: C_2  and  C_24
REMARK    4  A    between atoms: C_3  and  N_4
REMARK    5  A    between atoms: N_4  and  C_5
REMARK    6  A    between atoms: C_5  and  C_6
REMARK    7  A    between atoms: C_6  and  C_7
REMARK    8  A    between atoms: C_10  and  C_11
REMARK    9  A    between atoms: C_14  and  C_15
REMARK                            x       y       z     vdW  Elec       q    Type
REMARK                         _______ _______ _______ _____ _____    ______ ____
ROOT
ATOM      1  C   UNL     1       3.047   6.694  18.383  0.00  0.00    +0.000 A 
ATOM      2  C   UNL     1       2.660   6.203  19.635  0.00  0.00    +0.000 A 
ATOM      3  C   UNL     1       1.856   6.970  20.479  0.00  0.00    +0.000 A 
ATOM      4  C   UNL     1       1.443   8.253  20.098  0.00  0.00    +0.000 A 
ATOM      5  C   UNL     1       1.815   8.735  18.837  0.00  0.00    +0.000 A 
ATOM      6  C   UNL     1       2.614   7.966  17.989  0.00  0.00    +0.000 A 
ENDROOT
BRANCH   4   7
ATOM      7  C   UNL     1       0.671   9.107  20.991  0.00  0.00    +0.000 A 
ATOM      8  C   UNL     1       0.364   8.770  22.293  0.00  0.00    +0.000 A 
ATOM      9  S   UNL     1      -0.478  10.048  23.049  0.00  0.00    +0.000 S 
ATOM     10  C   UNL     1      -0.357  10.981  21.603  0.00  0.00    +0.000 A 
ATOM     11  N   UNL     1       0.245  10.367  20.601  0.00  0.00    +0.000 NA
BRANCH  10  12
ATOM     12  C   UNL     1      -0.940  12.329  21.525  0.00  0.00    +0.000 A 
ATOM     13  C   UNL     1      -0.547  13.369  22.382  0.00  0.00    +0.000 A 
ATOM     14  C   UNL     1      -1.143  14.630  22.301  0.00  0.00    +0.000 A 
ATOM     15  C   UNL     1      -2.136  14.872  21.355  0.00  0.00    +0.000 A 
ATOM     16  C   UNL     1      -2.522  13.860  20.479  0.00  0.00    +0.000 A 
ATOM     17  C   UNL     1      -1.924  12.599  20.559  0.00  0.00    +0.000 A 
ENDBRANCH  10  12
ENDBRANCH   4   7
BRANCH   1  18
ATOM     18  C   UNL     1       3.886   5.852  17.450  0.00  0.00    +0.000 C 
BRANCH  18  19
ATOM     19  C   UNL     1       5.136   5.260  18.124  0.00  0.00    +0.000 C 
BRANCH  19  20
ATOM     20  N   UNL     1       5.447   3.923  17.598  0.00  0.00    +0.000 NA
ATOM     21  H   UNL     1       5.834   4.046  16.659  0.00  0.00    +0.000 HD
BRANCH  20  22
ATOM     22  C   UNL     1       4.226   3.105  17.490  0.00  0.00    +0.000 C 
BRANCH  22  23
ATOM     23  C   UNL     1       4.159   2.061  18.627  0.00  0.00    +0.000 C 
BRANCH  23  24
ATOM     24  C   UNL     1       3.092   2.412  19.632  0.00  0.00    +0.000 A 
ATOM     25  C   UNL     1       1.760   2.633  19.275  0.00  0.00    +0.000 A 
ATOM     26  C   UNL     1       0.829   2.974  20.252  0.00  0.00    +0.000 A 
ATOM     27  C   UNL     1       1.263   3.091  21.561  0.00  0.00    +0.000 A 
ATOM     28  N   UNL     1       2.544   2.902  21.946  0.00  0.00    +0.000 NA
ATOM     29  C   UNL     1       3.423   2.565  20.977  0.00  0.00    +0.000 A 
ENDBRANCH  23  24
BRANCH  23  30
ATOM     30  O   UNL     1       3.897   0.764  18.076  0.00  0.00    +0.000 OA
ATOM     31  H   UNL     1       2.972   0.565  18.306  0.00  0.00    +0.000 HD
ENDBRANCH  23  30
ENDBRANCH  22  23
ENDBRANCH  20  22
ENDBRANCH  19  20
ENDBRANCH  18  19
ENDBRANCH   1  18
TORSDOF 9
ENDMDL
MODEL 3
REMARK VINA RESULT:      -7.7      2.615      4.470
REMARK  Name = 
REMARK  9 active torsions:
REMARK  status: ('A' for Active; 'I' for Inactive)
REMARK    1  A    between atoms: O_1  and  C_2
REMARK    2  A    between atoms: C_2  and  C_3
REMARK    3  A    between atoms: C_2  and  C_24
REMARK    4  A    between atoms: C_3  and  N_4
REMARK    5  A    between atoms: N_4  and  C_5
REMARK    6  A    between atoms: C_5  and  C_6
REMARK    7  A    between atoms: C_6  and  C_7
REMARK    8  A    between atoms: C_10  and  C_11
REMARK    9  A    between atoms: C_14  and  C_15
REMARK                            x       y       z     vdW  Elec       q    Type
REMARK                         _______ _______ _______ _____ _____    ______ ____
ROOT
ATOM      1  C   UNL     1       2.002   6.915  20.006  0.00  0.00    +0.000 A 
ATOM      2  C   UNL     1       1.289   7.698  20.921  0.00  0.00    +0.000 A 
ATOM      3  C   UNL     1       0.880   8.989  20.582  0.00  0.00    +0.000 A 
ATOM      4  C   UNL     1       1.197   9.531  19.330  0.00  0.00    +0.000 A 
ATOM      5  C   UNL     1       1.893   8.740  18.408  0.00  0.00    +0.000 A 
ATOM      6  C   UNL     1       2.297   7.446  18.744  0.00  0.00    +0.000 A 
ENDROOT
BRANCH   4   7
ATOM      7  C   UNL     1       0.854  10.902  18.980  0.00  0.00    +0.000 A 
ATOM      8  C   UNL     1      -0.442  11.345  18.808  0.00  0.00    +0.000 A 
ATOM      9  S   UNL     1      -0.453  13.022  18.485  0.00  0.00    +0.000 S 
ATOM     10  C   UNL     1       1.267  13.058  18.622  0.00  0.00    +0.000 A 
ATOM     11  N   UNL     1       1.824  11.885  18.860  0.00  0.00    +0.000 NA
BRANCH  10  12
ATOM     12  C   UNL     1       2.012  14.312  18.428  0.00  0.00    +0.000 A 
ATOM     13  C   UNL     1       1.451  15.569  18.704  0.00  0.00    +0.000 A 
ATOM     14  C   UNL     1       2.176  16.742  18.480  0.00  0.00    +0.000 A 
ATOM     15  C   UNL     1       3.476  16.674  17.986  0.00  0.00    +0.000 A 
ATOM     16  C   UNL     1       4.058  15.435  17.730  0.00  0.00    +0.000 A 
ATOM     17  C   UNL     1       3.333  14.261  17.956  0.00  0.00    +0.000 A 
ENDBRANCH  10  12
ENDBRANCH   4   7
BRANCH   1  18
ATOM     18  C   UNL     1       2.414   5.504  20.354  0.00  0.00    +0.000 C 
BRANCH  18  19
ATOM     19  C   UNL     1       1.221   4.545  20.516  0.00  0.00    +0.000 C 
BRANCH  19  20
ATOM     20  N   UNL     1       1.201   3.530  19.454  0.00  0.00    +0.000 NA
ATOM     21  H   UNL     1       0.306   3.036  19.519  0.00  0.00    +0.000 HD
BRANCH  20  22
ATOM     22  C   UNL     1       2.284   2.549  19.645  0.00  0.00    +0.000 C 
BRANCH  22  23
ATOM     23  C   UNL     1       3.060   2.320  18.329  0.00  0.00    +0.000 C 
BRANCH  23  24
ATOM     24  C   UNL     1       4.072   3.412  18.091  0.00  0.00    +0.000 A 
ATOM     25  C   UNL     1       4.051   4.227  16.957  0.00  0.00    +0.000 A 
ATOM     26  C   UNL     1       5.027   5.205  16.790  0.00  0.00    +0.000 A 
ATOM     27  C   UNL     1       6.002   5.333  17.765  0.00  0.00    +0.000 A 
ATOM     28  N   UNL     1       6.067   4.556  18.867  0.00  0.00    +0.000 NA
ATOM     29  C   UNL     1       5.102   3.621  19.005  0.00  0.00    +0.000 A 
ENDBRANCH  23  24
BRANCH  23  30
ATOM     30  O   UNL     1       3.720   1.050  18.373  0.00  0.00    +0.000 OA
ATOM     31  H   UNL     1       3.825   0.842  19.318  0.00  0.00    +0.000 HD
ENDBRANCH  23  30
ENDBRANCH  22  23
ENDBRANCH  20  22
ENDBRANCH  19  20
ENDBRANCH  18  19
ENDBRANCH   1  18
TORSDOF 9
ENDMDL
MODEL 4
REMARK VINA RESULT:      -7.7      0.210      1.280
REMARK  Name = 
REMARK  9 active torsions:
REMARK  status: ('A' for Active; 'I' for Inactive)
REMARK    1  A    between atoms: O_1  and  C_2
REMARK    2  A    between atoms: C_2  and  C_3
REMARK    3  A    between atoms: C_2  and  C_24
REMARK    4  A    between atoms: C_3  and  N_4
REMARK    5  A    between atoms: N_4  and  C_5
REMARK    6  A    between atoms: C_5  and  C_6
REMARK    7  A    between atoms: C_6  and  C_7
REMARK    8  A    between atoms: C_10  and  C_11
REMARK    9  A    between atoms: C_14  and  C_15
REMARK                            x       y       z     vdW  Elec       q    Type
REMARK                         _______ _______ _______ _____ _____    ______ ____
ROOT
ATOM      1  C   UNL     1       2.625   7.020  19.283  0.00  0.00    +0.000 A 
ATOM      2  C   UNL     1       1.962   7.497  20.419  0.00  0.00    +0.000 A 
ATOM      3  C   UNL     1       1.104   8.595  20.331  0.00  0.00    +0.000 A 
ATOM      4  C   UNL     1       0.911   9.252  19.109  0.00  0.00    +0.000 A 
ATOM      5  C   UNL     1       1.560   8.761  17.969  0.00  0.00    +0.000 A 
ATOM      6  C   UNL     1       2.414   7.659  18.055  0.00  0.00    +0.000 A 
ENDROOT
BRANCH   4   7
ATOM      7  C   UNL     1       0.086  10.447  19.003  0.00  0.00    +0.000 A 
ATOM      8  C   UNL     1       0.599  11.725  18.922  0.00  0.00    +0.000 A 
ATOM      9  S   UNL     1      -0.665  12.856  18.728  0.00  0.00    +0.000 S 
ATOM     10  C   UNL     1      -1.815  11.570  18.738  0.00  0.00    +0.000 A 
ATOM     11  N   UNL     1      -1.295  10.369  18.910  0.00  0.00    +0.000 NA
BRANCH  10  12
ATOM     12  C   UNL     1      -3.254  11.846  18.614  0.00  0.00    +0.000 A 
ATOM     13  C   UNL     1      -3.992  11.491  17.474  0.00  0.00    +0.000 A 
ATOM     14  C   UNL     1      -5.352  11.796  17.376  0.00  0.00    +0.000 A 
ATOM     15  C   UNL     1      -5.996  12.451  18.422  0.00  0.00    +0.000 A 
ATOM     16  C   UNL     1      -5.288  12.788  19.572  0.00  0.00    +0.000 A 
ATOM     17  C   UNL     1      -3.927  12.482  19.671  0.00  0.00    +0.000 A 
ENDBRANCH  10  12
ENDBRANCH   4   7
BRANCH   1  18
ATOM     18  C   UNL     1       3.526   5.809  19.366  0.00  0.00    +0.000 C 
BRANCH  18  19
ATOM     19  C   UNL     1       2.842   4.511  18.904  0.00  0.00    +0.000 C 
BRANCH  19  20
ATOM     20  N   UNL     1       3.099   4.246  17.482  0.00  0.00    +0.000 NA
ATOM     21  H   UNL     1       2.304   3.713  17.120  0.00  0.00    +0.000 HD
BRANCH  20  22
ATOM     22  C   UNL     1       4.316   3.432  17.312  0.00  0.00    +0.000 C 
BRANCH  22  23
ATOM     23  C   UNL     1       5.278   4.083  16.293  0.00  0.00    +0.000 C 
BRANCH  23  24
ATOM     24  C   UNL     1       6.166   5.107  16.954  0.00  0.00    +0.000 A 
ATOM     25  C   UNL     1       6.936   4.822  18.084  0.00  0.00    +0.000 A 
ATOM     26  C   UNL     1       7.720   5.820  18.656  0.00  0.00    +0.000 A 
ATOM     27  C   UNL     1       7.703   7.079  18.081  0.00  0.00    +0.000 A 
ATOM     28  N   UNL     1       6.962   7.399  16.999  0.00  0.00    +0.000 NA
ATOM     29  C   UNL     1       6.217   6.409  16.462  0.00  0.00    +0.000 A 
ENDBRANCH  23  24
BRANCH  23  30
ATOM     30  O   UNL     1       6.082   3.072  15.674  0.00  0.00    +0.000 OA
ATOM     31  H   UNL     1       6.872   2.987  16.235  0.00  0.00    +0.000 HD
ENDBRANCH  23  30
ENDBRANCH  22  23
ENDBRANCH  20  22
ENDBRANCH  19  20
ENDBRANCH  18  19
ENDBRANCH   1  18
TORSDOF 9
ENDMDL
MODEL 5
REMARK VINA RESULT:      -7.7      2.792      4.333
REMARK  Name = 
REMARK  9 active torsions:
REMARK  status: ('A' for Active; 'I' for Inactive)
REMARK    1  A    between atoms: O_1  and  C_2
REMARK    2  A    between atoms: C_2  and  C_3
REMARK    3  A    between atoms: C_2  and  C_24
REMARK    4  A    between atoms: C_3  and  N_4
REMARK    5  A    between atoms: N_4  and  C_5
REMARK    6  A    between atoms: C_5  and  C_6
REMARK    7  A    between atoms: C_6  and  C_7
REMARK    8  A    between atoms: C_10  and  C_11
REMARK    9  A    between atoms: C_14  and  C_15
REMARK                            x       y       z     vdW  Elec       q    Type
REMARK                         _______ _______ _______ _____ _____    ______ ____
ROOT
ATOM      1  C   UNL     1       2.884   7.015  18.290  0.00  0.00    +0.000 A 
ATOM      2  C   UNL     1       2.393   8.263  17.890  0.00  0.00    +0.000 A 
ATOM      3  C   UNL     1       1.650   9.048  18.774  0.00  0.00    +0.000 A 
ATOM      4  C   UNL     1       1.363   8.590  20.066  0.00  0.00    +0.000 A 
ATOM      5  C   UNL     1       1.871   7.349  20.471  0.00  0.00    +0.000 A 
ATOM      6  C   UNL     1       2.620   6.566  19.590  0.00  0.00    +0.000 A 
ENDROOT
BRANCH   4   7
ATOM      7  C   UNL     1       0.523   9.351  20.980  0.00  0.00    +0.000 A 
ATOM      8  C   UNL     1       0.282   8.978  22.286  0.00  0.00    +0.000 A 
ATOM      9  S   UNL     1      -0.678  10.155  23.067  0.00  0.00    +0.000 S 
ATOM     10  C   UNL     1      -0.690  11.100  21.624  0.00  0.00    +0.000 A 
ATOM     11  N   UNL     1      -0.047  10.559  20.606  0.00  0.00    +0.000 NA
BRANCH  10  12
ATOM     12  C   UNL     1      -1.418  12.377  21.566  0.00  0.00    +0.000 A 
ATOM     13  C   UNL     1      -1.254  13.288  20.510  0.00  0.00    +0.000 A 
ATOM     14  C   UNL     1      -1.938  14.506  20.502  0.00  0.00    +0.000 A 
ATOM     15  C   UNL     1      -2.804  14.827  21.545  0.00  0.00    +0.000 A 
ATOM     16  C   UNL     1      -2.998  13.926  22.588  0.00  0.00    +0.000 A 
ATOM     17  C   UNL     1      -2.315  12.706  22.595  0.00  0.00    +0.000 A 
ENDBRANCH  10  12
ENDBRANCH   4   7
BRANCH   1  18
ATOM     18  C   UNL     1       3.721   6.178  17.350  0.00  0.00    +0.000 C 
BRANCH  18  19
ATOM     19  C   UNL     1       5.178   6.018  17.815  0.00  0.00    +0.000 C 
BRANCH  19  20
ATOM     20  N   UNL     1       5.470   4.629  18.195  0.00  0.00    +0.000 NA
ATOM     21  H   UNL     1       6.350   4.365  17.742  0.00  0.00    +0.000 HD
BRANCH  20  22
ATOM     22  C   UNL     1       4.414   3.721  17.716  0.00  0.00    +0.000 C 
BRANCH  22  23
ATOM     23  C   UNL     1       4.289   2.484  18.634  0.00  0.00    +0.000 C 
BRANCH  23  24
ATOM     24  C   UNL     1       3.175   2.655  19.636  0.00  0.00    +0.000 A 
ATOM     25  C   UNL     1       1.872   2.996  19.265  0.00  0.00    +0.000 A 
ATOM     26  C   UNL     1       0.895   3.157  20.243  0.00  0.00    +0.000 A 
ATOM     27  C   UNL     1       1.256   2.980  21.568  0.00  0.00    +0.000 A 
ATOM     28  N   UNL     1       2.507   2.666  21.969  0.00  0.00    +0.000 NA
ATOM     29  C   UNL     1       3.431   2.508  20.997  0.00  0.00    +0.000 A 
ENDBRANCH  23  24
BRANCH  23  30
ATOM     30  O   UNL     1       4.052   1.315  17.841  0.00  0.00    +0.000 OA
ATOM     31  H   UNL     1       4.484   1.488  16.986  0.00  0.00    +0.000 HD
ENDBRANCH  23  30
ENDBRANCH  22  23
ENDBRANCH  20  22
ENDBRANCH  19  20
ENDBRANCH  18  19
ENDBRANCH   1  18
TORSDOF 9
ENDMDL
MODEL 6
REMARK VINA RESULT:      -7.7      2.313      3.829
REMARK  Name = 
REMARK  9 active torsions:
REMARK  status: ('A' for Active; 'I' for Inactive)
REMARK    1  A    between atoms: O_1  and  C_2
REMARK    2  A    between atoms: C_2  and  C_3
REMARK    3  A    between atoms: C_2  and  C_24
REMARK    4  A    between atoms: C_3  and  N_4
REMARK    5  A    between atoms: N_4  and  C_5
REMARK    6  A    between atoms: C_5  and  C_6
REMARK    7  A    between atoms: C_6  and  C_7
REMARK    8  A    between atoms: C_10  and  C_11
REMARK    9  A    between atoms: C_14  and  C_15
REMARK                            x       y       z     vdW  Elec       q    Type
REMARK                         _______ _______ _______ _____ _____    ______ ____
ROOT
ATOM      1  C   UNL     1       2.138   6.800  19.765  0.00  0.00    +0.000 A 
ATOM      2  C   UNL     1       2.406   7.366  18.514  0.00  0.00    +0.000 A 
ATOM      3  C   UNL     1       2.026   8.680  18.234  0.00  0.00    +0.000 A 
ATOM      4  C   UNL     1       1.350   9.446  19.193  0.00  0.00    +0.000 A 
ATOM      5  C   UNL     1       1.100   8.885  20.451  0.00  0.00    +0.000 A 
ATOM      6  C   UNL     1       1.485   7.572  20.734  0.00  0.00    +0.000 A 
ENDROOT
BRANCH   4   7
ATOM      7  C   UNL     1       0.871  10.790  18.901  0.00  0.00    +0.000 A 
ATOM      8  C   UNL     1      -0.463  11.111  18.756  0.00  0.00    +0.000 A 
ATOM      9  S   UNL     1      -0.641  12.790  18.502  0.00  0.00    +0.000 S 
ATOM     10  C   UNL     1       1.069  12.988  18.628  0.00  0.00    +0.000 A 
ATOM     11  N   UNL     1       1.740  11.867  18.815  0.00  0.00    +0.000 NA
BRANCH  10  12
ATOM     12  C   UNL     1       1.686  14.315  18.481  0.00  0.00    +0.000 A 
ATOM     13  C   UNL     1       1.034  15.495  18.871  0.00  0.00    +0.000 A 
ATOM     14  C   UNL     1       1.636  16.742  18.689  0.00  0.00    +0.000 A 
ATOM     15  C   UNL     1       2.906  16.826  18.123  0.00  0.00    +0.000 A 
ATOM     16  C   UNL     1       3.579  15.665  17.752  0.00  0.00    +0.000 A 
ATOM     17  C   UNL     1       2.977  14.417  17.936  0.00  0.00    +0.000 A 
ENDBRANCH  10  12
ENDBRANCH   4   7
BRANCH   1  18
ATOM     18  C   UNL     1       2.581   5.391  20.085  0.00  0.00    +0.000 C 
BRANCH  18  19
ATOM     19  C   UNL     1       1.984   4.337  19.137  0.00  0.00    +0.000 C 
BRANCH  19  20
ATOM     20  N   UNL     1       3.026   3.454  18.593  0.00  0.00    +0.000 NA
ATOM     21  H   UNL     1       3.594   3.130  19.381  0.00  0.00    +0.000 HD
BRANCH  20  22
ATOM     22  C   UNL     1       3.902   4.188  17.663  0.00  0.00    +0.000 C 
BRANCH  22  23
ATOM     23  C   UNL     1       5.391   3.917  17.977  0.00  0.00    +0.000 C 
BRANCH  23  24
ATOM     24  C   UNL     1       6.212   5.177  17.865  0.00  0.00    +0.000 A 
ATOM     25  C   UNL     1       7.244   5.486  18.754  0.00  0.00    +0.000 A 
ATOM     26  C   UNL     1       7.951   6.676  18.605  0.00  0.00    +0.000 A 
ATOM     27  C   UNL     1       7.596   7.526  17.572  0.00  0.00    +0.000 A 
ATOM     28  N   UNL     1       6.595   7.272  16.702  0.00  0.00    +0.000 NA
ATOM     29  C   UNL     1       5.932   6.107  16.867  0.00  0.00    +0.000 A 
ENDBRANCH  23  24
BRANCH  23  30
ATOM     30  O   UNL     1       5.515   3.373  19.296  0.00  0.00    +0.000 OA
ATOM     31  H   UNL     1       5.530   4.140  19.895  0.00  0.00    +0.000 HD
ENDBRANCH  23  30
ENDBRANCH  22  23
ENDBRANCH  20  22
ENDBRANCH  19  20
ENDBRANCH  18  19
ENDBRANCH   1  18
TORSDOF 9
ENDMDL
MODEL 7
REMARK VINA RESULT:      -7.6      2.626      4.367
REMARK  Name = 
REMARK  9 active torsions:
REMARK  status: ('A' for Active; 'I' for Inactive)
REMARK    1  A    between atoms: O_1  and  C_2
REMARK    2  A    between atoms: C_2  and  C_3
REMARK    3  A    between atoms: C_2  and  C_24
REMARK    4  A    between atoms: C_3  and  N_4
REMARK    5  A    between atoms: N_4  and  C_5
REMARK    6  A    between atoms: C_5  and  C_6
REMARK    7  A    between atoms: C_6  and  C_7
REMARK    8  A    between atoms: C_10  and  C_11
REMARK    9  A    between atoms: C_14  and  C_15
REMARK                            x       y       z     vdW  Elec       q    Type
REMARK                         _______ _______ _______ _____ _____    ______ ____
ROOT
ATOM      1  C   UNL     1       3.721   6.616  17.652  0.00  0.00    +0.000 A 
ATOM      2  C   UNL     1       3.175   7.863  17.329  0.00  0.00    +0.000 A 
ATOM      3  C   UNL     1       2.383   8.549  18.251  0.00  0.00    +0.000 A 
ATOM      4  C   UNL     1       2.102   7.991  19.505  0.00  0.00    +0.000 A 
ATOM      5  C   UNL     1       2.666   6.752  19.834  0.00  0.00    +0.000 A 
ATOM      6  C   UNL     1       3.464   6.067  18.915  0.00  0.00    +0.000 A 
ENDROOT
BRANCH   4   7
ATOM      7  C   UNL     1       1.214   8.648  20.454  0.00  0.00    +0.000 A 
ATOM      8  C   UNL     1       0.903   8.128  21.694  0.00  0.00    +0.000 A 
ATOM      9  S   UNL     1      -0.097   9.213  22.553  0.00  0.00    +0.000 S 
ATOM     10  C   UNL     1      -0.030  10.319  21.230  0.00  0.00    +0.000 A 
ATOM     11  N   UNL     1       0.667   9.894  20.193  0.00  0.00    +0.000 NA
BRANCH  10  12
ATOM     12  C   UNL     1      -0.754  11.599  21.282  0.00  0.00    +0.000 A 
ATOM     13  C   UNL     1      -0.908  12.328  22.472  0.00  0.00    +0.000 A 
ATOM     14  C   UNL     1      -1.627  13.525  22.491  0.00  0.00    +0.000 A 
ATOM     15  C   UNL     1      -2.194  14.017  21.318  0.00  0.00    +0.000 A 
ATOM     16  C   UNL     1      -2.030  13.321  20.123  0.00  0.00    +0.000 A 
ATOM     17  C   UNL     1      -1.309  12.124  20.103  0.00  0.00    +0.000 A 
ENDBRANCH  10  12
ENDBRANCH   4   7
BRANCH   1  18
ATOM     18  C   UNL     1       4.610   5.886  16.672  0.00  0.00    +0.000 C 
BRANCH  18  19
ATOM     19  C   UNL     1       5.599   4.923  17.350  0.00  0.00    +0.000 C 
BRANCH  19  20
ATOM     20  N   UNL     1       5.385   3.537  16.911  0.00  0.00    +0.000 NA
ATOM     21  H   UNL     1       5.406   3.532  15.887  0.00  0.00    +0.000 HD
BRANCH  20  22
ATOM     22  C   UNL     1       4.066   3.046  17.347  0.00  0.00    +0.000 C 
BRANCH  22  23
ATOM     23  C   UNL     1       4.191   2.187  18.625  0.00  0.00    +0.000 C 
BRANCH  23  24
ATOM     24  C   UNL     1       3.091   2.501  19.607  0.00  0.00    +0.000 A 
ATOM     25  C   UNL     1       1.786   2.800  19.210  0.00  0.00    +0.000 A 
ATOM     26  C   UNL     1       0.823   3.101  20.168  0.00  0.00    +0.000 A 
ATOM     27  C   UNL     1       1.199   3.101  21.500  0.00  0.00    +0.000 A 
ATOM     28  N   UNL     1       2.453   2.833  21.925  0.00  0.00    +0.000 NA
ATOM     29  C   UNL     1       3.364   2.537  20.972  0.00  0.00    +0.000 A 
ENDBRANCH  23  24
BRANCH  23  30
ATOM     30  O   UNL     1       4.148   0.797  18.278  0.00  0.00    +0.000 OA
ATOM     31  H   UNL     1       5.068   0.550  18.079  0.00  0.00    +0.000 HD
ENDBRANCH  23  30
ENDBRANCH  22  23
ENDBRANCH  20  22
ENDBRANCH  19  20
ENDBRANCH  18  19
ENDBRANCH   1  18
TORSDOF 9
ENDMDL
MODEL 8
REMARK VINA RESULT:      -7.6      2.376      4.095
REMARK  Name = 
REMARK  9 active torsions:
REMARK  status: ('A' for Active; 'I' for Inactive)
REMARK    1  A    between atoms: O_1  and  C_2
REMARK    2  A    between atoms: C_2  and  C_3
REMARK    3  A    between atoms: C_2  and  C_24
REMARK    4  A    between atoms: C_3  and  N_4
REMARK    5  A    between atoms: N_4  and  C_5
REMARK    6  A    between atoms: C_5  and  C_6
REMARK    7  A    between atoms: C_6  and  C_7
REMARK    8  A    between atoms: C_10  and  C_11
REMARK    9  A    between atoms: C_14  and  C_15
REMARK                            x       y       z     vdW  Elec       q    Type
REMARK                         _______ _______ _______ _____ _____    ______ ____
ROOT
ATOM      1  C   UNL     1       2.168   6.886  19.856  0.00  0.00    +0.000 A 
ATOM      2  C   UNL     1       1.504   7.631  20.837  0.00  0.00    +0.000 A 
ATOM      3  C   UNL     1       1.024   8.911  20.550  0.00  0.00    +0.000 A 
ATOM      4  C   UNL     1       1.221   9.479  19.285  0.00  0.00    +0.000 A 
ATOM      5  C   UNL     1       1.869   8.725  18.299  0.00  0.00    +0.000 A 
ATOM      6  C   UNL     1       2.343   7.442  18.583  0.00  0.00    +0.000 A 
ENDROOT
BRANCH   4   7
ATOM      7  C   UNL     1       0.803  10.841  18.984  0.00  0.00    +0.000 A 
ATOM      8  C   UNL     1      -0.517  11.230  18.882  0.00  0.00    +0.000 A 
ATOM      9  S   UNL     1      -0.615  12.912  18.600  0.00  0.00    +0.000 S 
ATOM     10  C   UNL     1       1.106  13.020  18.659  0.00  0.00    +0.000 A 
ATOM     11  N   UNL     1       1.723  11.868  18.844  0.00  0.00    +0.000 NA
BRANCH  10  12
ATOM     12  C   UNL     1       1.786  14.310  18.462  0.00  0.00    +0.000 A 
ATOM     13  C   UNL     1       1.171  15.537  18.756  0.00  0.00    +0.000 A 
ATOM     14  C   UNL     1       1.835  16.745  18.528  0.00  0.00    +0.000 A 
ATOM     15  C   UNL     1       3.128  16.742  18.012  0.00  0.00    +0.000 A 
ATOM     16  C   UNL     1       3.764  15.535  17.737  0.00  0.00    +0.000 A 
ATOM     17  C   UNL     1       3.101  14.326  17.967  0.00  0.00    +0.000 A 
ENDBRANCH  10  12
ENDBRANCH   4   7
BRANCH   1  18
ATOM     18  C   UNL     1       2.656   5.486  20.149  0.00  0.00    +0.000 C 
BRANCH  18  19
ATOM     19  C   UNL     1       1.721   4.391  19.607  0.00  0.00    +0.000 C 
BRANCH  19  20
ATOM     20  N   UNL     1       2.482   3.276  19.028  0.00  0.00    +0.000 NA
ATOM     21  H   UNL     1       3.195   3.004  19.710  0.00  0.00    +0.000 HD
BRANCH  20  22
ATOM     22  C   UNL     1       3.163   3.692  17.790  0.00  0.00    +0.000 C 
BRANCH  22  23
ATOM     23  C   UNL     1       4.675   3.382  17.860  0.00  0.00    +0.000 C 
BRANCH  23  24
ATOM     24  C   UNL     1       5.501   4.621  17.623  0.00  0.00    +0.000 A 
ATOM     25  C   UNL     1       4.953   5.814  17.148  0.00  0.00    +0.000 A 
ATOM     26  C   UNL     1       5.776   6.916  16.933  0.00  0.00    +0.000 A 
ATOM     27  C   UNL     1       7.129   6.786  17.195  0.00  0.00    +0.000 A 
ATOM     28  N   UNL     1       7.700   5.646  17.640  0.00  0.00    +0.000 NA
ATOM     29  C   UNL     1       6.875   4.597  17.846  0.00  0.00    +0.000 A 
ENDBRANCH  23  24
BRANCH  23  30
ATOM     30  O   UNL     1       4.995   2.823  19.140  0.00  0.00    +0.000 OA
ATOM     31  H   UNL     1       5.647   2.123  18.963  0.00  0.00    +0.000 HD
ENDBRANCH  23  30
ENDBRANCH  22  23
ENDBRANCH  20  22
ENDBRANCH  19  20
ENDBRANCH  18  19
ENDBRANCH   1  18
TORSDOF 9
ENDMDL
MODEL 9
REMARK VINA RESULT:      -7.6      2.437      4.136
REMARK  Name = 
REMARK  9 active torsions:
REMARK  status: ('A' for Active; 'I' for Inactive)
REMARK    1  A    between atoms: O_1  and  C_2
REMARK    2  A    between atoms: C_2  and  C_3
REMARK    3  A    between atoms: C_2  and  C_24
REMARK    4  A    between atoms: C_3  and  N_4
REMARK    5  A    between atoms: N_4  and  C_5
REMARK    6  A    between atoms: C_5  and  C_6
REMARK    7  A    between atoms: C_6  and  C_7
REMARK    8  A    between atoms: C_10  and  C_11
REMARK    9  A    between atoms: C_14  and  C_15
REMARK                            x       y       z     vdW  Elec       q    Type
REMARK                         _______ _______ _______ _____ _____    ______ ____
ROOT
ATOM      1  C   UNL     1       2.419   7.635  18.540  0.00  0.00    +0.000 A 
ATOM      2  C   UNL     1       2.045   7.539  19.885  0.00  0.00    +0.000 A 
ATOM      3  C   UNL     1       1.392   8.599  20.516  0.00  0.00    +0.000 A 
ATOM      4  C   UNL     1       1.123   9.785  19.821  0.00  0.00    +0.000 A 
ATOM      5  C   UNL     1       1.480   9.872  18.470  0.00  0.00    +0.000 A 
ATOM      6  C   UNL     1       2.126   8.810  17.835  0.00  0.00    +0.000 A 
ENDROOT
BRANCH   4   7
ATOM      7  C   UNL     1       0.516  10.936  20.476  0.00  0.00    +0.000 A 
ATOM      8  C   UNL     1       1.143  12.159  20.606  0.00  0.00    +0.000 A 
ATOM      9  S   UNL     1       0.095  13.281  21.354  0.00  0.00    +0.000 S 
ATOM     10  C   UNL     1      -1.136  12.075  21.433  0.00  0.00    +0.000 A 
ATOM     11  N   UNL     1      -0.781  10.894  20.962  0.00  0.00    +0.000 NA
BRANCH  10  12
ATOM     12  C   UNL     1      -2.445  12.374  22.034  0.00  0.00    +0.000 A 
ATOM     13  C   UNL     1      -3.526  12.858  21.280  0.00  0.00    +0.000 A 
ATOM     14  C   UNL     1      -4.747  13.161  21.888  0.00  0.00    +0.000 A 
ATOM     15  C   UNL     1      -4.908  12.974  23.259  0.00  0.00    +0.000 A 
ATOM     16  C   UNL     1      -3.856  12.471  24.020  0.00  0.00    +0.000 A 
ATOM     17  C   UNL     1      -2.635  12.166  23.411  0.00  0.00    +0.000 A 
ENDBRANCH  10  12
ENDBRANCH   4   7
BRANCH   1  18
ATOM     18  C   UNL     1       3.091   6.476  17.841  0.00  0.00    +0.000 C 
BRANCH  18  19
ATOM     19  C   UNL     1       4.534   6.783  17.407  0.00  0.00    +0.000 C 
BRANCH  19  20
ATOM     20  N   UNL     1       5.450   5.698  17.783  0.00  0.00    +0.000 NA
ATOM     21  H   UNL     1       5.336   4.947  17.096  0.00  0.00    +0.000 HD
BRANCH  20  22
ATOM     22  C   UNL     1       5.110   5.162  19.113  0.00  0.00    +0.000 C 
BRANCH  22  23
ATOM     23  C   UNL     1       4.771   3.656  19.031  0.00  0.00    +0.000 C 
BRANCH  23  24
ATOM     24  C   UNL     1       3.328   3.399  19.383  0.00  0.00    +0.000 A 
ATOM     25  C   UNL     1       2.462   2.689  18.548  0.00  0.00    +0.000 A 
ATOM     26  C   UNL     1       1.135   2.503  18.925  0.00  0.00    +0.000 A 
ATOM     27  C   UNL     1       0.712   3.044  20.127  0.00  0.00    +0.000 A 
ATOM     28  N   UNL     1       1.513   3.749  20.955  0.00  0.00    +0.000 NA
ATOM     29  C   UNL     1       2.797   3.906  20.566  0.00  0.00    +0.000 A 
ENDBRANCH  23  24
BRANCH  23  30
ATOM     30  O   UNL     1       5.042   3.171  17.711  0.00  0.00    +0.000 OA
ATOM     31  H   UNL     1       5.960   2.849  17.734  0.00  0.00    +0.000 HD
ENDBRANCH  23  30
ENDBRANCH  22  23
ENDBRANCH  20  22
ENDBRANCH  19  20
ENDBRANCH  18  19
ENDBRANCH   1  18
TORSDOF 9
ENDMDL
