MODEL 1
REMARK VINA RESULT:      -8.0      0.000      0.000
REMARK  Name = 
REMARK  12 active torsions:
REMARK  status: ('A' for Active; 'I' for Inactive)
REMARK    1  A    between atoms: C_1  and  C_2
REMARK    2  A    between atoms: C_2  and  C_3
REMARK    3  A    between atoms: C_2  and  O_4
REMARK    4  A    between atoms: O_4  and  C_5
REMARK    5  A    between atoms: C_8  and  C_9
REMARK    6  A    between atoms: C_11  and  C_12
REMARK    7  A    between atoms: C_20  and  N_21
REMARK    8  A    between atoms: N_21  and  C_22
REMARK    9  A    between atoms: C_22  and  C_23
REMARK   10  A    between atoms: C_23  and  C_24
REMARK   11  A    between atoms: C_24  and  O_26
REMARK   12  A    between atoms: C_30  and  C_31
REMARK                            x       y       z     vdW  Elec       q    Type
REMARK                         _______ _______ _______ _____ _____    ______ ____
ROOT
ATOM      1  C   UNL     1       8.190   8.595  17.910  0.00  0.00    +0.000 A 
ATOM      2  N   UNL     1       7.477   7.964  17.004  0.00  0.00    +0.000 NA
ATOM      3  C   UNL     1       7.380   6.702  17.528  0.00  0.00    +0.000 A 
ATOM      4  N   UNL     1       8.011   6.551  18.706  0.00  0.00    +0.000 NA
ATOM      5  O   UNL     1       8.567   7.806  18.950  0.00  0.00    +0.000 OA
ENDROOT
BRANCH   3   6
ATOM      6  C   UNL     1       6.658   5.646  16.837  0.00  0.00    +0.000 A 
ATOM      7  C   UNL     1       6.929   5.363  15.483  0.00  0.00    +0.000 A 
ATOM      8  C   UNL     1       6.252   4.338  14.804  0.00  0.00    +0.000 A 
ATOM      9  C   UNL     1       5.305   3.563  15.467  0.00  0.00    +0.000 A 
ATOM     10  C   UNL     1       5.039   3.832  16.802  0.00  0.00    +0.000 A 
ATOM     11  C   UNL     1       5.711   4.860  17.481  0.00  0.00    +0.000 A 
ATOM     12  C   UNL     1       5.242   4.935  18.902  0.00  0.00    +0.000 C 
ATOM     13  C   UNL     1       4.625   3.546  19.080  0.00  0.00    +0.000 C 
ATOM     14  C   UNL     1       4.049   3.133  17.704  0.00  0.00    +0.000 C 
BRANCH  14  15
ATOM     15  N   UNL     1       2.669   3.609  17.515  0.00  0.00    +0.000 NA
ATOM     16  H   UNL     1       2.225   3.037  16.797  0.00  0.00    +0.000 HD
BRANCH  15  17
ATOM     17  C   UNL     1       1.907   3.513  18.769  0.00  0.00    +0.000 C 
BRANCH  17  18
ATOM     18  C   UNL     1       1.492   4.874  19.311  0.00  0.00    +0.000 C 
BRANCH  18  19
ATOM     19  C   UNL     1       1.835   4.964  20.782  0.00  0.00    +0.000 C 
ATOM     20  O   UNL     1       1.881   4.018  21.556  0.00  0.00    +0.000 OA
BRANCH  19  21
ATOM     21  O   UNL     1       2.088   6.229  21.179  0.00  0.00    +0.000 OA
ATOM     22  H   UNL     1       2.819   6.656  20.691  0.00  0.00    +0.000 HD
ENDBRANCH  19  21
ENDBRANCH  18  19
ENDBRANCH  17  18
ENDBRANCH  15  17
ENDBRANCH  14  15
ENDBRANCH   3   6
BRANCH   1  26
ATOM     23  C   UNL     1       9.484  12.678  18.131  0.00  0.00    +0.000 A 
ATOM     24  C   UNL     1       8.229  12.381  17.567  0.00  0.00    +0.000 A 
ATOM     25  C   UNL     1       7.764  11.052  17.484  0.00  0.00    +0.000 A 
ATOM     26  C   UNL     1       8.565   9.997  17.927  0.00  0.00    +0.000 A 
ATOM     27  C   UNL     1       9.809  10.300  18.477  0.00  0.00    +0.000 A 
ATOM     28  C   UNL     1      10.234  11.620  18.642  0.00  0.00    +0.000 A 
BRANCH  28  29
ATOM     29  C   UNL     1      11.377  11.765  19.467  0.00  0.00    +0.000 C 
ATOM     30  N   UNL     1      12.333  11.815  20.143  0.00  0.00    +0.000 NA
ENDBRANCH  28  29
BRANCH  23  31
ATOM     31  O   UNL     1       9.818  14.009  18.228  0.00  0.00    +0.000 OA
BRANCH  31  33
ATOM     32  C   UNL     1      10.307  15.338  20.176  0.00  0.00    +0.000 C 
ATOM     33  C   UNL     1       9.206  14.788  19.279  0.00  0.00    +0.000 C 
ATOM     34  C   UNL     1       8.428  15.979  18.707  0.00  0.00    +0.000 C 
ENDBRANCH  31  33
ENDBRANCH  23  31
ENDBRANCH   1  26
TORSDOF 10
ENDMDL
MODEL 2
REMARK VINA RESULT:      -7.9      5.561      8.548
REMARK  Name = 
REMARK  12 active torsions:
REMARK  status: ('A' for Active; 'I' for Inactive)
REMARK    1  A    between atoms: C_1  and  C_2
REMARK    2  A    between atoms: C_2  and  C_3
REMARK    3  A    between atoms: C_2  and  O_4
REMARK    4  A    between atoms: O_4  and  C_5
REMARK    5  A    between atoms: C_8  and  C_9
REMARK    6  A    between atoms: C_11  and  C_12
REMARK    7  A    between atoms: C_20  and  N_21
REMARK    8  A    between atoms: N_21  and  C_22
REMARK    9  A    between atoms: C_22  and  C_23
REMARK   10  A    between atoms: C_23  and  C_24
REMARK   11  A    between atoms: C_24  and  O_26
REMARK   12  A    between atoms: C_30  and  C_31
REMARK                            x       y       z     vdW  Elec       q    Type
REMARK                         _______ _______ _______ _____ _____    ______ ____
ROOT
ATOM      1  C   UNL     1       0.895   8.898  20.592  0.00  0.00    +0.000 A 
ATOM      2  N   UNL     1       1.236   7.683  20.958  0.00  0.00    +0.000 NA
ATOM      3  C   UNL     1       1.955   7.238  19.879  0.00  0.00    +0.000 A 
ATOM      4  N   UNL     1       2.052   8.135  18.882  0.00  0.00    +0.000 NA
ATOM      5  O   UNL     1       1.329   9.232  19.348  0.00  0.00    +0.000 OA
ENDROOT
BRANCH   3   6
ATOM      6  C   UNL     1       2.538   5.906  19.851  0.00  0.00    +0.000 A 
ATOM      7  C   UNL     1       2.165   4.943  20.810  0.00  0.00    +0.000 A 
ATOM      8  C   UNL     1       2.706   3.648  20.789  0.00  0.00    +0.000 A 
ATOM      9  C   UNL     1       3.616   3.283  19.801  0.00  0.00    +0.000 A 
ATOM     10  C   UNL     1       3.982   4.225  18.850  0.00  0.00    +0.000 A 
ATOM     11  C   UNL     1       3.446   5.522  18.873  0.00  0.00    +0.000 A 
ATOM     12  C   UNL     1       4.001   6.331  17.740  0.00  0.00    +0.000 C 
ATOM     13  C   UNL     1       4.499   5.224  16.807  0.00  0.00    +0.000 C 
ATOM     14  C   UNL     1       4.955   4.052  17.708  0.00  0.00    +0.000 C 
BRANCH  14  15
ATOM     15  N   UNL     1       6.359   4.188  18.128  0.00  0.00    +0.000 NA
ATOM     16  H   UNL     1       6.937   4.294  17.296  0.00  0.00    +0.000 HD
BRANCH  15  17
ATOM     17  C   UNL     1       6.531   5.355  19.006  0.00  0.00    +0.000 C 
BRANCH  17  18
ATOM     18  C   UNL     1       7.789   6.151  18.688  0.00  0.00    +0.000 C 
BRANCH  18  19
ATOM     19  C   UNL     1       7.577   6.955  17.422  0.00  0.00    +0.000 C 
ATOM     20  O   UNL     1       7.379   8.161  17.376  0.00  0.00    +0.000 OA
BRANCH  19  21
ATOM     21  O   UNL     1       7.623   6.192  16.310  0.00  0.00    +0.000 OA
ATOM     22  H   UNL     1       8.415   6.346  15.758  0.00  0.00    +0.000 HD
ENDBRANCH  19  21
ENDBRANCH  18  19
ENDBRANCH  17  18
ENDBRANCH  15  17
ENDBRANCH  14  15
ENDBRANCH   3   6
BRANCH   1  26
ATOM     23  C   UNL     1      -1.136  12.003  22.742  0.00  0.00    +0.000 A 
ATOM     24  C   UNL     1      -1.145  10.692  23.252  0.00  0.00    +0.000 A 
ATOM     25  C   UNL     1      -0.482   9.644  22.578  0.00  0.00    +0.000 A 
ATOM     26  C   UNL     1       0.167   9.887  21.365  0.00  0.00    +0.000 A 
ATOM     27  C   UNL     1       0.164  11.187  20.864  0.00  0.00    +0.000 A 
ATOM     28  C   UNL     1      -0.415  12.243  21.572  0.00  0.00    +0.000 A 
BRANCH  28  29
ATOM     29  C   UNL     1      -0.086  13.527  21.075  0.00  0.00    +0.000 C 
ATOM     30  N   UNL     1       0.253  14.569  20.658  0.00  0.00    +0.000 NA
ENDBRANCH  28  29
BRANCH  23  31
ATOM     31  O   UNL     1      -1.754  12.966  23.505  0.00  0.00    +0.000 OA
BRANCH  31  33
ATOM     32  C   UNL     1      -3.988  12.708  24.367  0.00  0.00    +0.000 C 
ATOM     33  C   UNL     1      -3.141  13.265  23.231  0.00  0.00    +0.000 C 
ATOM     34  C   UNL     1      -3.381  14.777  23.164  0.00  0.00    +0.000 C 
ENDBRANCH  31  33
ENDBRANCH  23  31
ENDBRANCH   1  26
TORSDOF 10
ENDMDL
MODEL 3
REMARK VINA RESULT:      -7.8      6.396     10.028
REMARK  Name = 
REMARK  12 active torsions:
REMARK  status: ('A' for Active; 'I' for Inactive)
REMARK    1  A    between atoms: C_1  and  C_2
REMARK    2  A    between atoms: C_2  and  C_3
REMARK    3  A    between atoms: C_2  and  O_4
REMARK    4  A    between atoms: O_4  and  C_5
REMARK    5  A    between atoms: C_8  and  C_9
REMARK    6  A    between atoms: C_11  and  C_12
REMARK    7  A    between atoms: C_20  and  N_21
REMARK    8  A    between atoms: N_21  and  C_22
REMARK    9  A    between atoms: C_22  and  C_23
REMARK   10  A    between atoms: C_23  and  C_24
REMARK   11  A    between atoms: C_24  and  O_26
REMARK   12  A    between atoms: C_30  and  C_31
REMARK                            x       y       z     vdW  Elec       q    Type
REMARK                         _______ _______ _______ _____ _____    ______ ____
ROOT
ATOM      1  C   UNL     1       2.054   7.887  19.001  0.00  0.00    +0.000 A 
ATOM      2  N   UNL     1       1.431   8.980  18.621  0.00  0.00    +0.000 NA
ATOM      3  C   UNL     1       0.875   9.428  19.790  0.00  0.00    +0.000 A 
ATOM      4  N   UNL     1       1.135   8.645  20.852  0.00  0.00    +0.000 NA
ATOM      5  O   UNL     1       1.902   7.609  20.323  0.00  0.00    +0.000 OA
ENDROOT
BRANCH   3   6
ATOM      6  C   UNL     1       0.076  10.642  19.835  0.00  0.00    +0.000 A 
ATOM      7  C   UNL     1       0.452  11.714  20.669  0.00  0.00    +0.000 A 
ATOM      8  C   UNL     1      -0.299  12.900  20.713  0.00  0.00    +0.000 A 
ATOM      9  C   UNL     1      -1.430  13.045  19.915  0.00  0.00    +0.000 A 
ATOM     10  C   UNL     1      -1.802  11.995  19.088  0.00  0.00    +0.000 A 
ATOM     11  C   UNL     1      -1.055  10.807  19.045  0.00  0.00    +0.000 A 
ATOM     12  C   UNL     1      -1.667   9.845  18.073  0.00  0.00    +0.000 C 
ATOM     13  C   UNL     1      -2.518  10.791  17.222  0.00  0.00    +0.000 C 
ATOM     14  C   UNL     1      -2.989  11.931  18.157  0.00  0.00    +0.000 C 
BRANCH  14  15
ATOM     15  N   UNL     1      -4.243  11.595  18.853  0.00  0.00    +0.000 NA
ATOM     16  H   UNL     1      -4.638  12.452  19.238  0.00  0.00    +0.000 HD
BRANCH  15  17
ATOM     17  C   UNL     1      -5.204  10.976  17.927  0.00  0.00    +0.000 C 
BRANCH  17  18
ATOM     18  C   UNL     1      -6.651  11.269  18.299  0.00  0.00    +0.000 C 
BRANCH  18  19
ATOM     19  C   UNL     1      -6.737  11.640  19.764  0.00  0.00    +0.000 C 
ATOM     20  O   UNL     1      -6.752  10.847  20.694  0.00  0.00    +0.000 OA
BRANCH  19  21
ATOM     21  O   UNL     1      -6.804  12.974  19.958  0.00  0.00    +0.000 OA
ATOM     22  H   UNL     1      -6.591  13.499  19.161  0.00  0.00    +0.000 HD
ENDBRANCH  19  21
ENDBRANCH  18  19
ENDBRANCH  17  18
ENDBRANCH  15  17
ENDBRANCH  14  15
ENDBRANCH   3   6
BRANCH   1  26
ATOM     23  C   UNL     1       4.390   5.093  16.737  0.00  0.00    +0.000 A 
ATOM     24  C   UNL     1       4.768   6.448  16.762  0.00  0.00    +0.000 A 
ATOM     25  C   UNL     1       4.031   7.397  17.501  0.00  0.00    +0.000 A 
ATOM     26  C   UNL     1       2.881   7.010  18.195  0.00  0.00    +0.000 A 
ATOM     27  C   UNL     1       2.511   5.667  18.159  0.00  0.00    +0.000 A 
ATOM     28  C   UNL     1       3.288   4.711  17.501  0.00  0.00    +0.000 A 
BRANCH  28  29
ATOM     29  C   UNL     1       2.936   3.371  17.797  0.00  0.00    +0.000 C 
ATOM     30  N   UNL     1       2.588   2.287  18.076  0.00  0.00    +0.000 NA
ENDBRANCH  28  29
BRANCH  23  31
ATOM     31  O   UNL     1       5.211   4.236  16.043  0.00  0.00    +0.000 OA
BRANCH  31  33
ATOM     32  C   UNL     1       7.390   4.863  15.230  0.00  0.00    +0.000 C 
ATOM     33  C   UNL     1       5.911   4.751  14.888  0.00  0.00    +0.000 C 
ATOM     34  C   UNL     1       5.776   3.805  13.690  0.00  0.00    +0.000 C 
ENDBRANCH  31  33
ENDBRANCH  23  31
ENDBRANCH   1  26
TORSDOF 10
ENDMDL
MODEL 4
REMARK VINA RESULT:      -7.8      5.700      8.174
REMARK  Name = 
REMARK  12 active torsions:
REMARK  status: ('A' for Active; 'I' for Inactive)
REMARK    1  A    between atoms: C_1  and  C_2
REMARK    2  A    between atoms: C_2  and  C_3
REMARK    3  A    between atoms: C_2  and  O_4
REMARK    4  A    between atoms: O_4  and  C_5
REMARK    5  A    between atoms: C_8  and  C_9
REMARK    6  A    between atoms: C_11  and  C_12
REMARK    7  A    between atoms: C_20  and  N_21
REMARK    8  A    between atoms: N_21  and  C_22
REMARK    9  A    between atoms: C_22  and  C_23
REMARK   10  A    between atoms: C_23  and  C_24
REMARK   11  A    between atoms: C_24  and  O_26
REMARK   12  A    between atoms: C_30  and  C_31
REMARK                            x       y       z     vdW  Elec       q    Type
REMARK                         _______ _______ _______ _____ _____    ______ ____
ROOT
ATOM      1  C   UNL     1       0.934   9.331  20.157  0.00  0.00    +0.000 A 
ATOM      2  N   UNL     1       1.155   8.140  20.666  0.00  0.00    +0.000 NA
ATOM      3  C   UNL     1       1.895   7.530  19.687  0.00  0.00    +0.000 A 
ATOM      4  N   UNL     1       2.119   8.306  18.611  0.00  0.00    +0.000 NA
ATOM      5  O   UNL     1       1.463   9.497  18.916  0.00  0.00    +0.000 OA
ENDROOT
BRANCH   3   6
ATOM      6  C   UNL     1       2.368   6.164  19.833  0.00  0.00    +0.000 A 
ATOM      7  C   UNL     1       1.789   5.305  20.788  0.00  0.00    +0.000 A 
ATOM      8  C   UNL     1       2.224   3.978  20.933  0.00  0.00    +0.000 A 
ATOM      9  C   UNL     1       3.233   3.477  20.115  0.00  0.00    +0.000 A 
ATOM     10  C   UNL     1       3.802   4.316  19.168  0.00  0.00    +0.000 A 
ATOM     11  C   UNL     1       3.373   5.644  19.026  0.00  0.00    +0.000 A 
ATOM     12  C   UNL     1       4.144   6.324  17.936  0.00  0.00    +0.000 C 
ATOM     13  C   UNL     1       4.680   5.117  17.162  0.00  0.00    +0.000 C 
ATOM     14  C   UNL     1       4.910   3.989  18.195  0.00  0.00    +0.000 C 
BRANCH  14  15
ATOM     15  N   UNL     1       6.247   4.060  18.807  0.00  0.00    +0.000 NA
ATOM     16  H   UNL     1       6.594   3.110  18.938  0.00  0.00    +0.000 HD
BRANCH  15  17
ATOM     17  C   UNL     1       7.174   4.815  17.950  0.00  0.00    +0.000 C 
BRANCH  17  18
ATOM     18  C   UNL     1       7.767   6.030  18.651  0.00  0.00    +0.000 C 
BRANCH  18  19
ATOM     19  C   UNL     1       7.799   7.204  17.696  0.00  0.00    +0.000 C 
ATOM     20  O   UNL     1       7.957   8.373  18.018  0.00  0.00    +0.000 OA
BRANCH  19  21
ATOM     21  O   UNL     1       7.626   6.832  16.410  0.00  0.00    +0.000 OA
ATOM     22  H   UNL     1       8.340   7.132  15.813  0.00  0.00    +0.000 HD
ENDBRANCH  19  21
ENDBRANCH  18  19
ENDBRANCH  17  18
ENDBRANCH  15  17
ENDBRANCH  14  15
ENDBRANCH   3   6
BRANCH   1  26
ATOM     23  C   UNL     1      -1.018  12.781  21.792  0.00  0.00    +0.000 A 
ATOM     24  C   UNL     1      -0.829  11.647  22.603  0.00  0.00    +0.000 A 
ATOM     25  C   UNL     1      -0.184  10.495  22.104  0.00  0.00    +0.000 A 
ATOM     26  C   UNL     1       0.245  10.448  20.776  0.00  0.00    +0.000 A 
ATOM     27  C   UNL     1       0.048  11.574  19.979  0.00  0.00    +0.000 A 
ATOM     28  C   UNL     1      -0.510  12.747  20.494  0.00  0.00    +0.000 A 
BRANCH  28  29
ATOM     29  C   UNL     1      -0.379  13.874  19.648  0.00  0.00    +0.000 C 
ATOM     30  N   UNL     1      -0.315  14.777  18.902  0.00  0.00    +0.000 NA
ENDBRANCH  28  29
BRANCH  23  31
ATOM     31  O   UNL     1      -1.597  13.877  22.390  0.00  0.00    +0.000 OA
BRANCH  31  33
ATOM     32  C   UNL     1      -0.126  15.698  22.960  0.00  0.00    +0.000 C 
ATOM     33  C   UNL     1      -0.898  14.498  23.492  0.00  0.00    +0.000 C 
ATOM     34  C   UNL     1      -1.879  15.005  24.556  0.00  0.00    +0.000 C 
ENDBRANCH  31  33
ENDBRANCH  23  31
ENDBRANCH   1  26
TORSDOF 10
ENDMDL
MODEL 5
REMARK VINA RESULT:      -7.7      1.576      2.022
REMARK  Name = 
REMARK  12 active torsions:
REMARK  status: ('A' for Active; 'I' for Inactive)
REMARK    1  A    between atoms: C_1  and  C_2
REMARK    2  A    between atoms: C_2  and  C_3
REMARK    3  A    between atoms: C_2  and  O_4
REMARK    4  A    between atoms: O_4  and  C_5
REMARK    5  A    between atoms: C_8  and  C_9
REMARK    6  A    between atoms: C_11  and  C_12
REMARK    7  A    between atoms: C_20  and  N_21
REMARK    8  A    between atoms: N_21  and  C_22
REMARK    9  A    between atoms: C_22  and  C_23
REMARK   10  A    between atoms: C_23  and  C_24
REMARK   11  A    between atoms: C_24  and  O_26
REMARK   12  A    between atoms: C_30  and  C_31
REMARK                            x       y       z     vdW  Elec       q    Type
REMARK                         _______ _______ _______ _____ _____    ______ ____
ROOT
ATOM      1  C   UNL     1       8.448   8.968  18.023  0.00  0.00    +0.000 A 
ATOM      2  N   UNL     1       7.589   8.434  17.184  0.00  0.00    +0.000 NA
ATOM      3  C   UNL     1       7.413   7.176  17.698  0.00  0.00    +0.000 A 
ATOM      4  N   UNL     1       8.136   6.934  18.805  0.00  0.00    +0.000 NA
ATOM      5  O   UNL     1       8.840   8.120  19.010  0.00  0.00    +0.000 OA
ENDROOT
BRANCH   3   6
ATOM      6  C   UNL     1       6.522   6.216  17.068  0.00  0.00    +0.000 A 
ATOM      7  C   UNL     1       6.484   6.090  15.665  0.00  0.00    +0.000 A 
ATOM      8  C   UNL     1       5.640   5.157  15.040  0.00  0.00    +0.000 A 
ATOM      9  C   UNL     1       4.831   4.321  15.804  0.00  0.00    +0.000 A 
ATOM     10  C   UNL     1       4.869   4.436  17.186  0.00  0.00    +0.000 A 
ATOM     11  C   UNL     1       5.707   5.371  17.812  0.00  0.00    +0.000 A 
ATOM     12  C   UNL     1       5.559   5.285  19.301  0.00  0.00    +0.000 C 
ATOM     13  C   UNL     1       4.945   3.891  19.453  0.00  0.00    +0.000 C 
ATOM     14  C   UNL     1       4.072   3.648  18.198  0.00  0.00    +0.000 C 
BRANCH  14  15
ATOM     15  N   UNL     1       2.701   4.157  18.369  0.00  0.00    +0.000 NA
ATOM     16  H   UNL     1       2.521   4.851  17.644  0.00  0.00    +0.000 HD
BRANCH  15  17
ATOM     17  C   UNL     1       1.722   3.064  18.265  0.00  0.00    +0.000 C 
BRANCH  17  18
ATOM     18  C   UNL     1       1.703   2.172  19.499  0.00  0.00    +0.000 C 
BRANCH  18  19
ATOM     19  C   UNL     1       1.366   2.999  20.721  0.00  0.00    +0.000 C 
ATOM     20  O   UNL     1       1.826   2.826  21.841  0.00  0.00    +0.000 OA
BRANCH  19  21
ATOM     21  O   UNL     1       0.474   3.977  20.456  0.00  0.00    +0.000 OA
ATOM     22  H   UNL     1      -0.425   3.793  20.795  0.00  0.00    +0.000 HD
ENDBRANCH  19  21
ENDBRANCH  18  19
ENDBRANCH  17  18
ENDBRANCH  15  17
ENDBRANCH  14  15
ENDBRANCH   3   6
BRANCH   1  26
ATOM     23  C   UNL     1       9.744  13.055  17.953  0.00  0.00    +0.000 A 
ATOM     24  C   UNL     1      10.704  12.027  17.945  0.00  0.00    +0.000 A 
ATOM     25  C   UNL     1      10.318  10.670  17.959  0.00  0.00    +0.000 A 
ATOM     26  C   UNL     1       8.966  10.323  18.021  0.00  0.00    +0.000 A 
ATOM     27  C   UNL     1       8.023  11.348  18.036  0.00  0.00    +0.000 A 
ATOM     28  C   UNL     1       8.398  12.690  17.933  0.00  0.00    +0.000 A 
BRANCH  28  29
ATOM     29  C   UNL     1       7.324  13.577  17.676  0.00  0.00    +0.000 C 
ATOM     30  N   UNL     1       6.432  14.284  17.398  0.00  0.00    +0.000 NA
ENDBRANCH  28  29
BRANCH  23  31
ATOM     31  O   UNL     1      10.219  14.343  17.870  0.00  0.00    +0.000 OA
BRANCH  31  33
ATOM     32  C   UNL     1      11.872  15.350  19.304  0.00  0.00    +0.000 C 
ATOM     33  C   UNL     1      10.386  15.087  19.099  0.00  0.00    +0.000 C 
ATOM     34  C   UNL     1       9.674  16.442  19.029  0.00  0.00    +0.000 C 
ENDBRANCH  31  33
ENDBRANCH  23  31
ENDBRANCH   1  26
TORSDOF 10
ENDMDL
MODEL 6
REMARK VINA RESULT:      -7.7      5.025      8.928
REMARK  Name = 
REMARK  12 active torsions:
REMARK  status: ('A' for Active; 'I' for Inactive)
REMARK    1  A    between atoms: C_1  and  C_2
REMARK    2  A    between atoms: C_2  and  C_3
REMARK    3  A    between atoms: C_2  and  O_4
REMARK    4  A    between atoms: O_4  and  C_5
REMARK    5  A    between atoms: C_8  and  C_9
REMARK    6  A    between atoms: C_11  and  C_12
REMARK    7  A    between atoms: C_20  and  N_21
REMARK    8  A    between atoms: N_21  and  C_22
REMARK    9  A    between atoms: C_22  and  C_23
REMARK   10  A    between atoms: C_23  and  C_24
REMARK   11  A    between atoms: C_24  and  O_26
REMARK   12  A    between atoms: C_30  and  C_31
REMARK                            x       y       z     vdW  Elec       q    Type
REMARK                         _______ _______ _______ _____ _____    ______ ____
ROOT
ATOM      1  C   UNL     1       2.707   6.207  19.224  0.00  0.00    +0.000 A 
ATOM      2  N   UNL     1       2.281   7.450  19.227  0.00  0.00    +0.000 NA
ATOM      3  C   UNL     1       1.540   7.508  20.378  0.00  0.00    +0.000 A 
ATOM      4  N   UNL     1       1.500   6.350  21.060  0.00  0.00    +0.000 NA
ATOM      5  O   UNL     1       2.260   5.478  20.281  0.00  0.00    +0.000 OA
ENDROOT
BRANCH   3   6
ATOM      6  C   UNL     1       0.866   8.730  20.787  0.00  0.00    +0.000 A 
ATOM      7  C   UNL     1       0.230   8.810  22.041  0.00  0.00    +0.000 A 
ATOM      8  C   UNL     1      -0.412   9.986  22.459  0.00  0.00    +0.000 A 
ATOM      9  C   UNL     1      -0.417  11.112  21.640  0.00  0.00    +0.000 A 
ATOM     10  C   UNL     1       0.214  11.041  20.406  0.00  0.00    +0.000 A 
ATOM     11  C   UNL     1       0.852   9.865  19.985  0.00  0.00    +0.000 A 
ATOM     12  C   UNL     1       1.452  10.058  18.626  0.00  0.00    +0.000 C 
ATOM     13  C   UNL     1       1.521  11.586  18.553  0.00  0.00    +0.000 C 
ATOM     14  C   UNL     1       0.318  12.127  19.361  0.00  0.00    +0.000 C 
BRANCH  14  15
ATOM     15  N   UNL     1      -0.897  12.246  18.537  0.00  0.00    +0.000 NA
ATOM     16  H   UNL     1      -0.623  12.256  17.556  0.00  0.00    +0.000 HD
BRANCH  15  17
ATOM     17  C   UNL     1      -1.809  11.119  18.788  0.00  0.00    +0.000 C 
BRANCH  17  18
ATOM     18  C   UNL     1      -2.017  10.246  17.558  0.00  0.00    +0.000 C 
BRANCH  18  19
ATOM     19  C   UNL     1      -2.802  11.012  16.515  0.00  0.00    +0.000 C 
ATOM     20  O   UNL     1      -2.732  10.836  15.307  0.00  0.00    +0.000 OA
BRANCH  19  21
ATOM     21  O   UNL     1      -3.612  11.946  17.058  0.00  0.00    +0.000 OA
ATOM     22  H   UNL     1      -3.507  12.835  16.664  0.00  0.00    +0.000 HD
ENDBRANCH  19  21
ENDBRANCH  18  19
ENDBRANCH  17  18
ENDBRANCH  15  17
ENDBRANCH  14  15
ENDBRANCH   3   6
BRANCH   1  26
ATOM     23  C   UNL     1       5.483   4.549  16.407  0.00  0.00    +0.000 A 
ATOM     24  C   UNL     1       4.212   3.963  16.549  0.00  0.00    +0.000 A 
ATOM     25  C   UNL     1       3.268   4.484  17.459  0.00  0.00    +0.000 A 
ATOM     26  C   UNL     1       3.596   5.574  18.268  0.00  0.00    +0.000 A 
ATOM     27  C   UNL     1       4.859   6.144  18.125  0.00  0.00    +0.000 A 
ATOM     28  C   UNL     1       5.764   5.687  17.163  0.00  0.00    +0.000 A 
BRANCH  28  29
ATOM     29  C   UNL     1       6.872   6.543  16.953  0.00  0.00    +0.000 C 
ATOM     30  N   UNL     1       7.779   7.278  16.843  0.00  0.00    +0.000 NA
ENDBRANCH  28  29
BRANCH  23  31
ATOM     31  O   UNL     1       6.307   4.010  15.447  0.00  0.00    +0.000 OA
BRANCH  31  33
ATOM     32  C   UNL     1       7.612   5.047  13.707  0.00  0.00    +0.000 C 
ATOM     33  C   UNL     1       6.231   4.546  14.107  0.00  0.00    +0.000 C 
ATOM     34  C   UNL     1       5.813   3.468  13.101  0.00  0.00    +0.000 C 
ENDBRANCH  31  33
ENDBRANCH  23  31
ENDBRANCH   1  26
TORSDOF 10
ENDMDL
MODEL 7
REMARK VINA RESULT:      -7.7      6.652     10.371
REMARK  Name = 
REMARK  12 active torsions:
REMARK  status: ('A' for Active; 'I' for Inactive)
REMARK    1  A    between atoms: C_1  and  C_2
REMARK    2  A    between atoms: C_2  and  C_3
REMARK    3  A    between atoms: C_2  and  O_4
REMARK    4  A    between atoms: O_4  and  C_5
REMARK    5  A    between atoms: C_8  and  C_9
REMARK    6  A    between atoms: C_11  and  C_12
REMARK    7  A    between atoms: C_20  and  N_21
REMARK    8  A    between atoms: N_21  and  C_22
REMARK    9  A    between atoms: C_22  and  C_23
REMARK   10  A    between atoms: C_23  and  C_24
REMARK   11  A    between atoms: C_24  and  O_26
REMARK   12  A    between atoms: C_30  and  C_31
REMARK                            x       y       z     vdW  Elec       q    Type
REMARK                         _______ _______ _______ _____ _____    ______ ____
ROOT
ATOM      1  C   UNL     1       1.979   8.383  18.578  0.00  0.00    +0.000 A 
ATOM      2  N   UNL     1       0.942   8.831  19.249  0.00  0.00    +0.000 NA
ATOM      3  C   UNL     1       0.642   9.995  18.591  0.00  0.00    +0.000 A 
ATOM      4  N   UNL     1       1.460  10.264  17.559  0.00  0.00    +0.000 NA
ATOM      5  O   UNL     1       2.363   9.202  17.563  0.00  0.00    +0.000 OA
ENDROOT
BRANCH   3   6
ATOM      6  C   UNL     1      -0.466  10.839  19.009  0.00  0.00    +0.000 A 
ATOM      7  C   UNL     1      -0.345  11.669  20.141  0.00  0.00    +0.000 A 
ATOM      8  C   UNL     1      -1.399  12.501  20.550  0.00  0.00    +0.000 A 
ATOM      9  C   UNL     1      -2.588  12.535  19.826  0.00  0.00    +0.000 A 
ATOM     10  C   UNL     1      -2.711  11.725  18.706  0.00  0.00    +0.000 A 
ATOM     11  C   UNL     1      -1.660  10.888  18.299  0.00  0.00    +0.000 A 
ATOM     12  C   UNL     1      -2.049  10.129  17.067  0.00  0.00    +0.000 C 
ATOM     13  C   UNL     1      -3.206  10.988  16.549  0.00  0.00    +0.000 C 
ATOM     14  C   UNL     1      -3.905  11.593  17.791  0.00  0.00    +0.000 C 
BRANCH  14  15
ATOM     15  N   UNL     1      -4.944  10.702  18.332  0.00  0.00    +0.000 NA
ATOM     16  H   UNL     1      -4.803  10.614  19.338  0.00  0.00    +0.000 HD
BRANCH  15  17
ATOM     17  C   UNL     1      -6.286  11.241  18.063  0.00  0.00    +0.000 C 
BRANCH  17  18
ATOM     18  C   UNL     1      -7.170  11.267  19.303  0.00  0.00    +0.000 C 
BRANCH  18  19
ATOM     19  C   UNL     1      -6.674  12.329  20.260  0.00  0.00    +0.000 C 
ATOM     20  O   UNL     1      -6.986  13.511  20.228  0.00  0.00    +0.000 OA
BRANCH  19  21
ATOM     21  O   UNL     1      -5.820  11.838  21.183  0.00  0.00    +0.000 OA
ATOM     22  H   UNL     1      -5.170  12.493  21.507  0.00  0.00    +0.000 HD
ENDBRANCH  19  21
ENDBRANCH  18  19
ENDBRANCH  17  18
ENDBRANCH  15  17
ENDBRANCH  14  15
ENDBRANCH   3   6
BRANCH   1  26
ATOM     23  C   UNL     1       4.183   4.721  18.929  0.00  0.00    +0.000 A 
ATOM     24  C   UNL     1       3.227   5.048  19.908  0.00  0.00    +0.000 A 
ATOM     25  C   UNL     1       2.476   6.239  19.824  0.00  0.00    +0.000 A 
ATOM     26  C   UNL     1       2.699   7.139  18.780  0.00  0.00    +0.000 A 
ATOM     27  C   UNL     1       3.652   6.811  17.818  0.00  0.00    +0.000 A 
ATOM     28  C   UNL     1       4.334   5.592  17.850  0.00  0.00    +0.000 A 
BRANCH  28  29
ATOM     29  C   UNL     1       5.046   5.292  16.663  0.00  0.00    +0.000 C 
ATOM     30  N   UNL     1       5.669   5.104  15.688  0.00  0.00    +0.000 NA
ENDBRANCH  28  29
BRANCH  23  31
ATOM     31  O   UNL     1       4.816   3.507  19.064  0.00  0.00    +0.000 OA
BRANCH  31  33
ATOM     32  C   UNL     1       3.570   1.549  18.417  0.00  0.00    +0.000 C 
ATOM     33  C   UNL     1       4.051   2.398  19.587  0.00  0.00    +0.000 C 
ATOM     34  C   UNL     1       4.912   1.508  20.490  0.00  0.00    +0.000 C 
ENDBRANCH  31  33
ENDBRANCH  23  31
ENDBRANCH   1  26
TORSDOF 10
ENDMDL
MODEL 8
REMARK VINA RESULT:      -7.6      4.962      6.902
REMARK  Name = 
REMARK  12 active torsions:
REMARK  status: ('A' for Active; 'I' for Inactive)
REMARK    1  A    between atoms: C_1  and  C_2
REMARK    2  A    between atoms: C_2  and  C_3
REMARK    3  A    between atoms: C_2  and  O_4
REMARK    4  A    between atoms: O_4  and  C_5
REMARK    5  A    between atoms: C_8  and  C_9
REMARK    6  A    between atoms: C_11  and  C_12
REMARK    7  A    between atoms: C_20  and  N_21
REMARK    8  A    between atoms: N_21  and  C_22
REMARK    9  A    between atoms: C_22  and  C_23
REMARK   10  A    between atoms: C_23  and  C_24
REMARK   11  A    between atoms: C_24  and  O_26
REMARK   12  A    between atoms: C_30  and  C_31
REMARK                            x       y       z     vdW  Elec       q    Type
REMARK                         _______ _______ _______ _____ _____    ______ ____
ROOT
ATOM      1  C   UNL     1       1.691   8.536  19.114  0.00  0.00    +0.000 A 
ATOM      2  N   UNL     1       2.206   7.797  18.157  0.00  0.00    +0.000 NA
ATOM      3  C   UNL     1       2.614   6.676  18.833  0.00  0.00    +0.000 A 
ATOM      4  N   UNL     1       2.370   6.719  20.155  0.00  0.00    +0.000 NA
ATOM      5  O   UNL     1       1.774   7.965  20.344  0.00  0.00    +0.000 OA
ENDROOT
BRANCH   3   6
ATOM      6  C   UNL     1       3.256   5.567  18.147  0.00  0.00    +0.000 A 
ATOM      7  C   UNL     1       2.921   4.237  18.471  0.00  0.00    +0.000 A 
ATOM      8  C   UNL     1       3.519   3.154  17.808  0.00  0.00    +0.000 A 
ATOM      9  C   UNL     1       4.451   3.376  16.798  0.00  0.00    +0.000 A 
ATOM     10  C   UNL     1       4.779   4.684  16.470  0.00  0.00    +0.000 A 
ATOM     11  C   UNL     1       4.186   5.768  17.135  0.00  0.00    +0.000 A 
ATOM     12  C   UNL     1       4.710   7.061  16.588  0.00  0.00    +0.000 C 
ATOM     13  C   UNL     1       5.263   6.603  15.236  0.00  0.00    +0.000 C 
ATOM     14  C   UNL     1       5.765   5.152  15.426  0.00  0.00    +0.000 C 
BRANCH  14  15
ATOM     15  N   UNL     1       7.160   5.105  15.896  0.00  0.00    +0.000 NA
ATOM     16  H   UNL     1       7.546   6.047  15.861  0.00  0.00    +0.000 HD
BRANCH  15  17
ATOM     17  C   UNL     1       7.231   4.588  17.271  0.00  0.00    +0.000 C 
BRANCH  17  18
ATOM     18  C   UNL     1       7.793   5.605  18.254  0.00  0.00    +0.000 C 
BRANCH  18  19
ATOM     19  C   UNL     1       7.253   5.327  19.641  0.00  0.00    +0.000 C 
ATOM     20  O   UNL     1       6.110   4.977  19.898  0.00  0.00    +0.000 OA
BRANCH  19  21
ATOM     21  O   UNL     1       8.180   5.512  20.604  0.00  0.00    +0.000 OA
ATOM     22  H   UNL     1       8.918   6.094  20.335  0.00  0.00    +0.000 HD
ENDBRANCH  19  21
ENDBRANCH  18  19
ENDBRANCH  17  18
ENDBRANCH  15  17
ENDBRANCH  14  15
ENDBRANCH   3   6
BRANCH   1  26
ATOM     23  C   UNL     1      -0.003  12.456  18.725  0.00  0.00    +0.000 A 
ATOM     24  C   UNL     1      -0.813  11.396  19.172  0.00  0.00    +0.000 A 
ATOM     25  C   UNL     1      -0.291  10.094  19.321  0.00  0.00    +0.000 A 
ATOM     26  C   UNL     1       1.039   9.826  18.987  0.00  0.00    +0.000 A 
ATOM     27  C   UNL     1       1.831  10.880  18.538  0.00  0.00    +0.000 A 
ATOM     28  C   UNL     1       1.342  12.187  18.474  0.00  0.00    +0.000 A 
BRANCH  28  29
ATOM     29  C   UNL     1       2.340  13.173  18.278  0.00  0.00    +0.000 C 
ATOM     30  N   UNL     1       3.189  13.976  18.180  0.00  0.00    +0.000 NA
ENDBRANCH  28  29
BRANCH  23  31
ATOM     31  O   UNL     1      -0.587  13.701  18.677  0.00  0.00    +0.000 OA
BRANCH  31  33
ATOM     32  C   UNL     1      -0.005  15.903  19.462  0.00  0.00    +0.000 C 
ATOM     33  C   UNL     1      -0.523  14.528  19.861  0.00  0.00    +0.000 C 
ATOM     34  C   UNL     1      -1.910  14.711  20.485  0.00  0.00    +0.000 C 
ENDBRANCH  31  33
ENDBRANCH  23  31
ENDBRANCH   1  26
TORSDOF 10
ENDMDL
MODEL 9
REMARK VINA RESULT:      -7.6      6.615     10.758
REMARK  Name = 
REMARK  12 active torsions:
REMARK  status: ('A' for Active; 'I' for Inactive)
REMARK    1  A    between atoms: C_1  and  C_2
REMARK    2  A    between atoms: C_2  and  C_3
REMARK    3  A    between atoms: C_2  and  O_4
REMARK    4  A    between atoms: O_4  and  C_5
REMARK    5  A    between atoms: C_8  and  C_9
REMARK    6  A    between atoms: C_11  and  C_12
REMARK    7  A    between atoms: C_20  and  N_21
REMARK    8  A    between atoms: N_21  and  C_22
REMARK    9  A    between atoms: C_22  and  C_23
REMARK   10  A    between atoms: C_23  and  C_24
REMARK   11  A    between atoms: C_24  and  O_26
REMARK   12  A    between atoms: C_30  and  C_31
REMARK                            x       y       z     vdW  Elec       q    Type
REMARK                         _______ _______ _______ _____ _____    ______ ____
ROOT
ATOM      1  C   UNL     1       1.387   8.285  20.603  0.00  0.00    +0.000 A 
ATOM      2  N   UNL     1       0.458   8.998  20.006  0.00  0.00    +0.000 NA
ATOM      3  C   UNL     1       0.195   9.977  20.928  0.00  0.00    +0.000 A 
ATOM      4  N   UNL     1       0.925   9.876  22.053  0.00  0.00    +0.000 NA
ATOM      5  O   UNL     1       1.703   8.738  21.845  0.00  0.00    +0.000 OA
ENDROOT
BRANCH   3   6
ATOM      6  C   UNL     1      -0.795  11.011  20.677  0.00  0.00    +0.000 A 
ATOM      7  C   UNL     1      -0.946  12.089  21.572  0.00  0.00    +0.000 A 
ATOM      8  C   UNL     1      -1.886  13.104  21.338  0.00  0.00    +0.000 A 
ATOM      9  C   UNL     1      -2.684  13.073  20.198  0.00  0.00    +0.000 A 
ATOM     10  C   UNL     1      -2.536  12.018  19.309  0.00  0.00    +0.000 A 
ATOM     11  C   UNL     1      -1.599  10.999  19.544  0.00  0.00    +0.000 A 
ATOM     12  C   UNL     1      -1.640   9.992  18.436  0.00  0.00    +0.000 C 
ATOM     13  C   UNL     1      -2.322  10.802  17.330  0.00  0.00    +0.000 C 
ATOM     14  C   UNL     1      -3.299  11.778  18.028  0.00  0.00    +0.000 C 
BRANCH  14  15
ATOM     15  N   UNL     1      -4.621  11.172  18.256  0.00  0.00    +0.000 NA
ATOM     16  H   UNL     1      -4.646  10.795  19.202  0.00  0.00    +0.000 HD
BRANCH  15  17
ATOM     17  C   UNL     1      -5.689  12.169  18.088  0.00  0.00    +0.000 C 
BRANCH  17  18
ATOM     18  C   UNL     1      -7.076  11.595  18.339  0.00  0.00    +0.000 C 
BRANCH  18  19
ATOM     19  C   UNL     1      -7.011  10.574  19.455  0.00  0.00    +0.000 C 
ATOM     20  O   UNL     1      -6.748  10.820  20.624  0.00  0.00    +0.000 OA
BRANCH  19  21
ATOM     21  O   UNL     1      -7.271   9.321  19.027  0.00  0.00    +0.000 OA
ATOM     22  H   UNL     1      -6.818   9.087  18.193  0.00  0.00    +0.000 HD
ENDBRANCH  19  21
ENDBRANCH  18  19
ENDBRANCH  17  18
ENDBRANCH  15  17
ENDBRANCH  14  15
ENDBRANCH   3   6
BRANCH   1  26
ATOM     23  C   UNL     1       3.437   4.767  19.259  0.00  0.00    +0.000 A 
ATOM     24  C   UNL     1       3.694   5.998  18.628  0.00  0.00    +0.000 A 
ATOM     25  C   UNL     1       3.046   7.180  19.046  0.00  0.00    +0.000 A 
ATOM     26  C   UNL     1       2.102   7.138  20.075  0.00  0.00    +0.000 A 
ATOM     27  C   UNL     1       1.849   5.914  20.689  0.00  0.00    +0.000 A 
ATOM     28  C   UNL     1       2.553   4.759  20.338  0.00  0.00    +0.000 A 
BRANCH  28  29
ATOM     29  C   UNL     1       2.387   3.679  21.238  0.00  0.00    +0.000 C 
ATOM     30  N   UNL     1       2.181   2.785  21.968  0.00  0.00    +0.000 NA
ENDBRANCH  28  29
BRANCH  23  31
ATOM     31  O   UNL     1       4.168   3.686  18.823  0.00  0.00    +0.000 OA
BRANCH  31  33
ATOM     32  C   UNL     1       3.431   1.429  18.416  0.00  0.00    +0.000 C 
ATOM     33  C   UNL     1       3.578   2.825  17.824  0.00  0.00    +0.000 C 
ATOM     34  C   UNL     1       2.182   3.314  17.423  0.00  0.00    +0.000 C 
ENDBRANCH  31  33
ENDBRANCH  23  31
ENDBRANCH   1  26
TORSDOF 10
ENDMDL
