MODEL 1
REMARK VINA RESULT:      -8.9      0.000      0.000
REMARK  Name = 
REMARK  9 active torsions:
REMARK  status: ('A' for Active; 'I' for Inactive)
REMARK    1  A    between atoms: C_1  and  C_2
REMARK    2  A    between atoms: C_2  and  C_3
REMARK    3  A    between atoms: C_3  and  C_4
REMARK    4  A    between atoms: C_4  and  C_5
REMARK    5  A    between atoms: C_9  and  C_11
REMARK    6  A    between atoms: C_14  and  C_15
REMARK    7  A    between atoms: C_15  and  C_16
REMARK    8  A    between atoms: N_25  and  C_26
REMARK    9  A    between atoms: C_26  and  C_27
REMARK                            x       y       z     vdW  Elec       q    Type
REMARK                         _______ _______ _______ _____ _____    ______ ____
ROOT
ATOM      1  C   UNL     1       2.635   5.189  19.866  0.00  0.00    +0.000 C 
ATOM      2  N   UNL     1       1.755   4.550  18.898  0.00  0.00    +0.000 N 
ATOM      3  C   UNL     1       2.458   4.082  17.810  0.00  0.00    +0.000 C 
ATOM      4  O   UNL     1       1.929   3.786  16.751  0.00  0.00    +0.000 OA
ATOM      5  N   UNL     1       3.785   4.091  18.110  0.00  0.00    +0.000 N 
ATOM      6  C   UNL     1       4.004   4.731  19.305  0.00  0.00    +0.000 C 
ATOM      7  O   UNL     1       5.082   4.976  19.822  0.00  0.00    +0.000 OA
ATOM      8  H   UNL     1       0.768   4.749  18.795  0.00  0.00    +0.000 HD
ENDROOT
BRANCH   1   9
ATOM      9  C   UNL     1       2.447   6.730  19.763  0.00  0.00    +0.000 C 
ATOM     10  C   UNL     1       1.956   7.276  18.406  0.00  0.00    +0.000 C 
ATOM     11  C   UNL     1       1.891   8.813  18.426  0.00  0.00    +0.000 C 
ATOM     12  N   UNL     1       1.102   9.315  19.554  0.00  0.00    +0.000 N 
ATOM     13  C   UNL     1       0.118  10.292  19.318  0.00  0.00    +0.000 C 
ATOM     14  O   UNL     1      -0.181  10.663  18.188  0.00  0.00    +0.000 OA
ATOM     15  C   UNL     1       1.469   8.772  20.855  0.00  0.00    +0.000 C 
ATOM     16  C   UNL     1       1.492   7.262  20.845  0.00  0.00    +0.000 C 
BRANCH  13  17
ATOM     17  C   UNL     1      -0.631  10.895  20.457  0.00  0.00    +0.000 A 
ATOM     18  C   UNL     1      -0.389  10.544  21.790  0.00  0.00    +0.000 A 
ATOM     19  C   UNL     1      -1.195  11.040  22.816  0.00  0.00    +0.000 A 
ATOM     20  C   UNL     1      -2.163  12.007  22.539  0.00  0.00    +0.000 A 
ATOM     21  C   UNL     1      -2.356  12.428  21.216  0.00  0.00    +0.000 A 
ATOM     22  C   UNL     1      -1.599  11.868  20.180  0.00  0.00    +0.000 A 
BRANCH  20  23
ATOM     23  C   UNL     1      -2.985  12.623  23.617  0.00  0.00    +0.000 C 
ATOM     24  C   UNL     1      -2.713  14.043  24.044  0.00  0.00    +0.000 C 
ATOM     25  O   UNL     1      -3.899  11.974  24.122  0.00  0.00    +0.000 OA
ENDBRANCH  20  23
ENDBRANCH  13  17
ENDBRANCH   1   9
BRANCH   1  26
ATOM     26  C   UNL     1       2.366   4.635  21.274  0.00  0.00    +0.000 C 
BRANCH  26  28
ATOM     27  C   UNL     1       1.260   2.411  21.771  0.00  0.00    +0.000 C 
ATOM     28  C   UNL     1       2.547   3.113  21.388  0.00  0.00    +0.000 C 
ENDBRANCH  26  28
ENDBRANCH   1  26
BRANCH   5  29
ATOM     29  C   UNL     1       4.829   3.580  17.238  0.00  0.00    +0.000 C 
BRANCH  29  30
ATOM     30  C   UNL     1       5.669   4.678  16.559  0.00  0.00    +0.000 C 
ATOM     31  C   UNL     1       7.046   4.922  17.154  0.00  0.00    +0.000 C 
ATOM     32  C   UNL     1       7.257   6.407  17.004  0.00  0.00    +0.000 C 
ATOM     33  C   UNL     1       5.860   6.975  16.955  0.00  0.00    +0.000 C 
ATOM     34  O   UNL     1       4.967   5.929  16.570  0.00  0.00    +0.000 OA
ENDBRANCH  29  30
ENDBRANCH   5  29
TORSDOF 7
ENDMDL
MODEL 2
REMARK VINA RESULT:      -8.5      0.923      1.437
REMARK  Name = 
REMARK  9 active torsions:
REMARK  status: ('A' for Active; 'I' for Inactive)
REMARK    1  A    between atoms: C_1  and  C_2
REMARK    2  A    between atoms: C_2  and  C_3
REMARK    3  A    between atoms: C_3  and  C_4
REMARK    4  A    between atoms: C_4  and  C_5
REMARK    5  A    between atoms: C_9  and  C_11
REMARK    6  A    between atoms: C_14  and  C_15
REMARK    7  A    between atoms: C_15  and  C_16
REMARK    8  A    between atoms: N_25  and  C_26
REMARK    9  A    between atoms: C_26  and  C_27
REMARK                            x       y       z     vdW  Elec       q    Type
REMARK                         _______ _______ _______ _____ _____    ______ ____
ROOT
ATOM      1  C   UNL     1       2.597   5.241  19.768  0.00  0.00    +0.000 C 
ATOM      2  N   UNL     1       1.665   4.568  18.875  0.00  0.00    +0.000 N 
ATOM      3  C   UNL     1       2.309   4.043  17.777  0.00  0.00    +0.000 C 
ATOM      4  O   UNL     1       1.726   3.704  16.760  0.00  0.00    +0.000 OA
ATOM      5  N   UNL     1       3.650   4.054  18.010  0.00  0.00    +0.000 N 
ATOM      6  C   UNL     1       3.933   4.745  19.161  0.00  0.00    +0.000 C 
ATOM      7  O   UNL     1       5.037   5.004  19.614  0.00  0.00    +0.000 OA
ATOM      8  H   UNL     1       0.676   4.771  18.812  0.00  0.00    +0.000 HD
ENDROOT
BRANCH   1   9
ATOM      9  C   UNL     1       2.414   6.778  19.603  0.00  0.00    +0.000 C 
ATOM     10  C   UNL     1       1.913   7.270  18.230  0.00  0.00    +0.000 C 
ATOM     11  C   UNL     1       1.855   8.806  18.187  0.00  0.00    +0.000 C 
ATOM     12  N   UNL     1       1.079   9.358  19.301  0.00  0.00    +0.000 N 
ATOM     13  C   UNL     1       0.098  10.330  19.034  0.00  0.00    +0.000 C 
ATOM     14  O   UNL     1      -0.211  10.656  17.893  0.00  0.00    +0.000 OA
ATOM     15  C   UNL     1       1.456   8.868  20.620  0.00  0.00    +0.000 C 
ATOM     16  C   UNL     1       1.473   7.359  20.672  0.00  0.00    +0.000 C 
BRANCH  13  17
ATOM     17  C   UNL     1      -0.637  10.983  20.155  0.00  0.00    +0.000 A 
ATOM     18  C   UNL     1      -1.702  11.867  19.945  0.00  0.00    +0.000 A 
ATOM     19  C   UNL     1      -2.282  12.550  21.015  0.00  0.00    +0.000 A 
ATOM     20  C   UNL     1      -1.903  12.250  22.324  0.00  0.00    +0.000 A 
ATOM     21  C   UNL     1      -0.895  11.303  22.549  0.00  0.00    +0.000 A 
ATOM     22  C   UNL     1      -0.260  10.679  21.468  0.00  0.00    +0.000 A 
BRANCH  20  23
ATOM     23  C   UNL     1      -2.558  12.895  23.496  0.00  0.00    +0.000 C 
ATOM     24  C   UNL     1      -3.822  12.301  24.066  0.00  0.00    +0.000 C 
ATOM     25  O   UNL     1      -2.039  13.886  24.005  0.00  0.00    +0.000 OA
ENDBRANCH  20  23
ENDBRANCH  13  17
ENDBRANCH   1   9
BRANCH   1  26
ATOM     26  C   UNL     1       2.394   4.756  21.212  0.00  0.00    +0.000 C 
BRANCH  26  28
ATOM     27  C   UNL     1       1.307   2.534  21.760  0.00  0.00    +0.000 C 
ATOM     28  C   UNL     1       2.595   3.242  21.391  0.00  0.00    +0.000 C 
ENDBRANCH  26  28
ENDBRANCH   1  26
BRANCH   5  29
ATOM     29  C   UNL     1       4.645   3.493  17.112  0.00  0.00    +0.000 C 
BRANCH  29  30
ATOM     30  C   UNL     1       5.207   4.503  16.092  0.00  0.00    +0.000 C 
ATOM     31  C   UNL     1       5.459   3.962  14.694  0.00  0.00    +0.000 C 
ATOM     32  C   UNL     1       6.688   4.700  14.228  0.00  0.00    +0.000 C 
ATOM     33  C   UNL     1       7.394   5.084  15.505  0.00  0.00    +0.000 C 
ATOM     34  O   UNL     1       6.439   5.064  16.566  0.00  0.00    +0.000 OA
ENDBRANCH  29  30
ENDBRANCH   5  29
TORSDOF 7
ENDMDL
MODEL 3
REMARK VINA RESULT:      -8.4      0.653      1.083
REMARK  Name = 
REMARK  9 active torsions:
REMARK  status: ('A' for Active; 'I' for Inactive)
REMARK    1  A    between atoms: C_1  and  C_2
REMARK    2  A    between atoms: C_2  and  C_3
REMARK    3  A    between atoms: C_3  and  C_4
REMARK    4  A    between atoms: C_4  and  C_5
REMARK    5  A    between atoms: C_9  and  C_11
REMARK    6  A    between atoms: C_14  and  C_15
REMARK    7  A    between atoms: C_15  and  C_16
REMARK    8  A    between atoms: N_25  and  C_26
REMARK    9  A    between atoms: C_26  and  C_27
REMARK                            x       y       z     vdW  Elec       q    Type
REMARK                         _______ _______ _______ _____ _____    ______ ____
ROOT
ATOM      1  C   UNL     1       2.535   5.265  19.801  0.00  0.00    +0.000 C 
ATOM      2  N   UNL     1       1.665   4.612  18.834  0.00  0.00    +0.000 N 
ATOM      3  C   UNL     1       2.384   4.088  17.782  0.00  0.00    +0.000 C 
ATOM      4  O   UNL     1       1.875   3.766  16.721  0.00  0.00    +0.000 OA
ATOM      5  N   UNL     1       3.703   4.078  18.116  0.00  0.00    +0.000 N 
ATOM      6  C   UNL     1       3.907   4.756  19.292  0.00  0.00    +0.000 C 
ATOM      7  O   UNL     1       4.976   4.994  19.830  0.00  0.00    +0.000 OA
ATOM      8  H   UNL     1       0.686   4.830  18.697  0.00  0.00    +0.000 HD
ENDROOT
BRANCH   1   9
ATOM      9  C   UNL     1       2.387   6.806  19.637  0.00  0.00    +0.000 C 
ATOM     10  C   UNL     1       1.925   7.311  18.255  0.00  0.00    +0.000 C 
ATOM     11  C   UNL     1       1.899   8.849  18.216  0.00  0.00    +0.000 C 
ATOM     12  N   UNL     1       1.109   9.413  19.314  0.00  0.00    +0.000 N 
ATOM     13  C   UNL     1       0.153  10.405  19.030  0.00  0.00    +0.000 C 
ATOM     14  O   UNL     1      -0.124  10.739  17.882  0.00  0.00    +0.000 OA
ATOM     15  C   UNL     1       1.447   8.911  20.640  0.00  0.00    +0.000 C 
ATOM     16  C   UNL     1       1.433   7.402  20.687  0.00  0.00    +0.000 C 
BRANCH  13  17
ATOM     17  C   UNL     1      -0.594  11.068  20.136  0.00  0.00    +0.000 A 
ATOM     18  C   UNL     1      -1.812  11.726  19.935  0.00  0.00    +0.000 A 
ATOM     19  C   UNL     1      -2.417  12.439  20.972  0.00  0.00    +0.000 A 
ATOM     20  C   UNL     1      -1.886  12.383  22.261  0.00  0.00    +0.000 A 
ATOM     21  C   UNL     1      -0.709  11.656  22.490  0.00  0.00    +0.000 A 
ATOM     22  C   UNL     1      -0.063  11.009  21.430  0.00  0.00    +0.000 A 
BRANCH  20  23
ATOM     23  C   UNL     1      -2.548  13.060  23.411  0.00  0.00    +0.000 C 
ATOM     24  C   UNL     1      -3.920  12.613  23.850  0.00  0.00    +0.000 C 
ATOM     25  O   UNL     1      -1.951  13.952  24.009  0.00  0.00    +0.000 OA
ENDBRANCH  20  23
ENDBRANCH  13  17
ENDBRANCH   1   9
BRANCH   1  26
ATOM     26  C   UNL     1       2.217   4.770  21.220  0.00  0.00    +0.000 C 
BRANCH  26  28
ATOM     27  C   UNL     1       2.366   2.271  21.607  0.00  0.00    +0.000 C 
ATOM     28  C   UNL     1       1.459   3.433  21.256  0.00  0.00    +0.000 C 
ENDBRANCH  26  28
ENDBRANCH   1  26
BRANCH   5  29
ATOM     29  C   UNL     1       4.756   3.511  17.291  0.00  0.00    +0.000 C 
BRANCH  29  30
ATOM     30  C   UNL     1       5.627   4.564  16.578  0.00  0.00    +0.000 C 
ATOM     31  C   UNL     1       7.018   4.773  17.154  0.00  0.00    +0.000 C 
ATOM     32  C   UNL     1       7.278   6.247  16.967  0.00  0.00    +0.000 C 
ATOM     33  C   UNL     1       5.901   6.861  16.919  0.00  0.00    +0.000 C 
ATOM     34  O   UNL     1       4.968   5.838  16.568  0.00  0.00    +0.000 OA
ENDBRANCH  29  30
ENDBRANCH   5  29
TORSDOF 7
ENDMDL
MODEL 4
REMARK VINA RESULT:      -8.3      0.991      1.197
REMARK  Name = 
REMARK  9 active torsions:
REMARK  status: ('A' for Active; 'I' for Inactive)
REMARK    1  A    between atoms: C_1  and  C_2
REMARK    2  A    between atoms: C_2  and  C_3
REMARK    3  A    between atoms: C_3  and  C_4
REMARK    4  A    between atoms: C_4  and  C_5
REMARK    5  A    between atoms: C_9  and  C_11
REMARK    6  A    between atoms: C_14  and  C_15
REMARK    7  A    between atoms: C_15  and  C_16
REMARK    8  A    between atoms: N_25  and  C_26
REMARK    9  A    between atoms: C_26  and  C_27
REMARK                            x       y       z     vdW  Elec       q    Type
REMARK                         _______ _______ _______ _____ _____    ______ ____
ROOT
ATOM      1  C   UNL     1       2.525   5.082  19.880  0.00  0.00    +0.000 C 
ATOM      2  N   UNL     1       1.660   4.439  18.901  0.00  0.00    +0.000 N 
ATOM      3  C   UNL     1       2.388   3.900  17.864  0.00  0.00    +0.000 C 
ATOM      4  O   UNL     1       1.892   3.581  16.795  0.00  0.00    +0.000 OA
ATOM      5  N   UNL     1       3.701   3.870  18.219  0.00  0.00    +0.000 N 
ATOM      6  C   UNL     1       3.896   4.549  19.396  0.00  0.00    +0.000 C 
ATOM      7  O   UNL     1       4.960   4.773  19.950  0.00  0.00    +0.000 OA
ATOM      8  H   UNL     1       0.687   4.672  18.748  0.00  0.00    +0.000 HD
ENDROOT
BRANCH   1   9
ATOM      9  C   UNL     1       2.403   6.624  19.709  0.00  0.00    +0.000 C 
ATOM     10  C   UNL     1       1.875   7.127  18.349  0.00  0.00    +0.000 C 
ATOM     11  C   UNL     1       1.882   8.665  18.295  0.00  0.00    +0.000 C 
ATOM     12  N   UNL     1       1.171   9.258  19.431  0.00  0.00    +0.000 N 
ATOM     13  C   UNL     1       0.224  10.270  19.191  0.00  0.00    +0.000 C 
ATOM     14  O   UNL     1      -0.111  10.600  18.058  0.00  0.00    +0.000 OA
ATOM     15  C   UNL     1       1.573   8.761  20.740  0.00  0.00    +0.000 C 
ATOM     16  C   UNL     1       1.526   7.253  20.804  0.00  0.00    +0.000 C 
BRANCH  13  17
ATOM     17  C   UNL     1      -0.442  10.962  20.330  0.00  0.00    +0.000 A 
ATOM     18  C   UNL     1      -0.235  10.591  21.664  0.00  0.00    +0.000 A 
ATOM     19  C   UNL     1      -0.971  11.184  22.691  0.00  0.00    +0.000 A 
ATOM     20  C   UNL     1      -1.819  12.257  22.415  0.00  0.00    +0.000 A 
ATOM     21  C   UNL     1      -1.970  12.691  21.090  0.00  0.00    +0.000 A 
ATOM     22  C   UNL     1      -1.290  12.041  20.053  0.00  0.00    +0.000 A 
BRANCH  20  23
ATOM     23  C   UNL     1      -2.557  12.971  23.494  0.00  0.00    +0.000 C 
ATOM     24  C   UNL     1      -3.866  12.417  23.995  0.00  0.00    +0.000 C 
ATOM     25  O   UNL     1      -2.068  13.986  23.986  0.00  0.00    +0.000 OA
ENDBRANCH  20  23
ENDBRANCH  13  17
ENDBRANCH   1   9
BRANCH   1  26
ATOM     26  C   UNL     1       2.175   4.598  21.296  0.00  0.00    +0.000 C 
BRANCH  26  28
ATOM     27  C   UNL     1       2.209   2.090  21.656  0.00  0.00    +0.000 C 
ATOM     28  C   UNL     1       1.356   3.298  21.322  0.00  0.00    +0.000 C 
ENDBRANCH  26  28
ENDBRANCH   1  26
BRANCH   5  29
ATOM     29  C   UNL     1       4.758   3.283  17.414  0.00  0.00    +0.000 C 
BRANCH  29  30
ATOM     30  C   UNL     1       5.639   4.318  16.689  0.00  0.00    +0.000 C 
ATOM     31  C   UNL     1       4.955   5.623  16.312  0.00  0.00    +0.000 C 
ATOM     32  C   UNL     1       5.590   6.009  15.000  0.00  0.00    +0.000 C 
ATOM     33  C   UNL     1       6.064   4.699  14.421  0.00  0.00    +0.000 C 
ATOM     34  O   UNL     1       6.189   3.758  15.488  0.00  0.00    +0.000 OA
ENDBRANCH  29  30
ENDBRANCH   5  29
TORSDOF 7
ENDMDL
MODEL 5
REMARK VINA RESULT:      -8.1      2.407      4.775
REMARK  Name = 
REMARK  9 active torsions:
REMARK  status: ('A' for Active; 'I' for Inactive)
REMARK    1  A    between atoms: C_1  and  C_2
REMARK    2  A    between atoms: C_2  and  C_3
REMARK    3  A    between atoms: C_3  and  C_4
REMARK    4  A    between atoms: C_4  and  C_5
REMARK    5  A    between atoms: C_9  and  C_11
REMARK    6  A    between atoms: C_14  and  C_15
REMARK    7  A    between atoms: C_15  and  C_16
REMARK    8  A    between atoms: N_25  and  C_26
REMARK    9  A    between atoms: C_26  and  C_27
REMARK                            x       y       z     vdW  Elec       q    Type
REMARK                         _______ _______ _______ _____ _____    ______ ____
ROOT
ATOM      1  C   UNL     1       3.735   6.143  17.722  0.00  0.00    +0.000 C 
ATOM      2  N   UNL     1       4.843   6.033  18.661  0.00  0.00    +0.000 N 
ATOM      3  C   UNL     1       4.908   4.774  19.217  0.00  0.00    +0.000 C 
ATOM      4  O   UNL     1       5.542   4.523  20.229  0.00  0.00    +0.000 OA
ATOM      5  N   UNL     1       4.109   3.937  18.500  0.00  0.00    +0.000 N 
ATOM      6  C   UNL     1       3.364   4.645  17.591  0.00  0.00    +0.000 C 
ATOM      7  O   UNL     1       2.500   4.209  16.847  0.00  0.00    +0.000 OA
ATOM      8  H   UNL     1       5.259   6.809  19.158  0.00  0.00    +0.000 HD
ENDROOT
BRANCH   1   9
ATOM      9  C   UNL     1       2.600   6.970  18.393  0.00  0.00    +0.000 C 
ATOM     10  C   UNL     1       2.533   6.926  19.934  0.00  0.00    +0.000 C 
ATOM     11  C   UNL     1       1.321   7.721  20.451  0.00  0.00    +0.000 C 
ATOM     12  N   UNL     1       1.296   9.088  19.925  0.00  0.00    +0.000 N 
ATOM     13  C   UNL     1       1.089  10.158  20.814  0.00  0.00    +0.000 C 
ATOM     14  O   UNL     1       1.038  10.002  22.030  0.00  0.00    +0.000 OA
ATOM     15  C   UNL     1       1.437   9.197  18.479  0.00  0.00    +0.000 C 
ATOM     16  C   UNL     1       2.650   8.450  17.978  0.00  0.00    +0.000 C 
BRANCH  13  17
ATOM     17  C   UNL     1       0.959  11.550  20.298  0.00  0.00    +0.000 A 
ATOM     18  C   UNL     1      -0.216  12.029  19.707  0.00  0.00    +0.000 A 
ATOM     19  C   UNL     1      -0.257  13.298  19.126  0.00  0.00    +0.000 A 
ATOM     20  C   UNL     1       0.832  14.161  19.256  0.00  0.00    +0.000 A 
ATOM     21  C   UNL     1       1.985  13.720  19.921  0.00  0.00    +0.000 A 
ATOM     22  C   UNL     1       2.050  12.418  20.432  0.00  0.00    +0.000 A 
BRANCH  20  23
ATOM     23  C   UNL     1       0.797  15.552  18.725  0.00  0.00    +0.000 C 
ATOM     24  C   UNL     1      -0.516  16.291  18.657  0.00  0.00    +0.000 C 
ATOM     25  O   UNL     1       1.846  16.091  18.380  0.00  0.00    +0.000 OA
ENDBRANCH  20  23
ENDBRANCH  13  17
ENDBRANCH   1   9
BRANCH   1  26
ATOM     26  C   UNL     1       4.223   6.744  16.395  0.00  0.00    +0.000 C 
BRANCH  26  28
ATOM     27  C   UNL     1       5.629   5.180  14.983  0.00  0.00    +0.000 C 
ATOM     28  C   UNL     1       5.642   6.304  15.999  0.00  0.00    +0.000 C 
ENDBRANCH  26  28
ENDBRANCH   1  26
BRANCH   5  29
ATOM     29  C   UNL     1       3.995   2.508  18.734  0.00  0.00    +0.000 C 
BRANCH  29  30
ATOM     30  C   UNL     1       2.906   2.127  19.755  0.00  0.00    +0.000 C 
ATOM     31  C   UNL     1       1.522   2.697  19.491  0.00  0.00    +0.000 C 
ATOM     32  C   UNL     1       0.962   2.964  20.865  0.00  0.00    +0.000 C 
ATOM     33  C   UNL     1       2.185   3.149  21.731  0.00  0.00    +0.000 C 
ATOM     34  O   UNL     1       3.292   2.529  21.077  0.00  0.00    +0.000 OA
ENDBRANCH  29  30
ENDBRANCH   5  29
TORSDOF 7
ENDMDL
MODEL 6
REMARK VINA RESULT:      -8.1      2.444      4.700
REMARK  Name = 
REMARK  9 active torsions:
REMARK  status: ('A' for Active; 'I' for Inactive)
REMARK    1  A    between atoms: C_1  and  C_2
REMARK    2  A    between atoms: C_2  and  C_3
REMARK    3  A    between atoms: C_3  and  C_4
REMARK    4  A    between atoms: C_4  and  C_5
REMARK    5  A    between atoms: C_9  and  C_11
REMARK    6  A    between atoms: C_14  and  C_15
REMARK    7  A    between atoms: C_15  and  C_16
REMARK    8  A    between atoms: N_25  and  C_26
REMARK    9  A    between atoms: C_26  and  C_27
REMARK                            x       y       z     vdW  Elec       q    Type
REMARK                         _______ _______ _______ _____ _____    ______ ____
ROOT
ATOM      1  C   UNL     1       3.760   6.128  17.692  0.00  0.00    +0.000 C 
ATOM      2  N   UNL     1       4.854   6.005  18.644  0.00  0.00    +0.000 N 
ATOM      3  C   UNL     1       4.897   4.746  19.202  0.00  0.00    +0.000 C 
ATOM      4  O   UNL     1       5.516   4.488  20.222  0.00  0.00    +0.000 OA
ATOM      5  N   UNL     1       4.097   3.919  18.475  0.00  0.00    +0.000 N 
ATOM      6  C   UNL     1       3.372   4.635  17.556  0.00  0.00    +0.000 C 
ATOM      7  O   UNL     1       2.512   4.209  16.802  0.00  0.00    +0.000 OA
ATOM      8  H   UNL     1       5.274   6.777  19.146  0.00  0.00    +0.000 HD
ENDROOT
BRANCH   1   9
ATOM      9  C   UNL     1       2.627   6.970  18.348  0.00  0.00    +0.000 C 
ATOM     10  C   UNL     1       2.543   6.930  19.888  0.00  0.00    +0.000 C 
ATOM     11  C   UNL     1       1.335   7.740  20.390  0.00  0.00    +0.000 C 
ATOM     12  N   UNL     1       1.331   9.106  19.861  0.00  0.00    +0.000 N 
ATOM     13  C   UNL     1       1.126  10.181  20.745  0.00  0.00    +0.000 C 
ATOM     14  O   UNL     1       1.060  10.028  21.960  0.00  0.00    +0.000 OA
ATOM     15  C   UNL     1       1.489   9.210  18.416  0.00  0.00    +0.000 C 
ATOM     16  C   UNL     1       2.698   8.448  17.930  0.00  0.00    +0.000 C 
BRANCH  13  17
ATOM     17  C   UNL     1       1.017  11.573  20.224  0.00  0.00    +0.000 A 
ATOM     18  C   UNL     1       2.049  12.510  20.351  0.00  0.00    +0.000 A 
ATOM     19  C   UNL     1       1.860  13.836  19.959  0.00  0.00    +0.000 A 
ATOM     20  C   UNL     1       0.688  14.211  19.301  0.00  0.00    +0.000 A 
ATOM     21  C   UNL     1      -0.319  13.257  19.092  0.00  0.00    +0.000 A 
ATOM     22  C   UNL     1      -0.157  11.948  19.559  0.00  0.00    +0.000 A 
BRANCH  20  23
ATOM     23  C   UNL     1       0.484  15.595  18.791  0.00  0.00    +0.000 C 
ATOM     24  C   UNL     1       1.677  16.433  18.408  0.00  0.00    +0.000 C 
ATOM     25  O   UNL     1      -0.660  16.025  18.658  0.00  0.00    +0.000 OA
ENDBRANCH  20  23
ENDBRANCH  13  17
ENDBRANCH   1   9
BRANCH   1  26
ATOM     26  C   UNL     1       4.272   6.722  16.370  0.00  0.00    +0.000 C 
BRANCH  26  28
ATOM     27  C   UNL     1       5.604   5.158  14.888  0.00  0.00    +0.000 C 
ATOM     28  C   UNL     1       5.668   6.223  15.965  0.00  0.00    +0.000 C 
ENDBRANCH  26  28
ENDBRANCH   1  26
BRANCH   5  29
ATOM     29  C   UNL     1       3.963   2.491  18.709  0.00  0.00    +0.000 C 
BRANCH  29  30
ATOM     30  C   UNL     1       2.871   2.126  19.733  0.00  0.00    +0.000 C 
ATOM     31  C   UNL     1       1.502   2.741  19.490  0.00  0.00    +0.000 C 
ATOM     32  C   UNL     1       0.962   3.001  20.874  0.00  0.00    +0.000 C 
ATOM     33  C   UNL     1       2.197   3.136  21.731  0.00  0.00    +0.000 C 
ATOM     34  O   UNL     1       3.280   2.494  21.057  0.00  0.00    +0.000 OA
ENDBRANCH  29  30
ENDBRANCH   5  29
TORSDOF 7
ENDMDL
MODEL 7
REMARK VINA RESULT:      -8.0      2.816     10.028
REMARK  Name = 
REMARK  9 active torsions:
REMARK  status: ('A' for Active; 'I' for Inactive)
REMARK    1  A    between atoms: C_1  and  C_2
REMARK    2  A    between atoms: C_2  and  C_3
REMARK    3  A    between atoms: C_3  and  C_4
REMARK    4  A    between atoms: C_4  and  C_5
REMARK    5  A    between atoms: C_9  and  C_11
REMARK    6  A    between atoms: C_14  and  C_15
REMARK    7  A    between atoms: C_15  and  C_16
REMARK    8  A    between atoms: N_25  and  C_26
REMARK    9  A    between atoms: C_26  and  C_27
REMARK                            x       y       z     vdW  Elec       q    Type
REMARK                         _______ _______ _______ _____ _____    ______ ____
ROOT
ATOM      1  C   UNL     1      -0.338  10.757  19.117  0.00  0.00    +0.000 C 
ATOM      2  N   UNL     1      -1.203  10.838  20.285  0.00  0.00    +0.000 N 
ATOM      3  C   UNL     1      -1.022  12.022  20.965  0.00  0.00    +0.000 C 
ATOM      4  O   UNL     1      -1.398  12.196  22.113  0.00  0.00    +0.000 OA
ATOM      5  N   UNL     1      -0.313  12.875  20.177  0.00  0.00    +0.000 N 
ATOM      6  C   UNL     1       0.146  12.227  19.058  0.00  0.00    +0.000 C 
ATOM      7  O   UNL     1       0.872  12.683  18.189  0.00  0.00    +0.000 OA
ATOM      8  H   UNL     1      -1.581  10.041  20.781  0.00  0.00    +0.000 HD
ENDROOT
BRANCH   1   9
ATOM      9  C   UNL     1       0.825   9.771  19.432  0.00  0.00    +0.000 C 
ATOM     10  C   UNL     1       0.466   8.530  20.276  0.00  0.00    +0.000 C 
ATOM     11  C   UNL     1       1.721   7.691  20.573  0.00  0.00    +0.000 C 
ATOM     12  N   UNL     1       2.455   7.349  19.352  0.00  0.00    +0.000 N 
ATOM     13  C   UNL     1       2.857   6.017  19.148  0.00  0.00    +0.000 C 
ATOM     14  O   UNL     1       2.522   5.107  19.899  0.00  0.00    +0.000 OA
ATOM     15  C   UNL     1       2.752   8.473  18.474  0.00  0.00    +0.000 C 
ATOM     16  C   UNL     1       1.513   9.272  18.150  0.00  0.00    +0.000 C 
BRANCH  13  17
ATOM     17  C   UNL     1       3.691   5.656  17.966  0.00  0.00    +0.000 A 
ATOM     18  C   UNL     1       3.677   4.380  17.393  0.00  0.00    +0.000 A 
ATOM     19  C   UNL     1       4.563   4.049  16.366  0.00  0.00    +0.000 A 
ATOM     20  C   UNL     1       5.375   5.032  15.799  0.00  0.00    +0.000 A 
ATOM     21  C   UNL     1       5.335   6.337  16.312  0.00  0.00    +0.000 A 
ATOM     22  C   UNL     1       4.503   6.644  17.395  0.00  0.00    +0.000 A 
BRANCH  20  23
ATOM     23  C   UNL     1       6.271   4.739  14.646  0.00  0.00    +0.000 C 
ATOM     24  C   UNL     1       5.780   3.858  13.525  0.00  0.00    +0.000 C 
ATOM     25  O   UNL     1       7.388   5.249  14.608  0.00  0.00    +0.000 OA
ENDBRANCH  20  23
ENDBRANCH  13  17
ENDBRANCH   1   9
BRANCH   1  26
ATOM     26  C   UNL     1      -1.154  10.360  17.877  0.00  0.00    +0.000 C 
BRANCH  26  28
ATOM     27  C   UNL     1      -3.506  10.548  16.953  0.00  0.00    +0.000 C 
ATOM     28  C   UNL     1      -2.350  11.285  17.600  0.00  0.00    +0.000 C 
ENDBRANCH  26  28
ENDBRANCH   1  26
BRANCH   5  29
ATOM     29  C   UNL     1      -0.009  14.253  20.523  0.00  0.00    +0.000 C 
BRANCH  29  30
ATOM     30  C   UNL     1      -0.955  15.283  19.877  0.00  0.00    +0.000 C 
ATOM     31  C   UNL     1      -0.468  15.909  18.580  0.00  0.00    +0.000 C 
ATOM     32  C   UNL     1      -0.983  17.325  18.636  0.00  0.00    +0.000 C 
ATOM     33  C   UNL     1      -1.139  17.603  20.110  0.00  0.00    +0.000 C 
ATOM     34  O   UNL     1      -1.236  16.352  20.793  0.00  0.00    +0.000 OA
ENDBRANCH  29  30
ENDBRANCH   5  29
TORSDOF 7
ENDMDL
MODEL 8
REMARK VINA RESULT:      -7.9      2.851      9.917
REMARK  Name = 
REMARK  9 active torsions:
REMARK  status: ('A' for Active; 'I' for Inactive)
REMARK    1  A    between atoms: C_1  and  C_2
REMARK    2  A    between atoms: C_2  and  C_3
REMARK    3  A    between atoms: C_3  and  C_4
REMARK    4  A    between atoms: C_4  and  C_5
REMARK    5  A    between atoms: C_9  and  C_11
REMARK    6  A    between atoms: C_14  and  C_15
REMARK    7  A    between atoms: C_15  and  C_16
REMARK    8  A    between atoms: N_25  and  C_26
REMARK    9  A    between atoms: C_26  and  C_27
REMARK                            x       y       z     vdW  Elec       q    Type
REMARK                         _______ _______ _______ _____ _____    ______ ____
ROOT
ATOM      1  C   UNL     1      -0.364  10.774  19.022  0.00  0.00    +0.000 C 
ATOM      2  N   UNL     1      -1.422  10.987  20.000  0.00  0.00    +0.000 N 
ATOM      3  C   UNL     1      -1.304  12.216  20.610  0.00  0.00    +0.000 C 
ATOM      4  O   UNL     1      -1.872  12.501  21.652  0.00  0.00    +0.000 OA
ATOM      5  N   UNL     1      -0.419  12.972  19.904  0.00  0.00    +0.000 N 
ATOM      6  C   UNL     1       0.201  12.214  18.942  0.00  0.00    +0.000 C 
ATOM      7  O   UNL     1       1.096  12.566  18.191  0.00  0.00    +0.000 OA
ATOM      8  H   UNL     1      -1.925  10.250  20.476  0.00  0.00    +0.000 HD
ENDROOT
BRANCH   1   9
ATOM      9  C   UNL     1       0.668   9.774  19.621  0.00  0.00    +0.000 C 
ATOM     10  C   UNL     1       0.093   8.598  20.439  0.00  0.00    +0.000 C 
ATOM     11  C   UNL     1       1.225   7.741  21.031  0.00  0.00    +0.000 C 
ATOM     12  N   UNL     1       2.177   7.303  20.007  0.00  0.00    +0.000 N 
ATOM     13  C   UNL     1       2.556   5.949  19.960  0.00  0.00    +0.000 C 
ATOM     14  O   UNL     1       2.037   5.097  20.674  0.00  0.00    +0.000 OA
ATOM     15  C   UNL     1       2.693   8.362  19.150  0.00  0.00    +0.000 C 
ATOM     16  C   UNL     1       1.580   9.178  18.537  0.00  0.00    +0.000 C 
BRANCH  13  17
ATOM     17  C   UNL     1       3.597   5.493  18.996  0.00  0.00    +0.000 A 
ATOM     18  C   UNL     1       4.956   5.431  19.326  0.00  0.00    +0.000 A 
ATOM     19  C   UNL     1       5.911   5.116  18.357  0.00  0.00    +0.000 A 
ATOM     20  C   UNL     1       5.508   4.717  17.082  0.00  0.00    +0.000 A 
ATOM     21  C   UNL     1       4.142   4.694  16.768  0.00  0.00    +0.000 A 
ATOM     22  C   UNL     1       3.193   5.089  17.718  0.00  0.00    +0.000 A 
BRANCH  20  23
ATOM     23  C   UNL     1       6.491   4.291  16.048  0.00  0.00    +0.000 C 
ATOM     24  C   UNL     1       6.005   3.865  14.685  0.00  0.00    +0.000 C 
ATOM     25  O   UNL     1       7.692   4.326  16.309  0.00  0.00    +0.000 OA
ENDBRANCH  20  23
ENDBRANCH  13  17
ENDBRANCH   1   9
BRANCH   1  26
ATOM     26  C   UNL     1      -0.962  10.305  17.687  0.00  0.00    +0.000 C 
BRANCH  26  28
ATOM     27  C   UNL     1      -3.049   9.859  16.322  0.00  0.00    +0.000 C 
ATOM     28  C   UNL     1      -2.497  10.365  17.640  0.00  0.00    +0.000 C 
ENDBRANCH  26  28
ENDBRANCH   1  26
BRANCH   5  29
ATOM     29  C   UNL     1      -0.109  14.361  20.195  0.00  0.00    +0.000 C 
BRANCH  29  30
ATOM     30  C   UNL     1      -0.986  15.370  19.429  0.00  0.00    +0.000 C 
ATOM     31  C   UNL     1      -0.240  16.375  18.566  0.00  0.00    +0.000 C 
ATOM     32  C   UNL     1      -1.060  17.636  18.671  0.00  0.00    +0.000 C 
ATOM     33  C   UNL     1      -1.781  17.497  19.990  0.00  0.00    +0.000 C 
ATOM     34  O   UNL     1      -1.811  16.112  20.339  0.00  0.00    +0.000 OA
ENDBRANCH  29  30
ENDBRANCH   5  29
TORSDOF 7
ENDMDL
MODEL 9
REMARK VINA RESULT:      -7.8      3.233      5.001
REMARK  Name = 
REMARK  9 active torsions:
REMARK  status: ('A' for Active; 'I' for Inactive)
REMARK    1  A    between atoms: C_1  and  C_2
REMARK    2  A    between atoms: C_2  and  C_3
REMARK    3  A    between atoms: C_3  and  C_4
REMARK    4  A    between atoms: C_4  and  C_5
REMARK    5  A    between atoms: C_9  and  C_11
REMARK    6  A    between atoms: C_14  and  C_15
REMARK    7  A    between atoms: C_15  and  C_16
REMARK    8  A    between atoms: N_25  and  C_26
REMARK    9  A    between atoms: C_26  and  C_27
REMARK                            x       y       z     vdW  Elec       q    Type
REMARK                         _______ _______ _______ _____ _____    ______ ____
ROOT
ATOM      1  C   UNL     1       2.544   6.733  18.798  0.00  0.00    +0.000 C 
ATOM      2  N   UNL     1       3.041   6.220  20.066  0.00  0.00    +0.000 N 
ATOM      3  C   UNL     1       2.388   5.063  20.432  0.00  0.00    +0.000 C 
ATOM      4  O   UNL     1       2.409   4.615  21.567  0.00  0.00    +0.000 OA
ATOM      5  N   UNL     1       1.695   4.594  19.359  0.00  0.00    +0.000 N 
ATOM      6  C   UNL     1       1.716   5.509  18.336  0.00  0.00    +0.000 C 
ATOM      7  O   UNL     1       1.132   5.432  17.266  0.00  0.00    +0.000 OA
ATOM      8  H   UNL     1       3.483   6.780  20.783  0.00  0.00    +0.000 HD
ENDROOT
BRANCH   1   9
ATOM      9  C   UNL     1       1.647   7.972  19.085  0.00  0.00    +0.000 C 
ATOM     10  C   UNL     1       1.321   8.260  20.565  0.00  0.00    +0.000 C 
ATOM     11  C   UNL     1       0.367   9.460  20.692  0.00  0.00    +0.000 C 
ATOM     12  N   UNL     1       0.873  10.641  19.986  0.00  0.00    +0.000 N 
ATOM     13  C   UNL     1       0.884  11.881  20.650  0.00  0.00    +0.000 C 
ATOM     14  O   UNL     1       0.590  11.994  21.836  0.00  0.00    +0.000 OA
ATOM     15  C   UNL     1       1.272  10.411  18.604  0.00  0.00    +0.000 C 
ATOM     16  C   UNL     1       2.241   9.258  18.486  0.00  0.00    +0.000 C 
BRANCH  13  17
ATOM     17  C   UNL     1       1.298  13.117  19.927  0.00  0.00    +0.000 A 
ATOM     18  C   UNL     1       2.636  13.506  19.802  0.00  0.00    +0.000 A 
ATOM     19  C   UNL     1       2.971  14.732  19.224  0.00  0.00    +0.000 A 
ATOM     20  C   UNL     1       1.983  15.520  18.633  0.00  0.00    +0.000 A 
ATOM     21  C   UNL     1       0.647  15.097  18.680  0.00  0.00    +0.000 A 
ATOM     22  C   UNL     1       0.306  13.905  19.331  0.00  0.00    +0.000 A 
BRANCH  20  23
ATOM     23  C   UNL     1       2.310  16.793  17.933  0.00  0.00    +0.000 C 
ATOM     24  C   UNL     1       1.211  17.775  17.615  0.00  0.00    +0.000 C 
ATOM     25  O   UNL     1       3.481  17.040  17.653  0.00  0.00    +0.000 OA
ENDBRANCH  20  23
ENDBRANCH  13  17
ENDBRANCH   1   9
BRANCH   1  26
ATOM     26  C   UNL     1       3.717   7.037  17.852  0.00  0.00    +0.000 C 
BRANCH  26  28
ATOM     27  C   UNL     1       5.089   5.763  16.146  0.00  0.00    +0.000 C 
ATOM     28  C   UNL     1       4.630   5.828  17.588  0.00  0.00    +0.000 C 
ENDBRANCH  26  28
ENDBRANCH   1  26
BRANCH   5  29
ATOM     29  C   UNL     1       0.958   3.342  19.339  0.00  0.00    +0.000 C 
BRANCH  29  30
ATOM     30  C   UNL     1       1.764   2.152  18.783  0.00  0.00    +0.000 C 
ATOM     31  C   UNL     1       3.001   1.761  19.576  0.00  0.00    +0.000 C 
ATOM     32  C   UNL     1       3.987   1.313  18.527  0.00  0.00    +0.000 C 
ATOM     33  C   UNL     1       3.549   2.035  17.277  0.00  0.00    +0.000 C 
ATOM     34  O   UNL     1       2.180   2.412  17.435  0.00  0.00    +0.000 OA
ENDBRANCH  29  30
ENDBRANCH   5  29
TORSDOF 7
ENDMDL
