MODEL 1
REMARK VINA RESULT:      -7.9      0.000      0.000
REMARK  Name = 
REMARK  10 active torsions:
REMARK  status: ('A' for Active; 'I' for Inactive)
REMARK    1  A    between atoms: N_1  and  C_2
REMARK    2  A    between atoms: C_2  and  C_3
REMARK    3  A    between atoms: C_3  and  C_4
REMARK    4  A    between atoms: C_4  and  C_5
REMARK    5  A    between atoms: C_5  and  C_6
REMARK    6  A    between atoms: C_6  and  N_7
REMARK    7  A    between atoms: C_8  and  C_10
REMARK    8  A    between atoms: C_10  and  N_11
REMARK    9  A    between atoms: C_12  and  C_13
REMARK   10  A    between atoms: C_27  and  C_28
REMARK                            x       y       z     vdW  Elec       q    Type
REMARK                         _______ _______ _______ _____ _____    ______ ____
ROOT
ATOM      1  N   UNL     1       4.471   5.401  18.373  0.00  0.00    +0.000 N 
ATOM      2  C   UNL     1       4.483   6.010  17.105  0.00  0.00    +0.000 A 
ATOM      3  N   UNL     1       3.803   7.090  16.858  0.00  0.00    +0.000 NA
ATOM      4  C   UNL     1       3.020   7.668  17.857  0.00  0.00    +0.000 A 
ATOM      5  C   UNL     1       2.285   8.812  17.564  0.00  0.00    +0.000 A 
ATOM      6  C   UNL     1       1.482   9.414  18.541  0.00  0.00    +0.000 A 
ATOM      7  C   UNL     1       1.388   8.893  19.845  0.00  0.00    +0.000 A 
ATOM      8  C   UNL     1       2.134   7.737  20.123  0.00  0.00    +0.000 A 
ATOM      9  C   UNL     1       2.937   7.144  19.136  0.00  0.00    +0.000 A 
ATOM     10  C   UNL     1       3.708   5.930  19.417  0.00  0.00    +0.000 A 
ATOM     11  O   UNL     1       3.620   5.411  20.529  0.00  0.00    +0.000 OA
ENDROOT
BRANCH   2  12
ATOM     12  C   UNL     1       5.310   5.477  15.967  0.00  0.00    +0.000 A 
ATOM     13  C   UNL     1       6.693   5.646  15.889  0.00  0.00    +0.000 A 
ATOM     14  C   UNL     1       7.407   5.284  14.753  0.00  0.00    +0.000 A 
ATOM     15  C   UNL     1       6.786   4.572  13.735  0.00  0.00    +0.000 A 
ATOM     16  C   UNL     1       7.517   4.175  12.608  0.00  0.00    +0.000 A 
ATOM     17  C   UNL     1       6.941   3.344  11.650  0.00  0.00    +0.000 A 
ATOM     18  C   UNL     1       5.626   2.916  11.815  0.00  0.00    +0.000 A 
ATOM     19  C   UNL     1       4.868   3.362  12.903  0.00  0.00    +0.000 A 
ATOM     20  C   UNL     1       5.427   4.207  13.874  0.00  0.00    +0.000 A 
ATOM     21  C   UNL     1       4.690   4.707  14.972  0.00  0.00    +0.000 A 
ENDBRANCH   2  12
BRANCH   7  22
ATOM     22  C   UNL     1       0.557   9.556  20.876  0.00  0.00    +0.000 A 
ATOM     23  C   UNL     1       0.424   9.016  22.169  0.00  0.00    +0.000 A 
ATOM     24  C   UNL     1      -0.419   9.596  23.122  0.00  0.00    +0.000 A 
ATOM     25  C   UNL     1      -1.133  10.747  22.811  0.00  0.00    +0.000 A 
ATOM     26  C   UNL     1      -0.996  11.324  21.553  0.00  0.00    +0.000 A 
ATOM     27  C   UNL     1      -0.161  10.734  20.597  0.00  0.00    +0.000 A 
ENDBRANCH   7  22
BRANCH   1  28
ATOM     28  C   UNL     1       5.271   4.225  18.758  0.00  0.00    +0.000 C 
BRANCH  28  30
ATOM     29  N   UNL     1       4.303   2.867  20.602  0.00  0.00    +0.000 N 
ATOM     30  C   UNL     1       4.429   3.027  19.237  0.00  0.00    +0.000 C 
ATOM     31  O   UNL     1       3.884   2.272  18.431  0.00  0.00    +0.000 OA
ATOM     32  H   UNL     1       5.070   3.210  21.170  0.00  0.00    +0.000 HD
BRANCH  29  33
ATOM     33  C   UNL     1       3.457   1.832  21.167  0.00  0.00    +0.000 C 
BRANCH  33  34
ATOM     34  C   UNL     1       2.175   2.397  21.778  0.00  0.00    +0.000 C 
BRANCH  34  35
ATOM     35  C   UNL     1       1.007   2.453  20.785  0.00  0.00    +0.000 C 
BRANCH  35  36
ATOM     36  C   UNL     1       0.881   3.848  20.164  0.00  0.00    +0.000 C 
BRANCH  36  37
ATOM     37  C   UNL     1       0.867   3.786  18.637  0.00  0.00    +0.000 C 
BRANCH  37  38
ATOM     38  N   UNL     1       1.093   2.416  18.189  0.00  0.00    +0.000 NA
ATOM     39  H   UNL     1       2.057   2.318  17.873  0.00  0.00    +0.000 HD
ATOM     40  H   UNL     1       0.507   2.220  17.378  0.00  0.00    +0.000 HD
ENDBRANCH  37  38
ENDBRANCH  36  37
ENDBRANCH  35  36
ENDBRANCH  34  35
ENDBRANCH  33  34
ENDBRANCH  29  33
ENDBRANCH  28  30
ENDBRANCH   1  28
TORSDOF 10
ENDMDL
MODEL 2
REMARK VINA RESULT:      -7.9      0.928      1.276
REMARK  Name = 
REMARK  10 active torsions:
REMARK  status: ('A' for Active; 'I' for Inactive)
REMARK    1  A    between atoms: N_1  and  C_2
REMARK    2  A    between atoms: C_2  and  C_3
REMARK    3  A    between atoms: C_3  and  C_4
REMARK    4  A    between atoms: C_4  and  C_5
REMARK    5  A    between atoms: C_5  and  C_6
REMARK    6  A    between atoms: C_6  and  N_7
REMARK    7  A    between atoms: C_8  and  C_10
REMARK    8  A    between atoms: C_10  and  N_11
REMARK    9  A    between atoms: C_12  and  C_13
REMARK   10  A    between atoms: C_27  and  C_28
REMARK                            x       y       z     vdW  Elec       q    Type
REMARK                         _______ _______ _______ _____ _____    ______ ____
ROOT
ATOM      1  N   UNL     1       4.600   5.497  18.471  0.00  0.00    +0.000 N 
ATOM      2  C   UNL     1       4.539   6.061  17.183  0.00  0.00    +0.000 A 
ATOM      3  N   UNL     1       3.779   7.081  16.918  0.00  0.00    +0.000 NA
ATOM      4  C   UNL     1       2.981   7.638  17.916  0.00  0.00    +0.000 A 
ATOM      5  C   UNL     1       2.160   8.717  17.604  0.00  0.00    +0.000 A 
ATOM      6  C   UNL     1       1.340   9.296  18.580  0.00  0.00    +0.000 A 
ATOM      7  C   UNL     1       1.313   8.815  19.903  0.00  0.00    +0.000 A 
ATOM      8  C   UNL     1       2.145   7.725  20.201  0.00  0.00    +0.000 A 
ATOM      9  C   UNL     1       2.965   7.155  19.214  0.00  0.00    +0.000 A 
ATOM     10  C   UNL     1       3.826   6.009  19.515  0.00  0.00    +0.000 A 
ATOM     11  O   UNL     1       3.801   5.525  20.646  0.00  0.00    +0.000 OA
ENDROOT
BRANCH   2  12
ATOM     12  C   UNL     1       5.376   5.548  16.043  0.00  0.00    +0.000 A 
ATOM     13  C   UNL     1       6.754   5.747  15.963  0.00  0.00    +0.000 A 
ATOM     14  C   UNL     1       7.473   5.402  14.824  0.00  0.00    +0.000 A 
ATOM     15  C   UNL     1       6.866   4.677  13.806  0.00  0.00    +0.000 A 
ATOM     16  C   UNL     1       7.603   4.297  12.678  0.00  0.00    +0.000 A 
ATOM     17  C   UNL     1       7.043   3.455  11.721  0.00  0.00    +0.000 A 
ATOM     18  C   UNL     1       5.738   2.998  11.887  0.00  0.00    +0.000 A 
ATOM     19  C   UNL     1       4.973   3.427  12.978  0.00  0.00    +0.000 A 
ATOM     20  C   UNL     1       5.515   4.282  13.949  0.00  0.00    +0.000 A 
ATOM     21  C   UNL     1       4.771   4.765  15.048  0.00  0.00    +0.000 A 
ENDBRANCH   2  12
BRANCH   7  22
ATOM     22  C   UNL     1       0.461   9.455  20.933  0.00  0.00    +0.000 A 
ATOM     23  C   UNL     1      -0.272  10.623  20.655  0.00  0.00    +0.000 A 
ATOM     24  C   UNL     1      -1.016  11.274  21.644  0.00  0.00    +0.000 A 
ATOM     25  C   UNL     1      -1.062  10.757  22.934  0.00  0.00    +0.000 A 
ATOM     26  C   UNL     1      -0.375   9.585  23.231  0.00  0.00    +0.000 A 
ATOM     27  C   UNL     1       0.379   8.943  22.241  0.00  0.00    +0.000 A 
ENDBRANCH   7  22
BRANCH   1  28
ATOM     28  C   UNL     1       5.489   4.395  18.874  0.00  0.00    +0.000 C 
BRANCH  28  30
ATOM     29  N   UNL     1       3.964   2.590  18.100  0.00  0.00    +0.000 N 
ATOM     30  C   UNL     1       4.757   3.063  19.127  0.00  0.00    +0.000 C 
ATOM     31  O   UNL     1       4.900   2.452  20.186  0.00  0.00    +0.000 OA
ATOM     32  H   UNL     1       3.557   3.287  17.487  0.00  0.00    +0.000 HD
BRANCH  29  33
ATOM     33  C   UNL     1       3.304   1.301  18.189  0.00  0.00    +0.000 C 
BRANCH  33  34
ATOM     34  C   UNL     1       2.202   1.281  19.247  0.00  0.00    +0.000 C 
BRANCH  34  35
ATOM     35  C   UNL     1       0.943   2.046  18.822  0.00  0.00    +0.000 C 
BRANCH  35  36
ATOM     36  C   UNL     1       0.836   3.384  19.563  0.00  0.00    +0.000 C 
BRANCH  36  37
ATOM     37  C   UNL     1       1.066   4.567  18.624  0.00  0.00    +0.000 C 
BRANCH  37  38
ATOM     38  N   UNL     1       1.323   4.090  17.269  0.00  0.00    +0.000 NA
ATOM     39  H   UNL     1       0.587   4.423  16.649  0.00  0.00    +0.000 HD
ATOM     40  H   UNL     1       1.273   3.072  17.249  0.00  0.00    +0.000 HD
ENDBRANCH  37  38
ENDBRANCH  36  37
ENDBRANCH  35  36
ENDBRANCH  34  35
ENDBRANCH  33  34
ENDBRANCH  29  33
ENDBRANCH  28  30
ENDBRANCH   1  28
TORSDOF 10
ENDMDL
MODEL 3
REMARK VINA RESULT:      -7.9      4.998     11.618
REMARK  Name = 
REMARK  10 active torsions:
REMARK  status: ('A' for Active; 'I' for Inactive)
REMARK    1  A    between atoms: N_1  and  C_2
REMARK    2  A    between atoms: C_2  and  C_3
REMARK    3  A    between atoms: C_3  and  C_4
REMARK    4  A    between atoms: C_4  and  C_5
REMARK    5  A    between atoms: C_5  and  C_6
REMARK    6  A    between atoms: C_6  and  N_7
REMARK    7  A    between atoms: C_8  and  C_10
REMARK    8  A    between atoms: C_10  and  N_11
REMARK    9  A    between atoms: C_12  and  C_13
REMARK   10  A    between atoms: C_27  and  C_28
REMARK                            x       y       z     vdW  Elec       q    Type
REMARK                         _______ _______ _______ _____ _____    ______ ____
ROOT
ATOM      1  N   UNL     1      -0.931  11.506  19.968  0.00  0.00    +0.000 N 
ATOM      2  C   UNL     1      -0.795  11.346  21.359  0.00  0.00    +0.000 A 
ATOM      3  N   UNL     1      -0.051  10.412  21.871  0.00  0.00    +0.000 NA
ATOM      4  C   UNL     1       0.626   9.522  21.038  0.00  0.00    +0.000 A 
ATOM      5  C   UNL     1       1.400   8.516  21.609  0.00  0.00    +0.000 A 
ATOM      6  C   UNL     1       2.088   7.601  20.803  0.00  0.00    +0.000 A 
ATOM      7  C   UNL     1       2.025   7.659  19.398  0.00  0.00    +0.000 A 
ATOM      8  C   UNL     1       1.237   8.677  18.838  0.00  0.00    +0.000 A 
ATOM      9  C   UNL     1       0.555   9.591  19.658  0.00  0.00    +0.000 A 
ATOM     10  C   UNL     1      -0.279  10.648  19.080  0.00  0.00    +0.000 A 
ATOM     11  O   UNL     1      -0.402  10.710  17.857  0.00  0.00    +0.000 OA
ENDROOT
BRANCH   2  12
ATOM     12  C   UNL     1      -1.467  12.266  22.342  0.00  0.00    +0.000 A 
ATOM     13  C   UNL     1      -2.667  11.951  22.979  0.00  0.00    +0.000 A 
ATOM     14  C   UNL     1      -3.344  12.883  23.758  0.00  0.00    +0.000 A 
ATOM     15  C   UNL     1      -2.746  14.096  24.073  0.00  0.00    +0.000 A 
ATOM     16  C   UNL     1      -3.414  15.018  24.889  0.00  0.00    +0.000 A 
ATOM     17  C   UNL     1      -2.768  16.173  25.323  0.00  0.00    +0.000 A 
ATOM     18  C   UNL     1      -1.454  16.413  24.932  0.00  0.00    +0.000 A 
ATOM     19  C   UNL     1      -0.802  15.530  24.062  0.00  0.00    +0.000 A 
ATOM     20  C   UNL     1      -1.438  14.365  23.607  0.00  0.00    +0.000 A 
ATOM     21  C   UNL     1      -0.831  13.463  22.704  0.00  0.00    +0.000 A 
ENDBRANCH   2  12
BRANCH   7  22
ATOM     22  C   UNL     1       2.780   6.701  18.557  0.00  0.00    +0.000 A 
ATOM     23  C   UNL     1       3.828   7.128  17.721  0.00  0.00    +0.000 A 
ATOM     24  C   UNL     1       4.493   6.242  16.869  0.00  0.00    +0.000 A 
ATOM     25  C   UNL     1       4.139   4.897  16.849  0.00  0.00    +0.000 A 
ATOM     26  C   UNL     1       3.129   4.438  17.689  0.00  0.00    +0.000 A 
ATOM     27  C   UNL     1       2.458   5.331  18.531  0.00  0.00    +0.000 A 
ENDBRANCH   7  22
BRANCH   1  28
ATOM     28  C   UNL     1      -1.689  12.583  19.307  0.00  0.00    +0.000 C 
BRANCH  28  30
ATOM     29  N   UNL     1      -3.340  11.862  17.594  0.00  0.00    +0.000 N 
ATOM     30  C   UNL     1      -3.126  12.187  18.918  0.00  0.00    +0.000 C 
ATOM     31  O   UNL     1      -4.022  12.147  19.761  0.00  0.00    +0.000 OA
ATOM     32  H   UNL     1      -2.733  12.309  16.915  0.00  0.00    +0.000 HD
BRANCH  29  33
ATOM     33  C   UNL     1      -4.630  11.383  17.133  0.00  0.00    +0.000 C 
BRANCH  33  34
ATOM     34  C   UNL     1      -5.677  12.495  17.072  0.00  0.00    +0.000 C 
BRANCH  34  35
ATOM     35  C   UNL     1      -6.897  12.224  17.960  0.00  0.00    +0.000 C 
BRANCH  35  36
ATOM     36  C   UNL     1      -6.886  10.784  18.485  0.00  0.00    +0.000 C 
BRANCH  36  37
ATOM     37  C   UNL     1      -7.223  10.724  19.974  0.00  0.00    +0.000 C 
BRANCH  37  38
ATOM     38  N   UNL     1      -7.565  12.055  20.465  0.00  0.00    +0.000 NA
ATOM     39  H   UNL     1      -8.234  12.488  19.830  0.00  0.00    +0.000 HD
ATOM     40  H   UNL     1      -6.736  12.649  20.452  0.00  0.00    +0.000 HD
ENDBRANCH  37  38
ENDBRANCH  36  37
ENDBRANCH  35  36
ENDBRANCH  34  35
ENDBRANCH  33  34
ENDBRANCH  29  33
ENDBRANCH  28  30
ENDBRANCH   1  28
TORSDOF 10
ENDMDL
MODEL 4
REMARK VINA RESULT:      -7.9      0.836      1.417
REMARK  Name = 
REMARK  10 active torsions:
REMARK  status: ('A' for Active; 'I' for Inactive)
REMARK    1  A    between atoms: N_1  and  C_2
REMARK    2  A    between atoms: C_2  and  C_3
REMARK    3  A    between atoms: C_3  and  C_4
REMARK    4  A    between atoms: C_4  and  C_5
REMARK    5  A    between atoms: C_5  and  C_6
REMARK    6  A    between atoms: C_6  and  N_7
REMARK    7  A    between atoms: C_8  and  C_10
REMARK    8  A    between atoms: C_10  and  N_11
REMARK    9  A    between atoms: C_12  and  C_13
REMARK   10  A    between atoms: C_27  and  C_28
REMARK                            x       y       z     vdW  Elec       q    Type
REMARK                         _______ _______ _______ _____ _____    ______ ____
ROOT
ATOM      1  N   UNL     1       4.385   5.453  18.347  0.00  0.00    +0.000 N 
ATOM      2  C   UNL     1       4.464   6.127  17.115  0.00  0.00    +0.000 A 
ATOM      3  N   UNL     1       3.817   7.232  16.897  0.00  0.00    +0.000 NA
ATOM      4  C   UNL     1       3.004   7.775  17.890  0.00  0.00    +0.000 A 
ATOM      5  C   UNL     1       2.304   8.949  17.627  0.00  0.00    +0.000 A 
ATOM      6  C   UNL     1       1.472   9.517  18.599  0.00  0.00    +0.000 A 
ATOM      7  C   UNL     1       1.311   8.931  19.869  0.00  0.00    +0.000 A 
ATOM      8  C   UNL     1       2.020   7.746  20.117  0.00  0.00    +0.000 A 
ATOM      9  C   UNL     1       2.855   7.187  19.135  0.00  0.00    +0.000 A 
ATOM     10  C   UNL     1       3.588   5.944  19.384  0.00  0.00    +0.000 A 
ATOM     11  O   UNL     1       3.441   5.370  20.462  0.00  0.00    +0.000 OA
ENDROOT
BRANCH   2  12
ATOM     12  C   UNL     1       5.330   5.636  15.986  0.00  0.00    +0.000 A 
ATOM     13  C   UNL     1       6.700   5.889  15.915  0.00  0.00    +0.000 A 
ATOM     14  C   UNL     1       7.442   5.562  14.785  0.00  0.00    +0.000 A 
ATOM     15  C   UNL     1       6.872   4.803  13.771  0.00  0.00    +0.000 A 
ATOM     16  C   UNL     1       7.633   4.441  12.652  0.00  0.00    +0.000 A 
ATOM     17  C   UNL     1       7.115   3.568  11.699  0.00  0.00    +0.000 A 
ATOM     18  C   UNL     1       5.828   3.061  11.861  0.00  0.00    +0.000 A 
ATOM     19  C   UNL     1       5.037   3.469  12.941  0.00  0.00    +0.000 A 
ATOM     20  C   UNL     1       5.537   4.355  13.907  0.00  0.00    +0.000 A 
ATOM     21  C   UNL     1       4.764   4.819  14.995  0.00  0.00    +0.000 A 
ENDBRANCH   2  12
BRANCH   7  22
ATOM     22  C   UNL     1       0.449   9.558  20.898  0.00  0.00    +0.000 A 
ATOM     23  C   UNL     1      -0.280  10.730  20.628  0.00  0.00    +0.000 A 
ATOM     24  C   UNL     1      -1.034  11.369  21.617  0.00  0.00    +0.000 A 
ATOM     25  C   UNL     1      -1.094  10.835  22.900  0.00  0.00    +0.000 A 
ATOM     26  C   UNL     1      -0.411   9.658  23.189  0.00  0.00    +0.000 A 
ATOM     27  C   UNL     1       0.352   9.029  22.199  0.00  0.00    +0.000 A 
ENDBRANCH   7  22
BRANCH   1  28
ATOM     28  C   UNL     1       5.144   4.241  18.703  0.00  0.00    +0.000 C 
BRANCH  28  30
ATOM     29  N   UNL     1       3.688   2.327  19.334  0.00  0.00    +0.000 N 
ATOM     30  C   UNL     1       4.429   2.926  18.336  0.00  0.00    +0.000 C 
ATOM     31  O   UNL     1       4.506   2.459  17.199  0.00  0.00    +0.000 OA
ATOM     32  H   UNL     1       3.997   2.490  20.286  0.00  0.00    +0.000 HD
BRANCH  29  33
ATOM     33  C   UNL     1       2.896   1.138  19.076  0.00  0.00    +0.000 C 
BRANCH  33  34
ATOM     34  C   UNL     1       1.453   1.470  18.697  0.00  0.00    +0.000 C 
BRANCH  34  35
ATOM     35  C   UNL     1       1.041   2.897  19.080  0.00  0.00    +0.000 C 
BRANCH  35  36
ATOM     36  C   UNL     1       0.520   2.950  20.520  0.00  0.00    +0.000 C 
BRANCH  36  37
ATOM     37  C   UNL     1       1.471   3.719  21.436  0.00  0.00    +0.000 C 
BRANCH  37  38
ATOM     38  N   UNL     1       2.406   2.799  22.076  0.00  0.00    +0.000 NA
ATOM     39  H   UNL     1       2.972   2.342  21.363  0.00  0.00    +0.000 HD
ATOM     40  H   UNL     1       1.888   2.057  22.546  0.00  0.00    +0.000 HD
ENDBRANCH  37  38
ENDBRANCH  36  37
ENDBRANCH  35  36
ENDBRANCH  34  35
ENDBRANCH  33  34
ENDBRANCH  29  33
ENDBRANCH  28  30
ENDBRANCH   1  28
TORSDOF 10
ENDMDL
MODEL 5
REMARK VINA RESULT:      -7.9      4.108     10.999
REMARK  Name = 
REMARK  10 active torsions:
REMARK  status: ('A' for Active; 'I' for Inactive)
REMARK    1  A    between atoms: N_1  and  C_2
REMARK    2  A    between atoms: C_2  and  C_3
REMARK    3  A    between atoms: C_3  and  C_4
REMARK    4  A    between atoms: C_4  and  C_5
REMARK    5  A    between atoms: C_5  and  C_6
REMARK    6  A    between atoms: C_6  and  N_7
REMARK    7  A    between atoms: C_8  and  C_10
REMARK    8  A    between atoms: C_10  and  N_11
REMARK    9  A    between atoms: C_12  and  C_13
REMARK   10  A    between atoms: C_27  and  C_28
REMARK                            x       y       z     vdW  Elec       q    Type
REMARK                         _______ _______ _______ _____ _____    ______ ____
ROOT
ATOM      1  N   UNL     1       0.996  10.721  19.033  0.00  0.00    +0.000 N 
ATOM      2  C   UNL     1       0.452  10.086  20.164  0.00  0.00    +0.000 A 
ATOM      3  N   UNL     1       0.753   8.860  20.472  0.00  0.00    +0.000 NA
ATOM      4  C   UNL     1       1.623   8.129  19.664  0.00  0.00    +0.000 A 
ATOM      5  C   UNL     1       1.915   6.811  20.002  0.00  0.00    +0.000 A 
ATOM      6  C   UNL     1       2.779   6.046  19.209  0.00  0.00    +0.000 A 
ATOM      7  C   UNL     1       3.381   6.572  18.051  0.00  0.00    +0.000 A 
ATOM      8  C   UNL     1       3.074   7.902  17.723  0.00  0.00    +0.000 A 
ATOM      9  C   UNL     1       2.209   8.661  18.528  0.00  0.00    +0.000 A 
ATOM     10  C   UNL     1       1.874  10.044  18.183  0.00  0.00    +0.000 A 
ATOM     11  O   UNL     1       2.340  10.532  17.154  0.00  0.00    +0.000 OA
ENDROOT
BRANCH   2  12
ATOM     12  C   UNL     1      -0.480  10.794  21.110  0.00  0.00    +0.000 A 
ATOM     13  C   UNL     1      -0.458  10.591  22.491  0.00  0.00    +0.000 A 
ATOM     14  C   UNL     1      -1.431  11.135  23.321  0.00  0.00    +0.000 A 
ATOM     15  C   UNL     1      -2.348  12.050  22.818  0.00  0.00    +0.000 A 
ATOM     16  C   UNL     1      -3.303  12.626  23.664  0.00  0.00    +0.000 A 
ATOM     17  C   UNL     1      -4.134  13.643  23.201  0.00  0.00    +0.000 A 
ATOM     18  C   UNL     1      -4.015  14.080  21.885  0.00  0.00    +0.000 A 
ATOM     19  C   UNL     1      -3.108  13.465  21.014  0.00  0.00    +0.000 A 
ATOM     20  C   UNL     1      -2.269  12.432  21.458  0.00  0.00    +0.000 A 
ATOM     21  C   UNL     1      -1.363  11.761  20.606  0.00  0.00    +0.000 A 
ENDBRANCH   2  12
BRANCH   7  22
ATOM     22  C   UNL     1       4.316   5.760  17.237  0.00  0.00    +0.000 A 
ATOM     23  C   UNL     1       4.222   4.357  17.195  0.00  0.00    +0.000 A 
ATOM     24  C   UNL     1       5.147   3.582  16.491  0.00  0.00    +0.000 A 
ATOM     25  C   UNL     1       6.180   4.195  15.791  0.00  0.00    +0.000 A 
ATOM     26  C   UNL     1       6.279   5.583  15.785  0.00  0.00    +0.000 A 
ATOM     27  C   UNL     1       5.358   6.355  16.502  0.00  0.00    +0.000 A 
ENDBRANCH   7  22
BRANCH   1  28
ATOM     28  C   UNL     1       0.769  12.127  18.657  0.00  0.00    +0.000 C 
BRANCH  28  30
ATOM     29  N   UNL     1       2.760  13.456  17.981  0.00  0.00    +0.000 N 
ATOM     30  C   UNL     1       1.936  13.066  19.019  0.00  0.00    +0.000 C 
ATOM     31  O   UNL     1       2.100  13.457  20.174  0.00  0.00    +0.000 OA
ATOM     32  H   UNL     1       2.849  12.807  17.207  0.00  0.00    +0.000 HD
BRANCH  29  33
ATOM     33  C   UNL     1       3.831  14.412  18.187  0.00  0.00    +0.000 C 
BRANCH  33  34
ATOM     34  C   UNL     1       3.501  15.790  17.613  0.00  0.00    +0.000 C 
BRANCH  34  35
ATOM     35  C   UNL     1       2.774  16.701  18.611  0.00  0.00    +0.000 C 
BRANCH  35  36
ATOM     36  C   UNL     1       1.357  17.027  18.125  0.00  0.00    +0.000 C 
BRANCH  36  37
ATOM     37  C   UNL     1       0.295  16.439  19.052  0.00  0.00    +0.000 C 
BRANCH  37  38
ATOM     38  N   UNL     1      -1.038  16.791  18.573  0.00  0.00    +0.000 NA
ATOM     39  H   UNL     1      -1.260  16.233  17.750  0.00  0.00    +0.000 HD
ATOM     40  H   UNL     1      -1.047  17.764  18.267  0.00  0.00    +0.000 HD
ENDBRANCH  37  38
ENDBRANCH  36  37
ENDBRANCH  35  36
ENDBRANCH  34  35
ENDBRANCH  33  34
ENDBRANCH  29  33
ENDBRANCH  28  30
ENDBRANCH   1  28
TORSDOF 10
ENDMDL
MODEL 6
REMARK VINA RESULT:      -7.8      4.182     10.673
REMARK  Name = 
REMARK  10 active torsions:
REMARK  status: ('A' for Active; 'I' for Inactive)
REMARK    1  A    between atoms: N_1  and  C_2
REMARK    2  A    between atoms: C_2  and  C_3
REMARK    3  A    between atoms: C_3  and  C_4
REMARK    4  A    between atoms: C_4  and  C_5
REMARK    5  A    between atoms: C_5  and  C_6
REMARK    6  A    between atoms: C_6  and  N_7
REMARK    7  A    between atoms: C_8  and  C_10
REMARK    8  A    between atoms: C_10  and  N_11
REMARK    9  A    between atoms: C_12  and  C_13
REMARK   10  A    between atoms: C_27  and  C_28
REMARK                            x       y       z     vdW  Elec       q    Type
REMARK                         _______ _______ _______ _____ _____    ______ ____
ROOT
ATOM      1  N   UNL     1       0.934  10.959  19.506  0.00  0.00    +0.000 N 
ATOM      2  C   UNL     1       0.427  10.694  20.791  0.00  0.00    +0.000 A 
ATOM      3  N   UNL     1       0.538   9.522  21.343  0.00  0.00    +0.000 NA
ATOM      4  C   UNL     1       1.156   8.480  20.654  0.00  0.00    +0.000 A 
ATOM      5  C   UNL     1       1.245   7.229  21.256  0.00  0.00    +0.000 A 
ATOM      6  C   UNL     1       1.853   6.157  20.590  0.00  0.00    +0.000 A 
ATOM      7  C   UNL     1       2.394   6.301  19.298  0.00  0.00    +0.000 A 
ATOM      8  C   UNL     1       2.294   7.568  18.704  0.00  0.00    +0.000 A 
ATOM      9  C   UNL     1       1.684   8.636  19.383  0.00  0.00    +0.000 A 
ATOM     10  C   UNL     1       1.566   9.958  18.763  0.00  0.00    +0.000 A 
ATOM     11  O   UNL     1       1.982  10.119  17.617  0.00  0.00    +0.000 OA
ENDROOT
BRANCH   2  12
ATOM     12  C   UNL     1      -0.238  11.755  21.625  0.00  0.00    +0.000 A 
ATOM     13  C   UNL     1       0.238  13.063  21.710  0.00  0.00    +0.000 A 
ATOM     14  C   UNL     1      -0.302  13.976  22.609  0.00  0.00    +0.000 A 
ATOM     15  C   UNL     1      -1.456  13.663  23.316  0.00  0.00    +0.000 A 
ATOM     16  C   UNL     1      -2.019  14.598  24.193  0.00  0.00    +0.000 A 
ATOM     17  C   UNL     1      -3.247  14.346  24.798  0.00  0.00    +0.000 A 
ATOM     18  C   UNL     1      -3.911  13.151  24.534  0.00  0.00    +0.000 A 
ATOM     19  C   UNL     1      -3.323  12.182  23.712  0.00  0.00    +0.000 A 
ATOM     20  C   UNL     1      -2.082  12.413  23.100  0.00  0.00    +0.000 A 
ATOM     21  C   UNL     1      -1.436  11.452  22.289  0.00  0.00    +0.000 A 
ENDBRANCH   2  12
BRANCH   7  22
ATOM     22  C   UNL     1       3.059   5.166  18.616  0.00  0.00    +0.000 A 
ATOM     23  C   UNL     1       4.458   5.013  18.645  0.00  0.00    +0.000 A 
ATOM     24  C   UNL     1       5.097   3.988  17.941  0.00  0.00    +0.000 A 
ATOM     25  C   UNL     1       4.347   3.077  17.206  0.00  0.00    +0.000 A 
ATOM     26  C   UNL     1       2.961   3.182  17.185  0.00  0.00    +0.000 A 
ATOM     27  C   UNL     1       2.326   4.216  17.882  0.00  0.00    +0.000 A 
ENDBRANCH   7  22
BRANCH   1  28
ATOM     28  C   UNL     1       0.921  12.273  18.842  0.00  0.00    +0.000 C 
BRANCH  28  30
ATOM     29  N   UNL     1      -1.063  11.493  17.562  0.00  0.00    +0.000 N 
ATOM     30  C   UNL     1      -0.386  12.577  18.084  0.00  0.00    +0.000 C 
ATOM     31  O   UNL     1      -0.803  13.730  17.977  0.00  0.00    +0.000 OA
ATOM     32  H   UNL     1      -0.500  10.690  17.305  0.00  0.00    +0.000 HD
BRANCH  29  33
ATOM     33  C   UNL     1      -2.351  11.649  16.913  0.00  0.00    +0.000 C 
BRANCH  33  34
ATOM     34  C   UNL     1      -2.669  10.495  15.963  0.00  0.00    +0.000 C 
BRANCH  34  35
ATOM     35  C   UNL     1      -3.805  10.815  14.983  0.00  0.00    +0.000 C 
BRANCH  35  36
ATOM     36  C   UNL     1      -3.986   9.684  13.965  0.00  0.00    +0.000 C 
BRANCH  36  37
ATOM     37  C   UNL     1      -2.896   9.709  12.895  0.00  0.00    +0.000 C 
BRANCH  37  38
ATOM     38  N   UNL     1      -3.498   9.690  11.565  0.00  0.00    +0.000 NA
ATOM     39  H   UNL     1      -4.418   9.257  11.617  0.00  0.00    +0.000 HD
ATOM     40  H   UNL     1      -2.941   9.102  10.945  0.00  0.00    +0.000 HD
ENDBRANCH  37  38
ENDBRANCH  36  37
ENDBRANCH  35  36
ENDBRANCH  34  35
ENDBRANCH  33  34
ENDBRANCH  29  33
ENDBRANCH  28  30
ENDBRANCH   1  28
TORSDOF 10
ENDMDL
MODEL 7
REMARK VINA RESULT:      -7.8      4.034     10.761
REMARK  Name = 
REMARK  10 active torsions:
REMARK  status: ('A' for Active; 'I' for Inactive)
REMARK    1  A    between atoms: N_1  and  C_2
REMARK    2  A    between atoms: C_2  and  C_3
REMARK    3  A    between atoms: C_3  and  C_4
REMARK    4  A    between atoms: C_4  and  C_5
REMARK    5  A    between atoms: C_5  and  C_6
REMARK    6  A    between atoms: C_6  and  N_7
REMARK    7  A    between atoms: C_8  and  C_10
REMARK    8  A    between atoms: C_10  and  N_11
REMARK    9  A    between atoms: C_12  and  C_13
REMARK   10  A    between atoms: C_27  and  C_28
REMARK                            x       y       z     vdW  Elec       q    Type
REMARK                         _______ _______ _______ _____ _____    ______ ____
ROOT
ATOM      1  N   UNL     1       1.031  10.916  19.364  0.00  0.00    +0.000 N 
ATOM      2  C   UNL     1       0.535  10.643  20.651  0.00  0.00    +0.000 A 
ATOM      3  N   UNL     1       0.654   9.468  21.195  0.00  0.00    +0.000 NA
ATOM      4  C   UNL     1       1.271   8.432  20.496  0.00  0.00    +0.000 A 
ATOM      5  C   UNL     1       1.368   7.178  21.090  0.00  0.00    +0.000 A 
ATOM      6  C   UNL     1       1.974   6.112  20.413  0.00  0.00    +0.000 A 
ATOM      7  C   UNL     1       2.505   6.265  19.118  0.00  0.00    +0.000 A 
ATOM      8  C   UNL     1       2.396   7.535  18.532  0.00  0.00    +0.000 A 
ATOM      9  C   UNL     1       1.788   8.597  19.222  0.00  0.00    +0.000 A 
ATOM     10  C   UNL     1       1.660   9.922  18.611  0.00  0.00    +0.000 A 
ATOM     11  O   UNL     1       2.067  10.090  17.462  0.00  0.00    +0.000 OA
ENDROOT
BRANCH   2  12
ATOM     12  C   UNL     1      -0.127  11.697  21.496  0.00  0.00    +0.000 A 
ATOM     13  C   UNL     1       0.329  13.014  21.563  0.00  0.00    +0.000 A 
ATOM     14  C   UNL     1      -0.204  13.922  22.471  0.00  0.00    +0.000 A 
ATOM     15  C   UNL     1      -1.334  13.592  23.208  0.00  0.00    +0.000 A 
ATOM     16  C   UNL     1      -1.892  14.523  24.094  0.00  0.00    +0.000 A 
ATOM     17  C   UNL     1      -3.100  14.254  24.731  0.00  0.00    +0.000 A 
ATOM     18  C   UNL     1      -3.749  13.045  24.491  0.00  0.00    +0.000 A 
ATOM     19  C   UNL     1      -3.165  12.082  23.659  0.00  0.00    +0.000 A 
ATOM     20  C   UNL     1      -1.944  12.331  23.014  0.00  0.00    +0.000 A 
ATOM     21  C   UNL     1      -1.303  11.377  22.192  0.00  0.00    +0.000 A 
ENDBRANCH   2  12
BRANCH   7  22
ATOM     22  C   UNL     1       3.169   5.136  18.425  0.00  0.00    +0.000 A 
ATOM     23  C   UNL     1       4.145   5.357  17.436  0.00  0.00    +0.000 A 
ATOM     24  C   UNL     1       4.719   4.299  16.725  0.00  0.00    +0.000 A 
ATOM     25  C   UNL     1       4.345   2.989  17.004  0.00  0.00    +0.000 A 
ATOM     26  C   UNL     1       3.408   2.737  18.000  0.00  0.00    +0.000 A 
ATOM     27  C   UNL     1       2.827   3.800  18.701  0.00  0.00    +0.000 A 
ENDBRANCH   7  22
BRANCH   1  28
ATOM     28  C   UNL     1       1.009  12.235  18.707  0.00  0.00    +0.000 C 
BRANCH  28  30
ATOM     29  N   UNL     1      -1.249  11.591  17.888  0.00  0.00    +0.000 N 
ATOM     30  C   UNL     1      -0.369  12.625  18.137  0.00  0.00    +0.000 C 
ATOM     31  O   UNL     1      -0.662  13.804  17.941  0.00  0.00    +0.000 OA
ATOM     32  H   UNL     1      -0.838  10.693  17.657  0.00  0.00    +0.000 HD
BRANCH  29  33
ATOM     33  C   UNL     1      -2.606  11.846  17.442  0.00  0.00    +0.000 C 
BRANCH  33  34
ATOM     34  C   UNL     1      -3.644  11.516  18.514  0.00  0.00    +0.000 C 
BRANCH  34  35
ATOM     35  C   UNL     1      -3.549  12.424  19.746  0.00  0.00    +0.000 C 
BRANCH  35  36
ATOM     36  C   UNL     1      -4.862  13.181  19.973  0.00  0.00    +0.000 C 
BRANCH  36  37
ATOM     37  C   UNL     1      -6.036  12.224  20.176  0.00  0.00    +0.000 C 
BRANCH  37  38
ATOM     38  N   UNL     1      -6.177  11.897  21.591  0.00  0.00    +0.000 NA
ATOM     39  H   UNL     1      -5.988  12.727  22.151  0.00  0.00    +0.000 HD
ATOM     40  H   UNL     1      -5.471  11.210  21.856  0.00  0.00    +0.000 HD
ENDBRANCH  37  38
ENDBRANCH  36  37
ENDBRANCH  35  36
ENDBRANCH  34  35
ENDBRANCH  33  34
ENDBRANCH  29  33
ENDBRANCH  28  30
ENDBRANCH   1  28
TORSDOF 10
ENDMDL
MODEL 8
REMARK VINA RESULT:      -7.7      5.139     11.931
REMARK  Name = 
REMARK  10 active torsions:
REMARK  status: ('A' for Active; 'I' for Inactive)
REMARK    1  A    between atoms: N_1  and  C_2
REMARK    2  A    between atoms: C_2  and  C_3
REMARK    3  A    between atoms: C_3  and  C_4
REMARK    4  A    between atoms: C_4  and  C_5
REMARK    5  A    between atoms: C_5  and  C_6
REMARK    6  A    between atoms: C_6  and  N_7
REMARK    7  A    between atoms: C_8  and  C_10
REMARK    8  A    between atoms: C_10  and  N_11
REMARK    9  A    between atoms: C_12  and  C_13
REMARK   10  A    between atoms: C_27  and  C_28
REMARK                            x       y       z     vdW  Elec       q    Type
REMARK                         _______ _______ _______ _____ _____    ______ ____
ROOT
ATOM      1  N   UNL     1      -1.113  12.377  20.788  0.00  0.00    +0.000 N 
ATOM      2  C   UNL     1      -0.971  12.332  22.187  0.00  0.00    +0.000 A 
ATOM      3  N   UNL     1      -0.315  11.378  22.778  0.00  0.00    +0.000 NA
ATOM      4  C   UNL     1       0.257  10.352  22.026  0.00  0.00    +0.000 A 
ATOM      5  C   UNL     1       0.937   9.331  22.682  0.00  0.00    +0.000 A 
ATOM      6  C   UNL     1       1.517   8.281  21.959  0.00  0.00    +0.000 A 
ATOM      7  C   UNL     1       1.436   8.216  20.555  0.00  0.00    +0.000 A 
ATOM      8  C   UNL     1       0.745   9.253  19.910  0.00  0.00    +0.000 A 
ATOM      9  C   UNL     1       0.170  10.302  20.645  0.00  0.00    +0.000 A 
ATOM     10  C   UNL     1      -0.564  11.380  19.978  0.00  0.00    +0.000 A 
ATOM     11  O   UNL     1      -0.701  11.341  18.756  0.00  0.00    +0.000 OA
ENDROOT
BRANCH   2  12
ATOM     12  C   UNL     1      -1.532  13.401  23.085  0.00  0.00    +0.000 A 
ATOM     13  C   UNL     1      -2.744  13.265  23.761  0.00  0.00    +0.000 A 
ATOM     14  C   UNL     1      -3.313  14.327  24.455  0.00  0.00    +0.000 A 
ATOM     15  C   UNL     1      -2.595  15.500  24.648  0.00  0.00    +0.000 A 
ATOM     16  C   UNL     1      -3.154  16.555  25.380  0.00  0.00    +0.000 A 
ATOM     17  C   UNL     1      -2.393  17.677  25.696  0.00  0.00    +0.000 A 
ATOM     18  C   UNL     1      -1.069  17.749  25.270  0.00  0.00    +0.000 A 
ATOM     19  C   UNL     1      -0.522  16.730  24.482  0.00  0.00    +0.000 A 
ATOM     20  C   UNL     1      -1.276  15.596  24.145  0.00  0.00    +0.000 A 
ATOM     21  C   UNL     1      -0.776  14.558  23.325  0.00  0.00    +0.000 A 
ENDBRANCH   2  12
BRANCH   7  22
ATOM     22  C   UNL     1       2.079   7.115  19.801  0.00  0.00    +0.000 A 
ATOM     23  C   UNL     1       2.673   7.336  18.545  0.00  0.00    +0.000 A 
ATOM     24  C   UNL     1       3.213   6.286  17.795  0.00  0.00    +0.000 A 
ATOM     25  C   UNL     1       3.191   4.989  18.297  0.00  0.00    +0.000 A 
ATOM     26  C   UNL     1       2.641   4.745  19.550  0.00  0.00    +0.000 A 
ATOM     27  C   UNL     1       2.090   5.796  20.292  0.00  0.00    +0.000 A 
ENDBRANCH   7  22
BRANCH   1  28
ATOM     28  C   UNL     1      -1.771  13.459  20.035  0.00  0.00    +0.000 C 
BRANCH  28  30
ATOM     29  N   UNL     1      -3.815  12.318  19.198  0.00  0.00    +0.000 N 
ATOM     30  C   UNL     1      -3.306  13.336  19.978  0.00  0.00    +0.000 C 
ATOM     31  O   UNL     1      -4.027  14.101  20.619  0.00  0.00    +0.000 OA
ATOM     32  H   UNL     1      -3.251  12.031  18.406  0.00  0.00    +0.000 HD
BRANCH  29  33
ATOM     33  C   UNL     1      -5.240  12.048  19.145  0.00  0.00    +0.000 C 
BRANCH  33  34
ATOM     34  C   UNL     1      -5.621  11.159  17.962  0.00  0.00    +0.000 C 
BRANCH  34  35
ATOM     35  C   UNL     1      -4.892  11.534  16.665  0.00  0.00    +0.000 C 
BRANCH  35  36
ATOM     36  C   UNL     1      -4.090  10.345  16.124  0.00  0.00    +0.000 C 
BRANCH  36  37
ATOM     37  C   UNL     1      -2.752  10.790  15.534  0.00  0.00    +0.000 C 
BRANCH  37  38
ATOM     38  N   UNL     1      -2.134  11.795  16.393  0.00  0.00    +0.000 NA
ATOM     39  H   UNL     1      -2.567  11.764  17.315  0.00  0.00    +0.000 HD
ATOM     40  H   UNL     1      -2.323  12.726  16.022  0.00  0.00    +0.000 HD
ENDBRANCH  37  38
ENDBRANCH  36  37
ENDBRANCH  35  36
ENDBRANCH  34  35
ENDBRANCH  33  34
ENDBRANCH  29  33
ENDBRANCH  28  30
ENDBRANCH   1  28
TORSDOF 10
ENDMDL
MODEL 9
REMARK VINA RESULT:      -7.7      4.853     11.397
REMARK  Name = 
REMARK  10 active torsions:
REMARK  status: ('A' for Active; 'I' for Inactive)
REMARK    1  A    between atoms: N_1  and  C_2
REMARK    2  A    between atoms: C_2  and  C_3
REMARK    3  A    between atoms: C_3  and  C_4
REMARK    4  A    between atoms: C_4  and  C_5
REMARK    5  A    between atoms: C_5  and  C_6
REMARK    6  A    between atoms: C_6  and  N_7
REMARK    7  A    between atoms: C_8  and  C_10
REMARK    8  A    between atoms: C_10  and  N_11
REMARK    9  A    between atoms: C_12  and  C_13
REMARK   10  A    between atoms: C_27  and  C_28
REMARK                            x       y       z     vdW  Elec       q    Type
REMARK                         _______ _______ _______ _____ _____    ______ ____
ROOT
ATOM      1  N   UNL     1      -0.776  11.532  20.044  0.00  0.00    +0.000 N 
ATOM      2  C   UNL     1      -0.696  11.322  21.433  0.00  0.00    +0.000 A 
ATOM      3  N   UNL     1      -0.002  10.346  21.938  0.00  0.00    +0.000 NA
ATOM      4  C   UNL     1       0.674   9.460  21.100  0.00  0.00    +0.000 A 
ATOM      5  C   UNL     1       1.393   8.411  21.663  0.00  0.00    +0.000 A 
ATOM      6  C   UNL     1       2.079   7.499  20.851  0.00  0.00    +0.000 A 
ATOM      7  C   UNL     1       2.068   7.605  19.448  0.00  0.00    +0.000 A 
ATOM      8  C   UNL     1       1.336   8.667  18.896  0.00  0.00    +0.000 A 
ATOM      9  C   UNL     1       0.656   9.578  19.721  0.00  0.00    +0.000 A 
ATOM     10  C   UNL     1      -0.121  10.681  19.150  0.00  0.00    +0.000 A 
ATOM     11  O   UNL     1      -0.198  10.786  17.927  0.00  0.00    +0.000 OA
ENDROOT
BRANCH   2  12
ATOM     12  C   UNL     1      -1.371  12.232  22.422  0.00  0.00    +0.000 A 
ATOM     13  C   UNL     1      -2.554  11.893  23.081  0.00  0.00    +0.000 A 
ATOM     14  C   UNL     1      -3.238  12.814  23.866  0.00  0.00    +0.000 A 
ATOM     15  C   UNL     1      -2.662  14.042  24.165  0.00  0.00    +0.000 A 
ATOM     16  C   UNL     1      -3.336  14.953  24.988  0.00  0.00    +0.000 A 
ATOM     17  C   UNL     1      -2.710  16.125  25.404  0.00  0.00    +0.000 A 
ATOM     18  C   UNL     1      -1.408  16.392  24.990  0.00  0.00    +0.000 A 
ATOM     19  C   UNL     1      -0.751  15.519  24.114  0.00  0.00    +0.000 A 
ATOM     20  C   UNL     1      -1.368  14.338  23.675  0.00  0.00    +0.000 A 
ATOM     21  C   UNL     1      -0.757  13.445  22.767  0.00  0.00    +0.000 A 
ENDBRANCH   2  12
BRANCH   7  22
ATOM     22  C   UNL     1       2.821   6.649  18.602  0.00  0.00    +0.000 A 
ATOM     23  C   UNL     1       3.852   7.082  17.748  0.00  0.00    +0.000 A 
ATOM     24  C   UNL     1       4.514   6.196  16.892  0.00  0.00    +0.000 A 
ATOM     25  C   UNL     1       4.173   4.848  16.886  0.00  0.00    +0.000 A 
ATOM     26  C   UNL     1       3.181   4.385  17.743  0.00  0.00    +0.000 A 
ATOM     27  C   UNL     1       2.512   5.276  18.590  0.00  0.00    +0.000 A 
ENDBRANCH   7  22
BRANCH   1  28
ATOM     28  C   UNL     1      -1.473  12.655  19.394  0.00  0.00    +0.000 C 
BRANCH  28  30
ATOM     29  N   UNL     1      -2.968  11.923  17.547  0.00  0.00    +0.000 N 
ATOM     30  C   UNL     1      -2.879  12.300  18.872  0.00  0.00    +0.000 C 
ATOM     31  O   UNL     1      -3.858  12.334  19.617  0.00  0.00    +0.000 OA
ATOM     32  H   UNL     1      -2.275  12.314  16.918  0.00  0.00    +0.000 HD
BRANCH  29  33
ATOM     33  C   UNL     1      -4.224  11.476  16.973  0.00  0.00    +0.000 C 
BRANCH  33  34
ATOM     34  C   UNL     1      -4.034  10.336  15.973  0.00  0.00    +0.000 C 
BRANCH  34  35
ATOM     35  C   UNL     1      -3.482  10.805  14.621  0.00  0.00    +0.000 C 
BRANCH  35  36
ATOM     36  C   UNL     1      -3.292   9.622  13.665  0.00  0.00    +0.000 C 
BRANCH  36  37
ATOM     37  C   UNL     1      -4.128   9.782  12.396  0.00  0.00    +0.000 C 
BRANCH  37  38
ATOM     38  N   UNL     1      -5.511   9.394  12.654  0.00  0.00    +0.000 NA
ATOM     39  H   UNL     1      -6.048  10.217  12.923  0.00  0.00    +0.000 HD
ATOM     40  H   UNL     1      -5.546   8.759  13.452  0.00  0.00    +0.000 HD
ENDBRANCH  37  38
ENDBRANCH  36  37
ENDBRANCH  35  36
ENDBRANCH  34  35
ENDBRANCH  33  34
ENDBRANCH  29  33
ENDBRANCH  28  30
ENDBRANCH   1  28
TORSDOF 10
ENDMDL
