MODEL 1
REMARK VINA RESULT:      -7.2      0.000      0.000
REMARK  Name = 
REMARK  3 active torsions:
REMARK  status: ('A' for Active; 'I' for Inactive)
REMARK    1  A    between atoms: C_1  and  C_2
REMARK    2  A    between atoms: C_19  and  O_20
REMARK    3  A    between atoms: C_19  and  C_21
REMARK                            x       y       z     vdW  Elec       q    Type
REMARK                         _______ _______ _______ _____ _____    ______ ____
ROOT
ATOM      1  C   UNL     1       8.639  13.296  18.668  0.00  0.00    +0.000 C 
ATOM      2  C   UNL     1      10.104  12.864  18.882  0.00  0.00    +0.000 C 
ATOM      3  C   UNL     1       9.888  11.311  19.473  0.00  0.00    +0.000 C 
ATOM      4  C   UNL     1       9.270  11.195  20.903  0.00  0.00    +0.000 C 
ATOM      5  C   UNL     1       9.497  12.381  21.882  0.00  0.00    +0.000 C 
ATOM      6  C   UNL     1       8.088  12.818  22.449  0.00  0.00    +0.000 C 
ATOM      7  C   UNL     1       7.604  11.903  23.585  0.00  0.00    +0.000 C 
ATOM      8  C   UNL     1       6.134  12.168  23.888  0.00  0.00    +0.000 C 
ATOM      9  C   UNL     1       5.866  13.631  24.169  0.00  0.00    +0.000 C 
ATOM     10  O   UNL     1       4.867  13.997  24.756  0.00  0.00    +0.000 OA
ATOM     11  C   UNL     1       6.845  14.629  23.627  0.00  0.00    +0.000 C 
ATOM     12  C   UNL     1       7.891  14.272  22.881  0.00  0.00    +0.000 C 
ATOM     13  C   UNL     1       8.789  15.325  22.258  0.00  0.00    +0.000 C 
ATOM     14  C   UNL     1      10.251  14.839  22.025  0.00  0.00    +0.000 C 
ATOM     15  C   UNL     1      10.190  13.548  21.184  0.00  0.00    +0.000 C 
ATOM     16  C   UNL     1      11.107  13.345  19.942  0.00  0.00    +0.000 C 
ATOM     17  C   UNL     1      12.332  12.383  19.379  0.00  0.00    +0.000 C 
ATOM     18  C   UNL     1      11.951  12.092  17.812  0.00  0.00    +0.000 C 
ATOM     19  C   UNL     1      11.002  13.253  17.595  0.00  0.00    +0.000 C 
ENDROOT
BRANCH  19  20
ATOM     20  C   UNL     1      12.058  14.438  17.463  0.00  0.00    +0.000 C 
ATOM     21  C   UNL     1      12.159  15.772  17.478  0.00  0.00    +0.000 C 
ATOM     22  I   UNL     1      10.747  17.180  17.583  0.00  0.00    +0.000 I 
ENDBRANCH  19  20
BRANCH  19  23
ATOM     23  O   UNL     1      10.226  13.249  16.412  0.00  0.00    +0.000 OA
ATOM     24  H   UNL     1       9.937  14.174  16.285  0.00  0.00    +0.000 HD
ENDBRANCH  19  23
TORSDOF 2
ENDMDL
MODEL 2
REMARK VINA RESULT:      -6.6      9.333     10.945
REMARK  Name = 
REMARK  3 active torsions:
REMARK  status: ('A' for Active; 'I' for Inactive)
REMARK    1  A    between atoms: C_1  and  C_2
REMARK    2  A    between atoms: C_19  and  O_20
REMARK    3  A    between atoms: C_19  and  C_21
REMARK                            x       y       z     vdW  Elec       q    Type
REMARK                         _______ _______ _______ _____ _____    ______ ____
ROOT
ATOM      1  C   UNL     1       1.391   4.468  17.695  0.00  0.00    +0.000 C 
ATOM      2  C   UNL     1       2.603   4.008  18.530  0.00  0.00    +0.000 C 
ATOM      3  C   UNL     1       1.969   4.100  20.078  0.00  0.00    +0.000 C 
ATOM      4  C   UNL     1       1.685   5.535  20.625  0.00  0.00    +0.000 C 
ATOM      5  C   UNL     1       2.542   6.702  20.060  0.00  0.00    +0.000 C 
ATOM      6  C   UNL     1       1.555   7.832  19.563  0.00  0.00    +0.000 C 
ATOM      7  C   UNL     1       1.034   8.703  20.716  0.00  0.00    +0.000 C 
ATOM      8  C   UNL     1      -0.130   9.567  20.243  0.00  0.00    +0.000 C 
ATOM      9  C   UNL     1       0.227  10.381  19.018  0.00  0.00    +0.000 C 
ATOM     10  O   UNL     1      -0.411  11.363  18.695  0.00  0.00    +0.000 OA
ATOM     11  C   UNL     1       1.358   9.887  18.166  0.00  0.00    +0.000 C 
ATOM     12  C   UNL     1       2.006   8.752  18.427  0.00  0.00    +0.000 C 
ATOM     13  C   UNL     1       3.066   8.233  17.472  0.00  0.00    +0.000 C 
ATOM     14  C   UNL     1       4.157   7.362  18.166  0.00  0.00    +0.000 C 
ATOM     15  C   UNL     1       3.441   6.225  18.922  0.00  0.00    +0.000 C 
ATOM     16  C   UNL     1       3.921   4.748  18.808  0.00  0.00    +0.000 C 
ATOM     17  C   UNL     1       4.550   3.515  19.717  0.00  0.00    +0.000 C 
ATOM     18  C   UNL     1       3.751   2.174  19.217  0.00  0.00    +0.000 C 
ATOM     19  C   UNL     1       3.272   2.689  17.876  0.00  0.00    +0.000 C 
ENDROOT
BRANCH  19  20
ATOM     20  C   UNL     1       4.632   2.590  17.052  0.00  0.00    +0.000 C 
ATOM     21  C   UNL     1       5.424   3.287  16.230  0.00  0.00    +0.000 C 
ATOM     22  I   UNL     1       5.174   5.087  15.401  0.00  0.00    +0.000 I 
ENDBRANCH  19  20
BRANCH  19  23
ATOM     23  O   UNL     1       2.307   1.916  17.187  0.00  0.00    +0.000 OA
ATOM     24  H   UNL     1       1.868   1.374  17.873  0.00  0.00    +0.000 HD
ENDBRANCH  19  23
TORSDOF 2
ENDMDL
MODEL 3
REMARK VINA RESULT:      -6.2      1.068      1.133
REMARK  Name = 
REMARK  3 active torsions:
REMARK  status: ('A' for Active; 'I' for Inactive)
REMARK    1  A    between atoms: C_1  and  C_2
REMARK    2  A    between atoms: C_19  and  O_20
REMARK    3  A    between atoms: C_19  and  C_21
REMARK                            x       y       z     vdW  Elec       q    Type
REMARK                         _______ _______ _______ _____ _____    ______ ____
ROOT
ATOM      1  C   UNL     1       8.232  13.961  19.322  0.00  0.00    +0.000 C 
ATOM      2  C   UNL     1       9.753  13.712  19.353  0.00  0.00    +0.000 C 
ATOM      3  C   UNL     1       9.794  12.066  19.659  0.00  0.00    +0.000 C 
ATOM      4  C   UNL     1       9.331  11.614  21.081  0.00  0.00    +0.000 C 
ATOM      5  C   UNL     1       9.493  12.631  22.246  0.00  0.00    +0.000 C 
ATOM      6  C   UNL     1       8.098  12.757  22.978  0.00  0.00    +0.000 C 
ATOM      7  C   UNL     1       7.843  11.599  23.955  0.00  0.00    +0.000 C 
ATOM      8  C   UNL     1       6.385  11.594  24.401  0.00  0.00    +0.000 C 
ATOM      9  C   UNL     1       5.959  12.932  24.965  0.00  0.00    +0.000 C 
ATOM     10  O   UNL     1       4.980  13.044  25.676  0.00  0.00    +0.000 OA
ATOM     11  C   UNL     1       6.748  14.139  24.553  0.00  0.00    +0.000 C 
ATOM     12  C   UNL     1       7.757  14.070  23.684  0.00  0.00    +0.000 C 
ATOM     13  C   UNL     1       8.452  15.333  23.208  0.00  0.00    +0.000 C 
ATOM     14  C   UNL     1       9.936  15.108  22.791  0.00  0.00    +0.000 C 
ATOM     15  C   UNL     1       9.963  13.989  21.730  0.00  0.00    +0.000 C 
ATOM     16  C   UNL     1      10.780  14.139  20.413  0.00  0.00    +0.000 C 
ATOM     17  C   UNL     1      12.061  13.475  19.600  0.00  0.00    +0.000 C 
ATOM     18  C   UNL     1      11.577  13.410  18.036  0.00  0.00    +0.000 C 
ATOM     19  C   UNL     1      10.472  14.444  18.103  0.00  0.00    +0.000 C 
ENDROOT
BRANCH  19  20
ATOM     20  C   UNL     1      11.350  15.772  18.121  0.00  0.00    +0.000 C 
ATOM     21  C   UNL     1      11.275  17.087  18.353  0.00  0.00    +0.000 C 
ATOM     22  I   UNL     1       9.699  18.248  18.753  0.00  0.00    +0.000 I 
ENDBRANCH  19  20
BRANCH  19  23
ATOM     23  O   UNL     1       9.596  14.535  16.995  0.00  0.00    +0.000 OA
ATOM     24  H   UNL     1       8.725  14.233  17.323  0.00  0.00    +0.000 HD
ENDBRANCH  19  23
TORSDOF 2
ENDMDL
MODEL 4
REMARK VINA RESULT:      -6.0      2.859      7.185
REMARK  Name = 
REMARK  3 active torsions:
REMARK  status: ('A' for Active; 'I' for Inactive)
REMARK    1  A    between atoms: C_1  and  C_2
REMARK    2  A    between atoms: C_19  and  O_20
REMARK    3  A    between atoms: C_19  and  C_21
REMARK                            x       y       z     vdW  Elec       q    Type
REMARK                         _______ _______ _______ _____ _____    ______ ____
ROOT
ATOM      1  C   UNL     1       6.779  13.949  21.644  0.00  0.00    +0.000 C 
ATOM      2  C   UNL     1       7.436  13.519  22.971  0.00  0.00    +0.000 C 
ATOM      3  C   UNL     1       8.533  14.766  23.193  0.00  0.00    +0.000 C 
ATOM      4  C   UNL     1       9.737  14.814  22.199  0.00  0.00    +0.000 C 
ATOM      5  C   UNL     1      10.195  13.473  21.561  0.00  0.00    +0.000 C 
ATOM      6  C   UNL     1      10.248  13.674  19.994  0.00  0.00    +0.000 C 
ATOM      7  C   UNL     1      11.529  14.389  19.539  0.00  0.00    +0.000 C 
ATOM      8  C   UNL     1      11.401  14.830  18.085  0.00  0.00    +0.000 C 
ATOM      9  C   UNL     1      11.023  13.682  17.174  0.00  0.00    +0.000 C 
ATOM     10  O   UNL     1      11.205  13.732  15.974  0.00  0.00    +0.000 OA
ATOM     11  C   UNL     1      10.342  12.501  17.797  0.00  0.00    +0.000 C 
ATOM     12  C   UNL     1      10.024  12.460  19.092  0.00  0.00    +0.000 C 
ATOM     13  C   UNL     1       9.233  11.293  19.654  0.00  0.00    +0.000 C 
ATOM     14  C   UNL     1       9.510  11.022  21.164  0.00  0.00    +0.000 C 
ATOM     15  C   UNL     1       9.250  12.333  21.933  0.00  0.00    +0.000 C 
ATOM     16  C   UNL     1       8.400  12.353  23.238  0.00  0.00    +0.000 C 
ATOM     17  C   UNL     1       8.520  12.677  24.858  0.00  0.00    +0.000 C 
ATOM     18  C   UNL     1       7.152  13.502  25.223  0.00  0.00    +0.000 C 
ATOM     19  C   UNL     1       6.310  13.069  24.040  0.00  0.00    +0.000 C 
ENDROOT
BRANCH  19  20
ATOM     20  C   UNL     1       5.939  11.592  24.505  0.00  0.00    +0.000 C 
ATOM     21  C   UNL     1       5.403  10.906  25.521  0.00  0.00    +0.000 C 
ATOM     22  I   UNL     1       4.802  11.513  27.326  0.00  0.00    +0.000 I 
ENDBRANCH  19  20
BRANCH  19  23
ATOM     23  O   UNL     1       5.094  13.758  23.819  0.00  0.00    +0.000 OA
ATOM     24  H   UNL     1       5.251  14.673  24.126  0.00  0.00    +0.000 HD
ENDBRANCH  19  23
TORSDOF 2
ENDMDL
MODEL 5
REMARK VINA RESULT:      -5.5      9.347     12.906
REMARK  Name = 
REMARK  3 active torsions:
REMARK  status: ('A' for Active; 'I' for Inactive)
REMARK    1  A    between atoms: C_1  and  C_2
REMARK    2  A    between atoms: C_19  and  O_20
REMARK    3  A    between atoms: C_19  and  C_21
REMARK                            x       y       z     vdW  Elec       q    Type
REMARK                         _______ _______ _______ _____ _____    ______ ____
ROOT
ATOM      1  C   UNL     1      -3.227  12.536  19.917  0.00  0.00    +0.000 C 
ATOM      2  C   UNL     1      -2.929  13.339  21.199  0.00  0.00    +0.000 C 
ATOM      3  C   UNL     1      -1.875  14.497  20.605  0.00  0.00    +0.000 C 
ATOM      4  C   UNL     1      -0.464  13.990  20.167  0.00  0.00    +0.000 C 
ATOM      5  C   UNL     1       0.088  12.714  20.861  0.00  0.00    +0.000 C 
ATOM      6  C   UNL     1       0.528  11.700  19.732  0.00  0.00    +0.000 C 
ATOM      7  C   UNL     1       1.906  12.039  19.144  0.00  0.00    +0.000 C 
ATOM      8  C   UNL     1       2.152  11.236  17.872  0.00  0.00    +0.000 C 
ATOM      9  C   UNL     1       1.968   9.750  18.093  0.00  0.00    +0.000 C 
ATOM     10  O   UNL     1       2.438   8.928  17.333  0.00  0.00    +0.000 OA
ATOM     11  C   UNL     1       1.114   9.325  19.249  0.00  0.00    +0.000 C 
ATOM     12  C   UNL     1       0.488  10.201  20.037  0.00  0.00    +0.000 C 
ATOM     13  C   UNL     1      -0.458   9.723  21.123  0.00  0.00    +0.000 C 
ATOM     14  C   UNL     1      -0.568  10.703  22.330  0.00  0.00    +0.000 C 
ATOM     15  C   UNL     1      -0.961  12.088  21.778  0.00  0.00    +0.000 C 
ATOM     16  C   UNL     1      -2.101  12.926  22.427  0.00  0.00    +0.000 C 
ATOM     17  C   UNL     1      -2.368  14.352  23.225  0.00  0.00    +0.000 C 
ATOM     18  C   UNL     1      -3.754  14.942  22.579  0.00  0.00    +0.000 C 
ATOM     19  C   UNL     1      -4.297  13.650  22.003  0.00  0.00    +0.000 C 
ENDROOT
BRANCH  19  20
ATOM     20  C   UNL     1      -4.823  12.963  23.339  0.00  0.00    +0.000 C 
ATOM     21  C   UNL     1      -5.906  12.857  24.119  0.00  0.00    +0.000 C 
ATOM     22  I   UNL     1      -7.678  13.772  24.014  0.00  0.00    +0.000 I 
ENDBRANCH  19  20
BRANCH  19  23
ATOM     23  O   UNL     1      -5.397  13.743  21.117  0.00  0.00    +0.000 OA
ATOM     24  H   UNL     1      -5.819  14.603  21.312  0.00  0.00    +0.000 HD
ENDBRANCH  19  23
TORSDOF 2
ENDMDL
MODEL 6
REMARK VINA RESULT:      -5.5      9.092     10.722
REMARK  Name = 
REMARK  3 active torsions:
REMARK  status: ('A' for Active; 'I' for Inactive)
REMARK    1  A    between atoms: C_1  and  C_2
REMARK    2  A    between atoms: C_19  and  O_20
REMARK    3  A    between atoms: C_19  and  C_21
REMARK                            x       y       z     vdW  Elec       q    Type
REMARK                         _______ _______ _______ _____ _____    ______ ____
ROOT
ATOM      1  C   UNL     1       4.966   6.161  19.415  0.00  0.00    +0.000 C 
ATOM      2  C   UNL     1       4.304   5.268  18.346  0.00  0.00    +0.000 C 
ATOM      3  C   UNL     1       4.227   6.333  17.055  0.00  0.00    +0.000 C 
ATOM      4  C   UNL     1       3.223   7.521  17.196  0.00  0.00    +0.000 C 
ATOM      5  C   UNL     1       1.984   7.309  18.111  0.00  0.00    +0.000 C 
ATOM      6  C   UNL     1       1.928   8.511  19.136  0.00  0.00    +0.000 C 
ATOM      7  C   UNL     1       1.320   9.780  18.518  0.00  0.00    +0.000 C 
ATOM      8  C   UNL     1       1.562  10.979  19.427  0.00  0.00    +0.000 C 
ATOM      9  C   UNL     1       1.073  10.732  20.838  0.00  0.00    +0.000 C 
ATOM     10  O   UNL     1       0.855  11.645  21.609  0.00  0.00    +0.000 OA
ATOM     11  C   UNL     1       0.939   9.306  21.282  0.00  0.00    +0.000 C 
ATOM     12  C   UNL     1       1.278   8.279  20.502  0.00  0.00    +0.000 C 
ATOM     13  C   UNL     1       1.234   6.859  21.035  0.00  0.00    +0.000 C 
ATOM     14  C   UNL     1       0.985   5.787  19.932  0.00  0.00    +0.000 C 
ATOM     15  C   UNL     1       2.061   5.972  18.843  0.00  0.00    +0.000 C 
ATOM     16  C   UNL     1       2.856   4.760  18.274  0.00  0.00    +0.000 C 
ATOM     17  C   UNL     1       3.104   3.917  16.870  0.00  0.00    +0.000 C 
ATOM     18  C   UNL     1       4.716   3.624  16.835  0.00  0.00    +0.000 C 
ATOM     19  C   UNL     1       5.007   3.812  18.310  0.00  0.00    +0.000 C 
ENDROOT
BRANCH  19  20
ATOM     20  C   UNL     1       4.434   2.437  18.872  0.00  0.00    +0.000 C 
ATOM     21  C   UNL     1       3.612   1.933  19.800  0.00  0.00    +0.000 C 
ATOM     22  I   UNL     1       2.609   2.833  21.273  0.00  0.00    +0.000 I 
ENDBRANCH  19  20
BRANCH  19  23
ATOM     23  O   UNL     1       6.365   3.893  18.702  0.00  0.00    +0.000 OA
ATOM     24  H   UNL     1       6.484   3.196  19.378  0.00  0.00    +0.000 HD
ENDBRANCH  19  23
TORSDOF 2
ENDMDL
MODEL 7
REMARK VINA RESULT:      -5.4      9.895     11.769
REMARK  Name = 
REMARK  3 active torsions:
REMARK  status: ('A' for Active; 'I' for Inactive)
REMARK    1  A    between atoms: C_1  and  C_2
REMARK    2  A    between atoms: C_19  and  O_20
REMARK    3  A    between atoms: C_19  and  C_21
REMARK                            x       y       z     vdW  Elec       q    Type
REMARK                         _______ _______ _______ _____ _____    ______ ____
ROOT
ATOM      1  C   UNL     1       0.237  15.235  21.707  0.00  0.00    +0.000 C 
ATOM      2  C   UNL     1      -1.234  15.642  21.929  0.00  0.00    +0.000 C 
ATOM      3  C   UNL     1      -1.483  15.076  23.485  0.00  0.00    +0.000 C 
ATOM      4  C   UNL     1      -1.514  13.524  23.661  0.00  0.00    +0.000 C 
ATOM      5  C   UNL     1      -1.955  12.672  22.438  0.00  0.00    +0.000 C 
ATOM      6  C   UNL     1      -0.848  11.572  22.189  0.00  0.00    +0.000 C 
ATOM      7  C   UNL     1      -0.989  10.374  23.141  0.00  0.00    +0.000 C 
ATOM      8  C   UNL     1       0.257   9.497  23.076  0.00  0.00    +0.000 C 
ATOM      9  C   UNL     1       0.582   9.075  21.659  0.00  0.00    +0.000 C 
ATOM     10  O   UNL     1       1.299   8.123  21.424  0.00  0.00    +0.000 OA
ATOM     11  C   UNL     1       0.046   9.924  20.545  0.00  0.00    +0.000 C 
ATOM     12  C   UNL     1      -0.649  11.040  20.768  0.00  0.00    +0.000 C 
ATOM     13  C   UNL     1      -1.072  11.929  19.612  0.00  0.00    +0.000 C 
ATOM     14  C   UNL     1      -2.368  12.746  19.897  0.00  0.00    +0.000 C 
ATOM     15  C   UNL     1      -2.146  13.543  21.199  0.00  0.00    +0.000 C 
ATOM     16  C   UNL     1      -2.505  15.055  21.295  0.00  0.00    +0.000 C 
ATOM     17  C   UNL     1      -3.517  16.099  22.089  0.00  0.00    +0.000 C 
ATOM     18  C   UNL     1      -2.580  17.392  22.458  0.00  0.00    +0.000 C 
ATOM     19  C   UNL     1      -1.479  17.165  21.443  0.00  0.00    +0.000 C 
ENDROOT
BRANCH  19  20
ATOM     20  C   UNL     1      -2.224  17.663  20.126  0.00  0.00    +0.000 C 
ATOM     21  C   UNL     1      -2.020  17.927  18.831  0.00  0.00    +0.000 C 
ATOM     22  I   UNL     1      -0.338  17.928  17.754  0.00  0.00    +0.000 I 
ENDBRANCH  19  20
BRANCH  19  23
ATOM     23  O   UNL     1      -0.300  17.938  21.575  0.00  0.00    +0.000 OA
ATOM     24  H   UNL     1      -0.141  18.010  22.538  0.00  0.00    +0.000 HD
ENDBRANCH  19  23
TORSDOF 2
ENDMDL
MODEL 8
REMARK VINA RESULT:      -5.4      8.251     10.008
REMARK  Name = 
REMARK  3 active torsions:
REMARK  status: ('A' for Active; 'I' for Inactive)
REMARK    1  A    between atoms: C_1  and  C_2
REMARK    2  A    between atoms: C_19  and  O_20
REMARK    3  A    between atoms: C_19  and  C_21
REMARK                            x       y       z     vdW  Elec       q    Type
REMARK                         _______ _______ _______ _____ _____    ______ ____
ROOT
ATOM      1  C   UNL     1       1.453  15.953  21.200  0.00  0.00    +0.000 C 
ATOM      2  C   UNL     1       0.614  16.456  20.009  0.00  0.00    +0.000 C 
ATOM      3  C   UNL     1      -0.885  16.633  20.736  0.00  0.00    +0.000 C 
ATOM      4  C   UNL     1      -1.613  15.315  21.152  0.00  0.00    +0.000 C 
ATOM      5  C   UNL     1      -1.281  14.027  20.349  0.00  0.00    +0.000 C 
ATOM      6  C   UNL     1      -0.886  12.899  21.383  0.00  0.00    +0.000 C 
ATOM      7  C   UNL     1      -2.115  12.242  22.030  0.00  0.00    +0.000 C 
ATOM      8  C   UNL     1      -1.694  11.391  23.223  0.00  0.00    +0.000 C 
ATOM      9  C   UNL     1      -0.626  10.384  22.854  0.00  0.00    +0.000 C 
ATOM     10  O   UNL     1      -0.405   9.406  23.541  0.00  0.00    +0.000 OA
ATOM     11  C   UNL     1       0.210  10.675  21.644  0.00  0.00    +0.000 C 
ATOM     12  C   UNL     1       0.072  11.795  20.933  0.00  0.00    +0.000 C 
ATOM     13  C   UNL     1       1.018  12.100  19.785  0.00  0.00    +0.000 C 
ATOM     14  C   UNL     1       0.385  12.995  18.678  0.00  0.00    +0.000 C 
ATOM     15  C   UNL     1      -0.150  14.274  19.353  0.00  0.00    +0.000 C 
ATOM     16  C   UNL     1       0.143  15.685  18.765  0.00  0.00    +0.000 C 
ATOM     17  C   UNL     1      -0.620  16.998  18.103  0.00  0.00    +0.000 C 
ATOM     18  C   UNL     1       0.121  18.296  18.775  0.00  0.00    +0.000 C 
ATOM     19  C   UNL     1       1.404  17.619  19.211  0.00  0.00    +0.000 C 
ENDROOT
BRANCH  19  20
ATOM     20  C   UNL     1       2.140  17.511  17.802  0.00  0.00    +0.000 C 
ATOM     21  C   UNL     1       3.053  16.794  17.137  0.00  0.00    +0.000 C 
ATOM     22  I   UNL     1       4.231  15.302  17.750  0.00  0.00    +0.000 I 
ENDBRANCH  19  20
BRANCH  19  23
ATOM     23  O   UNL     1       2.260  18.339  20.077  0.00  0.00    +0.000 OA
ATOM     24  H   UNL     1       2.266  19.256  19.737  0.00  0.00    +0.000 HD
ENDBRANCH  19  23
TORSDOF 2
ENDMDL
MODEL 9
REMARK VINA RESULT:      -5.3      9.136     11.026
REMARK  Name = 
REMARK  3 active torsions:
REMARK  status: ('A' for Active; 'I' for Inactive)
REMARK    1  A    between atoms: C_1  and  C_2
REMARK    2  A    between atoms: C_19  and  O_20
REMARK    3  A    between atoms: C_19  and  C_21
REMARK                            x       y       z     vdW  Elec       q    Type
REMARK                         _______ _______ _______ _____ _____    ______ ____
ROOT
ATOM      1  C   UNL     1       1.076  14.710  20.768  0.00  0.00    +0.000 C 
ATOM      2  C   UNL     1      -0.373  15.179  21.006  0.00  0.00    +0.000 C 
ATOM      3  C   UNL     1      -0.622  14.641  22.573  0.00  0.00    +0.000 C 
ATOM      4  C   UNL     1      -0.713  13.093  22.767  0.00  0.00    +0.000 C 
ATOM      5  C   UNL     1      -1.206  12.246  21.561  0.00  0.00    +0.000 C 
ATOM      6  C   UNL     1      -0.148  11.099  21.309  0.00  0.00    +0.000 C 
ATOM      7  C   UNL     1      -0.323   9.919  22.277  0.00  0.00    +0.000 C 
ATOM      8  C   UNL     1       0.885   8.991  22.204  0.00  0.00    +0.000 C 
ATOM      9  C   UNL     1       1.171   8.541  20.788  0.00  0.00    +0.000 C 
ATOM     10  O   UNL     1       1.846   7.558  20.554  0.00  0.00    +0.000 OA
ATOM     11  C   UNL     1       0.653   9.398  19.672  0.00  0.00    +0.000 C 
ATOM     12  C   UNL     1       0.007  10.544  19.892  0.00  0.00    +0.000 C 
ATOM     13  C   UNL     1      -0.397  11.435  18.732  0.00  0.00    +0.000 C 
ATOM     14  C   UNL     1      -1.654  12.308  19.026  0.00  0.00    +0.000 C 
ATOM     15  C   UNL     1      -1.380  13.110  20.314  0.00  0.00    +0.000 C 
ATOM     16  C   UNL     1      -1.676  14.636  20.398  0.00  0.00    +0.000 C 
ATOM     17  C   UNL     1      -2.633  15.729  21.194  0.00  0.00    +0.000 C 
ATOM     18  C   UNL     1      -1.640  16.988  21.534  0.00  0.00    +0.000 C 
ATOM     19  C   UNL     1      -0.564  16.704  20.505  0.00  0.00    +0.000 C 
ENDROOT
BRANCH  19  20
ATOM     20  C   UNL     1      -1.308  17.217  19.194  0.00  0.00    +0.000 C 
ATOM     21  C   UNL     1      -1.084  17.789  18.005  0.00  0.00    +0.000 C 
ATOM     22  I   UNL     1       0.599  18.509  17.207  0.00  0.00    +0.000 I 
ENDBRANCH  19  20
BRANCH  19  23
ATOM     23  O   UNL     1       0.647  17.430  20.611  0.00  0.00    +0.000 OA
ATOM     24  H   UNL     1       0.393  18.373  20.553  0.00  0.00    +0.000 HD
ENDBRANCH  19  23
TORSDOF 2
ENDMDL
