MODEL 1
REMARK VINA RESULT:      -8.7      0.000      0.000
REMARK  Name = 
REMARK  4 active torsions:
REMARK  status: ('A' for Active; 'I' for Inactive)
REMARK    1  A    between atoms: C_1  and  C_2
REMARK    2  A    between atoms: C_11  and  S_12
REMARK    3  A    between atoms: S_12  and  N_15
REMARK    4  A    between atoms: N_15  and  C_16
REMARK                            x       y       z     vdW  Elec       q    Type
REMARK                         _______ _______ _______ _____ _____    ______ ____
ROOT
ATOM      1  C   UNL     1       3.518   1.275  18.695  0.00  0.00    +0.000 C 
ATOM      2  C   UNL     1       3.812   2.367  19.708  0.00  0.00    +0.000 C 
ATOM      3  C   UNL     1       2.496   2.865  20.364  0.00  0.00    +0.000 C 
ATOM      4  O   UNL     1       1.684   2.179  20.968  0.00  0.00    +0.000 OA
ATOM      5  N   UNL     1       2.415   4.232  20.122  0.00  0.00    +0.000 N 
ATOM      6  C   UNL     1       1.346   5.140  20.473  0.00  0.00    +0.000 C 
ATOM      7  C   UNL     1       1.835   6.595  20.506  0.00  0.00    +0.000 C 
ATOM      8  C   UNL     1       2.585   6.977  19.219  0.00  0.00    +0.000 C 
ATOM      9  C   UNL     1       3.644   5.965  18.901  0.00  0.00    +0.000 A 
ATOM     10  C   UNL     1       4.783   6.227  18.141  0.00  0.00    +0.000 A 
ATOM     11  C   UNL     1       5.697   5.184  17.860  0.00  0.00    +0.000 A 
ATOM     12  C   UNL     1       5.499   3.872  18.338  0.00  0.00    +0.000 A 
ATOM     13  C   UNL     1       4.355   3.625  19.074  0.00  0.00    +0.000 A 
ATOM     14  C   UNL     1       3.477   4.666  19.341  0.00  0.00    +0.000 A 
ENDROOT
BRANCH  11  15
ATOM     15  S   UNL     1       7.165   5.568  16.919  0.00  0.00    +0.000 S 
ATOM     16  O   UNL     1       7.845   6.658  17.584  0.00  0.00    +0.000 OA
ATOM     17  O   UNL     1       7.837   4.315  16.649  0.00  0.00    +0.000 OA
BRANCH  15  18
ATOM     18  N   UNL     1       6.559   6.113  15.431  0.00  0.00    +0.000 N 
ATOM     19  H   UNL     1       6.930   7.040  15.221  0.00  0.00    +0.000 HD
BRANCH  18  20
ATOM     20  C   UNL     1       6.572   5.196  14.333  0.00  0.00    +0.000 A 
ATOM     21  C   UNL     1       7.551   5.305  13.347  0.00  0.00    +0.000 A 
ATOM     22  C   UNL     1       7.544   4.422  12.262  0.00  0.00    +0.000 A 
ATOM     23  C   UNL     1       6.543   3.455  12.146  0.00  0.00    +0.000 A 
ATOM     24  C   UNL     1       5.546   3.364  13.117  0.00  0.00    +0.000 A 
ATOM     25  C   UNL     1       5.573   4.228  14.206  0.00  0.00    +0.000 A 
ATOM     26  F   UNL     1       4.613   4.136  15.138  0.00  0.00    +0.000 F 
ENDBRANCH  18  20
ENDBRANCH  15  18
ENDBRANCH  11  15
TORSDOF 3
ENDMDL
MODEL 2
REMARK VINA RESULT:      -8.6      0.943      1.346
REMARK  Name = 
REMARK  4 active torsions:
REMARK  status: ('A' for Active; 'I' for Inactive)
REMARK    1  A    between atoms: C_1  and  C_2
REMARK    2  A    between atoms: C_11  and  S_12
REMARK    3  A    between atoms: S_12  and  N_15
REMARK    4  A    between atoms: N_15  and  C_16
REMARK                            x       y       z     vdW  Elec       q    Type
REMARK                         _______ _______ _______ _____ _____    ______ ____
ROOT
ATOM      1  C   UNL     1       3.480   1.292  18.605  0.00  0.00    +0.000 C 
ATOM      2  C   UNL     1       3.802   2.390  19.602  0.00  0.00    +0.000 C 
ATOM      3  C   UNL     1       2.503   2.904  20.280  0.00  0.00    +0.000 C 
ATOM      4  O   UNL     1       1.699   2.229  20.905  0.00  0.00    +0.000 OA
ATOM      5  N   UNL     1       2.428   4.269  20.027  0.00  0.00    +0.000 N 
ATOM      6  C   UNL     1       1.373   5.189  20.391  0.00  0.00    +0.000 C 
ATOM      7  C   UNL     1       1.873   6.640  20.401  0.00  0.00    +0.000 C 
ATOM      8  C   UNL     1       2.600   7.005  19.096  0.00  0.00    +0.000 C 
ATOM      9  C   UNL     1       3.645   5.983  18.767  0.00  0.00    +0.000 A 
ATOM     10  C   UNL     1       4.770   6.230  17.982  0.00  0.00    +0.000 A 
ATOM     11  C   UNL     1       5.671   5.177  17.692  0.00  0.00    +0.000 A 
ATOM     12  C   UNL     1       5.473   3.870  18.186  0.00  0.00    +0.000 A 
ATOM     13  C   UNL     1       4.342   3.638  18.947  0.00  0.00    +0.000 A 
ATOM     14  C   UNL     1       3.477   4.689  19.222  0.00  0.00    +0.000 A 
ENDROOT
BRANCH  11  15
ATOM     15  S   UNL     1       7.123   5.542  16.719  0.00  0.00    +0.000 S 
ATOM     16  O   UNL     1       7.823   6.634  17.360  0.00  0.00    +0.000 OA
ATOM     17  O   UNL     1       7.781   4.282  16.448  0.00  0.00    +0.000 OA
BRANCH  15  18
ATOM     18  N   UNL     1       6.492   6.076  15.238  0.00  0.00    +0.000 N 
ATOM     19  H   UNL     1       6.925   6.961  14.972  0.00  0.00    +0.000 HD
BRANCH  18  20
ATOM     20  C   UNL     1       6.378   5.120  14.181  0.00  0.00    +0.000 A 
ATOM     21  C   UNL     1       5.279   4.265  14.131  0.00  0.00    +0.000 A 
ATOM     22  C   UNL     1       5.185   3.315  13.108  0.00  0.00    +0.000 A 
ATOM     23  C   UNL     1       6.203   3.198  12.158  0.00  0.00    +0.000 A 
ATOM     24  C   UNL     1       7.317   4.034  12.224  0.00  0.00    +0.000 A 
ATOM     25  C   UNL     1       7.393   4.993  13.229  0.00  0.00    +0.000 A 
ATOM     26  F   UNL     1       8.466   5.795  13.288  0.00  0.00    +0.000 F 
ENDBRANCH  18  20
ENDBRANCH  15  18
ENDBRANCH  11  15
TORSDOF 3
ENDMDL
MODEL 3
REMARK VINA RESULT:      -8.5      1.386      1.793
REMARK  Name = 
REMARK  4 active torsions:
REMARK  status: ('A' for Active; 'I' for Inactive)
REMARK    1  A    between atoms: C_1  and  C_2
REMARK    2  A    between atoms: C_11  and  S_12
REMARK    3  A    between atoms: S_12  and  N_15
REMARK    4  A    between atoms: N_15  and  C_16
REMARK                            x       y       z     vdW  Elec       q    Type
REMARK                         _______ _______ _______ _____ _____    ______ ____
ROOT
ATOM      1  C   UNL     1       3.671   1.616  18.232  0.00  0.00    +0.000 C 
ATOM      2  C   UNL     1       4.030   2.689  19.245  0.00  0.00    +0.000 C 
ATOM      3  C   UNL     1       2.849   2.924  20.225  0.00  0.00    +0.000 C 
ATOM      4  O   UNL     1       2.318   2.081  20.934  0.00  0.00    +0.000 OA
ATOM      5  N   UNL     1       2.506   4.268  20.131  0.00  0.00    +0.000 N 
ATOM      6  C   UNL     1       1.427   4.965  20.795  0.00  0.00    +0.000 C 
ATOM      7  C   UNL     1       1.684   6.477  20.846  0.00  0.00    +0.000 C 
ATOM      8  C   UNL     1       2.037   7.046  19.461  0.00  0.00    +0.000 C 
ATOM      9  C   UNL     1       3.131   6.244  18.822  0.00  0.00    +0.000 A 
ATOM     10  C   UNL     1       4.001   6.733  17.849  0.00  0.00    +0.000 A 
ATOM     11  C   UNL     1       4.969   5.874  17.275  0.00  0.00    +0.000 A 
ATOM     12  C   UNL     1       5.093   4.524  17.667  0.00  0.00    +0.000 A 
ATOM     13  C   UNL     1       4.209   4.051  18.620  0.00  0.00    +0.000 A 
ATOM     14  C   UNL     1       3.272   4.915  19.171  0.00  0.00    +0.000 A 
ENDROOT
BRANCH  11  15
ATOM     15  S   UNL     1       6.094   6.547  16.064  0.00  0.00    +0.000 S 
ATOM     16  O   UNL     1       5.309   7.020  14.944  0.00  0.00    +0.000 OA
ATOM     17  O   UNL     1       7.002   7.426  16.769  0.00  0.00    +0.000 OA
BRANCH  15  18
ATOM     18  N   UNL     1       7.011   5.207  15.576  0.00  0.00    +0.000 N 
ATOM     19  H   UNL     1       7.055   4.520  16.330  0.00  0.00    +0.000 HD
BRANCH  18  20
ATOM     20  C   UNL     1       6.754   4.662  14.279  0.00  0.00    +0.000 A 
ATOM     21  C   UNL     1       5.700   3.770  14.095  0.00  0.00    +0.000 A 
ATOM     22  C   UNL     1       5.468   3.220  12.830  0.00  0.00    +0.000 A 
ATOM     23  C   UNL     1       6.308   3.537  11.759  0.00  0.00    +0.000 A 
ATOM     24  C   UNL     1       7.381   4.407  11.948  0.00  0.00    +0.000 A 
ATOM     25  C   UNL     1       7.591   4.969  13.203  0.00  0.00    +0.000 A 
ATOM     26  F   UNL     1       8.624   5.806  13.380  0.00  0.00    +0.000 F 
ENDBRANCH  18  20
ENDBRANCH  15  18
ENDBRANCH  11  15
TORSDOF 3
ENDMDL
MODEL 4
REMARK VINA RESULT:      -8.2      4.280      7.372
REMARK  Name = 
REMARK  4 active torsions:
REMARK  status: ('A' for Active; 'I' for Inactive)
REMARK    1  A    between atoms: C_1  and  C_2
REMARK    2  A    between atoms: C_11  and  S_12
REMARK    3  A    between atoms: S_12  and  N_15
REMARK    4  A    between atoms: N_15  and  C_16
REMARK                            x       y       z     vdW  Elec       q    Type
REMARK                         _______ _______ _______ _____ _____    ______ ____
ROOT
ATOM      1  C   UNL     1       1.838   2.865  21.628  0.00  0.00    +0.000 C 
ATOM      2  C   UNL     1       1.519   3.401  20.244  0.00  0.00    +0.000 C 
ATOM      3  C   UNL     1       2.524   2.842  19.201  0.00  0.00    +0.000 C 
ATOM      4  O   UNL     1       2.740   1.661  18.967  0.00  0.00    +0.000 OA
ATOM      5  N   UNL     1       3.135   3.936  18.601  0.00  0.00    +0.000 N 
ATOM      6  C   UNL     1       4.191   3.940  17.612  0.00  0.00    +0.000 C 
ATOM      7  C   UNL     1       4.231   5.267  16.841  0.00  0.00    +0.000 C 
ATOM      8  C   UNL     1       4.255   6.479  17.787  0.00  0.00    +0.000 C 
ATOM      9  C   UNL     1       3.160   6.378  18.806  0.00  0.00    +0.000 A 
ATOM     10  C   UNL     1       2.595   7.468  19.466  0.00  0.00    +0.000 A 
ATOM     11  C   UNL     1       1.598   7.256  20.449  0.00  0.00    +0.000 A 
ATOM     12  C   UNL     1       1.142   5.962  20.780  0.00  0.00    +0.000 A 
ATOM     13  C   UNL     1       1.728   4.892  20.129  0.00  0.00    +0.000 A 
ATOM     14  C   UNL     1       2.699   5.127  19.166  0.00  0.00    +0.000 A 
ENDROOT
BRANCH  11  15
ATOM     15  S   UNL     1       0.868   8.678  21.242  0.00  0.00    +0.000 S 
ATOM     16  O   UNL     1      -0.547   8.419  21.403  0.00  0.00    +0.000 OA
ATOM     17  O   UNL     1       1.705   9.010  22.375  0.00  0.00    +0.000 OA
BRANCH  15  18
ATOM     18  N   UNL     1       1.081   9.925  20.112  0.00  0.00    +0.000 N 
ATOM     19  H   UNL     1       1.844   9.692  19.475  0.00  0.00    +0.000 HD
BRANCH  18  20
ATOM     20  C   UNL     1      -0.087  10.459  19.483  0.00  0.00    +0.000 A 
ATOM     21  C   UNL     1      -0.884  11.378  20.162  0.00  0.00    +0.000 A 
ATOM     22  C   UNL     1      -2.039  11.879  19.552  0.00  0.00    +0.000 A 
ATOM     23  C   UNL     1      -2.413  11.437  18.281  0.00  0.00    +0.000 A 
ATOM     24  C   UNL     1      -1.632  10.495  17.612  0.00  0.00    +0.000 A 
ATOM     25  C   UNL     1      -0.472  10.020  18.214  0.00  0.00    +0.000 A 
ATOM     26  F   UNL     1       0.277   9.115  17.567  0.00  0.00    +0.000 F 
ENDBRANCH  18  20
ENDBRANCH  15  18
ENDBRANCH  11  15
TORSDOF 3
ENDMDL
MODEL 5
REMARK VINA RESULT:      -8.2      4.610      7.513
REMARK  Name = 
REMARK  4 active torsions:
REMARK  status: ('A' for Active; 'I' for Inactive)
REMARK    1  A    between atoms: C_1  and  C_2
REMARK    2  A    between atoms: C_11  and  S_12
REMARK    3  A    between atoms: S_12  and  N_15
REMARK    4  A    between atoms: N_15  and  C_16
REMARK                            x       y       z     vdW  Elec       q    Type
REMARK                         _______ _______ _______ _____ _____    ______ ____
ROOT
ATOM      1  C   UNL     1       1.851   2.924  21.715  0.00  0.00    +0.000 C 
ATOM      2  C   UNL     1       1.523   3.438  20.324  0.00  0.00    +0.000 C 
ATOM      3  C   UNL     1       2.523   2.862  19.284  0.00  0.00    +0.000 C 
ATOM      4  O   UNL     1       2.738   1.679  19.068  0.00  0.00    +0.000 OA
ATOM      5  N   UNL     1       3.129   3.947  18.663  0.00  0.00    +0.000 N 
ATOM      6  C   UNL     1       4.179   3.936  17.669  0.00  0.00    +0.000 C 
ATOM      7  C   UNL     1       4.214   5.251  16.876  0.00  0.00    +0.000 C 
ATOM      8  C   UNL     1       4.243   6.478  17.802  0.00  0.00    +0.000 C 
ATOM      9  C   UNL     1       3.154   6.393  18.829  0.00  0.00    +0.000 A 
ATOM     10  C   UNL     1       2.592   7.492  19.476  0.00  0.00    +0.000 A 
ATOM     11  C   UNL     1       1.601   7.295  20.467  0.00  0.00    +0.000 A 
ATOM     12  C   UNL     1       1.149   6.007  20.822  0.00  0.00    +0.000 A 
ATOM     13  C   UNL     1       1.731   4.926  20.184  0.00  0.00    +0.000 A 
ATOM     14  C   UNL     1       2.696   5.147  19.212  0.00  0.00    +0.000 A 
ENDROOT
BRANCH  11  15
ATOM     15  S   UNL     1       0.875   8.730  21.242  0.00  0.00    +0.000 S 
ATOM     16  O   UNL     1      -0.524   8.446  21.479  0.00  0.00    +0.000 OA
ATOM     17  O   UNL     1       1.755   9.122  22.322  0.00  0.00    +0.000 OA
BRANCH  15  18
ATOM     18  N   UNL     1       1.007   9.938  20.059  0.00  0.00    +0.000 N 
ATOM     19  H   UNL     1       1.800   9.743  19.448  0.00  0.00    +0.000 HD
BRANCH  18  20
ATOM     20  C   UNL     1      -0.189  10.341  19.385  0.00  0.00    +0.000 A 
ATOM     21  C   UNL     1      -0.501   9.802  18.139  0.00  0.00    +0.000 A 
ATOM     22  C   UNL     1      -1.658  10.218  17.472  0.00  0.00    +0.000 A 
ATOM     23  C   UNL     1      -2.483  11.195  18.036  0.00  0.00    +0.000 A 
ATOM     24  C   UNL     1      -2.156  11.756  19.269  0.00  0.00    +0.000 A 
ATOM     25  C   UNL     1      -1.017  11.320  19.938  0.00  0.00    +0.000 A 
ATOM     26  F   UNL     1      -0.708  11.863  21.125  0.00  0.00    +0.000 F 
ENDBRANCH  18  20
ENDBRANCH  15  18
ENDBRANCH  11  15
TORSDOF 3
ENDMDL
MODEL 6
REMARK VINA RESULT:      -8.1      0.975      1.148
REMARK  Name = 
REMARK  4 active torsions:
REMARK  status: ('A' for Active; 'I' for Inactive)
REMARK    1  A    between atoms: C_1  and  C_2
REMARK    2  A    between atoms: C_11  and  S_12
REMARK    3  A    between atoms: S_12  and  N_15
REMARK    4  A    between atoms: N_15  and  C_16
REMARK                            x       y       z     vdW  Elec       q    Type
REMARK                         _______ _______ _______ _____ _____    ______ ____
ROOT
ATOM      1  C   UNL     1       3.712   1.612  18.429  0.00  0.00    +0.000 C 
ATOM      2  C   UNL     1       4.010   2.704  19.441  0.00  0.00    +0.000 C 
ATOM      3  C   UNL     1       2.778   2.945  20.355  0.00  0.00    +0.000 C 
ATOM      4  O   UNL     1       2.218   2.109  21.049  0.00  0.00    +0.000 OA
ATOM      5  N   UNL     1       2.431   4.284  20.221  0.00  0.00    +0.000 N 
ATOM      6  C   UNL     1       1.314   4.983  20.817  0.00  0.00    +0.000 C 
ATOM      7  C   UNL     1       1.556   6.498  20.856  0.00  0.00    +0.000 C 
ATOM      8  C   UNL     1       1.977   7.047  19.483  0.00  0.00    +0.000 C 
ATOM      9  C   UNL     1       3.108   6.245  18.915  0.00  0.00    +0.000 A 
ATOM     10  C   UNL     1       4.025   6.725  17.980  0.00  0.00    +0.000 A 
ATOM     11  C   UNL     1       5.027   5.865  17.471  0.00  0.00    +0.000 A 
ATOM     12  C   UNL     1       5.140   4.522  17.891  0.00  0.00    +0.000 A 
ATOM     13  C   UNL     1       4.211   4.057  18.804  0.00  0.00    +0.000 A 
ATOM     14  C   UNL     1       3.241   4.922  19.291  0.00  0.00    +0.000 A 
ENDROOT
BRANCH  11  15
ATOM     15  S   UNL     1       6.208   6.528  16.309  0.00  0.00    +0.000 S 
ATOM     16  O   UNL     1       5.474   7.023  15.164  0.00  0.00    +0.000 OA
ATOM     17  O   UNL     1       7.105   7.384  17.055  0.00  0.00    +0.000 OA
BRANCH  15  18
ATOM     18  N   UNL     1       7.120   5.175  15.844  0.00  0.00    +0.000 N 
ATOM     19  H   UNL     1       7.046   4.444  16.552  0.00  0.00    +0.000 HD
BRANCH  18  20
ATOM     20  C   UNL     1       6.994   4.721  14.494  0.00  0.00    +0.000 A 
ATOM     21  C   UNL     1       7.819   5.249  13.502  0.00  0.00    +0.000 A 
ATOM     22  C   UNL     1       7.675   4.820  12.178  0.00  0.00    +0.000 A 
ATOM     23  C   UNL     1       6.688   3.890  11.842  0.00  0.00    +0.000 A 
ATOM     24  C   UNL     1       5.843   3.383  12.829  0.00  0.00    +0.000 A 
ATOM     25  C   UNL     1       6.007   3.796  14.147  0.00  0.00    +0.000 A 
ATOM     26  F   UNL     1       5.192   3.305  15.092  0.00  0.00    +0.000 F 
ENDBRANCH  18  20
ENDBRANCH  15  18
ENDBRANCH  11  15
TORSDOF 3
ENDMDL
MODEL 7
REMARK VINA RESULT:      -7.8      4.045      6.283
REMARK  Name = 
REMARK  4 active torsions:
REMARK  status: ('A' for Active; 'I' for Inactive)
REMARK    1  A    between atoms: C_1  and  C_2
REMARK    2  A    between atoms: C_11  and  S_12
REMARK    3  A    between atoms: S_12  and  N_15
REMARK    4  A    between atoms: N_15  and  C_16
REMARK                            x       y       z     vdW  Elec       q    Type
REMARK                         _______ _______ _______ _____ _____    ______ ____
ROOT
ATOM      1  C   UNL     1       2.364  11.232  17.865  0.00  0.00    +0.000 C 
ATOM      2  C   UNL     1       1.049  10.693  18.401  0.00  0.00    +0.000 C 
ATOM      3  C   UNL     1       0.401  11.716  19.374  0.00  0.00    +0.000 C 
ATOM      4  O   UNL     1       0.109  12.874  19.115  0.00  0.00    +0.000 OA
ATOM      5  N   UNL     1       0.234  11.066  20.591  0.00  0.00    +0.000 N 
ATOM      6  C   UNL     1      -0.268  11.610  21.834  0.00  0.00    +0.000 C 
ATOM      7  C   UNL     1      -0.777  10.502  22.766  0.00  0.00    +0.000 C 
ATOM      8  C   UNL     1       0.262   9.383  22.947  0.00  0.00    +0.000 C 
ATOM      9  C   UNL     1       0.764   8.905  21.618  0.00  0.00    +0.000 A 
ATOM     10  C   UNL     1       1.302   7.640  21.387  0.00  0.00    +0.000 A 
ATOM     11  C   UNL     1       1.792   7.307  20.101  0.00  0.00    +0.000 A 
ATOM     12  C   UNL     1       1.746   8.221  19.028  0.00  0.00    +0.000 A 
ATOM     13  C   UNL     1       1.227   9.478  19.279  0.00  0.00    +0.000 A 
ATOM     14  C   UNL     1       0.747   9.777  20.547  0.00  0.00    +0.000 A 
ENDROOT
BRANCH  11  15
ATOM     15  S   UNL     1       2.434   5.663  19.833  0.00  0.00    +0.000 S 
ATOM     16  O   UNL     1       2.261   4.914  21.059  0.00  0.00    +0.000 OA
ATOM     17  O   UNL     1       1.886   5.192  18.580  0.00  0.00    +0.000 OA
BRANCH  15  18
ATOM     18  N   UNL     1       4.089   5.915  19.563  0.00  0.00    +0.000 N 
ATOM     19  H   UNL     1       4.635   5.484  20.310  0.00  0.00    +0.000 HD
BRANCH  18  20
ATOM     20  C   UNL     1       4.589   5.686  18.242  0.00  0.00    +0.000 A 
ATOM     21  C   UNL     1       4.631   6.732  17.323  0.00  0.00    +0.000 A 
ATOM     22  C   UNL     1       5.097   6.497  16.025  0.00  0.00    +0.000 A 
ATOM     23  C   UNL     1       5.490   5.213  15.639  0.00  0.00    +0.000 A 
ATOM     24  C   UNL     1       5.422   4.159  16.550  0.00  0.00    +0.000 A 
ATOM     25  C   UNL     1       4.980   4.405  17.846  0.00  0.00    +0.000 A 
ATOM     26  F   UNL     1       4.917   3.389  18.719  0.00  0.00    +0.000 F 
ENDBRANCH  18  20
ENDBRANCH  15  18
ENDBRANCH  11  15
TORSDOF 3
ENDMDL
MODEL 8
REMARK VINA RESULT:      -7.8      2.577      3.403
REMARK  Name = 
REMARK  4 active torsions:
REMARK  status: ('A' for Active; 'I' for Inactive)
REMARK    1  A    between atoms: C_1  and  C_2
REMARK    2  A    between atoms: C_11  and  S_12
REMARK    3  A    between atoms: S_12  and  N_15
REMARK    4  A    between atoms: N_15  and  C_16
REMARK                            x       y       z     vdW  Elec       q    Type
REMARK                         _______ _______ _______ _____ _____    ______ ____
ROOT
ATOM      1  C   UNL     1       2.602   1.645  18.780  0.00  0.00    +0.000 C 
ATOM      2  C   UNL     1       3.347   2.778  19.464  0.00  0.00    +0.000 C 
ATOM      3  C   UNL     1       2.447   3.446  20.539  0.00  0.00    +0.000 C 
ATOM      4  O   UNL     1       1.919   2.886  21.489  0.00  0.00    +0.000 OA
ATOM      5  N   UNL     1       2.350   4.792  20.205  0.00  0.00    +0.000 N 
ATOM      6  C   UNL     1       1.572   5.821  20.858  0.00  0.00    +0.000 C 
ATOM      7  C   UNL     1       2.111   7.221  20.534  0.00  0.00    +0.000 C 
ATOM      8  C   UNL     1       2.285   7.433  19.021  0.00  0.00    +0.000 C 
ATOM      9  C   UNL     1       3.062   6.305  18.413  0.00  0.00    +0.000 A 
ATOM     10  C   UNL     1       3.800   6.400  17.235  0.00  0.00    +0.000 A 
ATOM     11  C   UNL     1       4.458   5.257  16.722  0.00  0.00    +0.000 A 
ATOM     12  C   UNL     1       4.402   4.009  17.376  0.00  0.00    +0.000 A 
ATOM     13  C   UNL     1       3.650   3.927  18.535  0.00  0.00    +0.000 A 
ATOM     14  C   UNL     1       3.019   5.064  19.020  0.00  0.00    +0.000 A 
ENDROOT
BRANCH  11  15
ATOM     15  S   UNL     1       5.428   5.430  15.233  0.00  0.00    +0.000 S 
ATOM     16  O   UNL     1       5.108   4.318  14.364  0.00  0.00    +0.000 OA
ATOM     17  O   UNL     1       5.283   6.799  14.787  0.00  0.00    +0.000 OA
BRANCH  15  18
ATOM     18  N   UNL     1       7.028   5.273  15.773  0.00  0.00    +0.000 N 
ATOM     19  H   UNL     1       7.670   5.306  14.980  0.00  0.00    +0.000 HD
BRANCH  18  20
ATOM     20  C   UNL     1       7.427   6.052  16.904  0.00  0.00    +0.000 A 
ATOM     21  C   UNL     1       7.612   7.427  16.772  0.00  0.00    +0.000 A 
ATOM     22  C   UNL     1       8.026   8.181  17.875  0.00  0.00    +0.000 A 
ATOM     23  C   UNL     1       8.286   7.557  19.098  0.00  0.00    +0.000 A 
ATOM     24  C   UNL     1       8.129   6.177  19.223  0.00  0.00    +0.000 A 
ATOM     25  C   UNL     1       7.694   5.437  18.130  0.00  0.00    +0.000 A 
ATOM     26  F   UNL     1       7.543   4.110  18.256  0.00  0.00    +0.000 F 
ENDBRANCH  18  20
ENDBRANCH  15  18
ENDBRANCH  11  15
TORSDOF 3
ENDMDL
MODEL 9
REMARK VINA RESULT:      -7.7      1.603      3.112
REMARK  Name = 
REMARK  4 active torsions:
REMARK  status: ('A' for Active; 'I' for Inactive)
REMARK    1  A    between atoms: C_1  and  C_2
REMARK    2  A    between atoms: C_11  and  S_12
REMARK    3  A    between atoms: S_12  and  N_15
REMARK    4  A    between atoms: N_15  and  C_16
REMARK                            x       y       z     vdW  Elec       q    Type
REMARK                         _______ _______ _______ _____ _____    ______ ____
ROOT
ATOM      1  C   UNL     1       2.103   6.907  20.396  0.00  0.00    +0.000 C 
ATOM      2  C   UNL     1       1.781   5.916  19.292  0.00  0.00    +0.000 C 
ATOM      3  C   UNL     1       1.345   4.554  19.897  0.00  0.00    +0.000 C 
ATOM      4  O   UNL     1       0.418   4.371  20.672  0.00  0.00    +0.000 OA
ATOM      5  N   UNL     1       2.217   3.592  19.399  0.00  0.00    +0.000 N 
ATOM      6  C   UNL     1       2.268   2.182  19.715  0.00  0.00    +0.000 C 
ATOM      7  C   UNL     1       2.991   1.388  18.619  0.00  0.00    +0.000 C 
ATOM      8  C   UNL     1       4.359   2.002  18.273  0.00  0.00    +0.000 C 
ATOM      9  C   UNL     1       4.227   3.470  18.002  0.00  0.00    +0.000 A 
ATOM     10  C   UNL     1       5.111   4.209  17.217  0.00  0.00    +0.000 A 
ATOM     11  C   UNL     1       4.921   5.604  17.066  0.00  0.00    +0.000 A 
ATOM     12  C   UNL     1       3.848   6.280  17.683  0.00  0.00    +0.000 A 
ATOM     13  C   UNL     1       2.992   5.535  18.474  0.00  0.00    +0.000 A 
ATOM     14  C   UNL     1       3.197   4.168  18.601  0.00  0.00    +0.000 A 
ENDROOT
BRANCH  11  15
ATOM     15  S   UNL     1       6.048   6.508  16.018  0.00  0.00    +0.000 S 
ATOM     16  O   UNL     1       5.290   7.038  14.905  0.00  0.00    +0.000 OA
ATOM     17  O   UNL     1       6.826   7.374  16.878  0.00  0.00    +0.000 OA
BRANCH  15  18
ATOM     18  N   UNL     1       7.115   5.318  15.451  0.00  0.00    +0.000 N 
ATOM     19  H   UNL     1       7.305   4.639  16.189  0.00  0.00    +0.000 HD
BRANCH  18  20
ATOM     20  C   UNL     1       6.855   4.752  14.164  0.00  0.00    +0.000 A 
ATOM     21  C   UNL     1       5.805   3.852  13.999  0.00  0.00    +0.000 A 
ATOM     22  C   UNL     1       5.570   3.281  12.743  0.00  0.00    +0.000 A 
ATOM     23  C   UNL     1       6.405   3.585  11.664  0.00  0.00    +0.000 A 
ATOM     24  C   UNL     1       7.474   4.463  11.835  0.00  0.00    +0.000 A 
ATOM     25  C   UNL     1       7.687   5.046  13.080  0.00  0.00    +0.000 A 
ATOM     26  F   UNL     1       8.716   5.891  13.240  0.00  0.00    +0.000 F 
ENDBRANCH  18  20
ENDBRANCH  15  18
ENDBRANCH  11  15
TORSDOF 3
ENDMDL
