MODEL 1
REMARK VINA RESULT:      -9.1      0.000      0.000
REMARK  Name = 
REMARK  8 active torsions:
REMARK  status: ('A' for Active; 'I' for Inactive)
REMARK    1  A    between atoms: C_1  and  C_2
REMARK    2  A    between atoms: C_7  and  C_8
REMARK    3  A    between atoms: C_10  and  C_11
REMARK    4  A    between atoms: N_13  and  C_14
REMARK    5  A    between atoms: C_19  and  C_20
REMARK    6  A    between atoms: C_22  and  C_23
REMARK    7  A    between atoms: C_24  and  O_25
REMARK    8  A    between atoms: C_26  and  N_27
REMARK                            x       y       z     vdW  Elec       q    Type
REMARK                         _______ _______ _______ _____ _____    ______ ____
ROOT
ATOM      1  C   UNL     1       1.828   8.170  18.792  0.00  0.00    +0.000 C 
ATOM      2  O   UNL     1       1.553   7.712  17.684  0.00  0.00    +0.000 OA
ATOM      3  N   UNL     1       2.330   7.432  19.871  0.00  0.00    +0.000 N 
ATOM      4  H   UNL     1       2.420   7.950  20.734  0.00  0.00    +0.000 HD
ENDROOT
BRANCH   1   7
ATOM      5  C   UNL     1       0.136  11.317  19.891  0.00  0.00    +0.000 A 
ATOM      6  N   UNL     1       0.470   9.978  19.817  0.00  0.00    +0.000 NA
ATOM      7  C   UNL     1       1.494   9.626  18.996  0.00  0.00    +0.000 A 
ATOM      8  C   UNL     1       2.237  10.554  18.263  0.00  0.00    +0.000 A 
ATOM      9  C   UNL     1       1.884  11.892  18.319  0.00  0.00    +0.000 A 
ATOM     10  C   UNL     1       0.814  12.270  19.111  0.00  0.00    +0.000 A 
ATOM     11  F   UNL     1       0.421  13.547  19.038  0.00  0.00    +0.000 F 
BRANCH   5  18
ATOM     12  C   UNL     1      -4.477  13.239  20.325  0.00  0.00    +0.000 C 
ATOM     13  C   UNL     1      -3.257  12.665  21.005  0.00  0.00    +0.000 A 
ATOM     14  C   UNL     1      -3.189  12.545  22.389  0.00  0.00    +0.000 A 
ATOM     15  C   UNL     1      -2.069  11.956  22.963  0.00  0.00    +0.000 A 
ATOM     16  C   UNL     1      -1.020  11.505  22.160  0.00  0.00    +0.000 A 
ATOM     17  F   UNL     1      -0.019  10.871  22.788  0.00  0.00    +0.000 F 
ATOM     18  C   UNL     1      -1.018  11.669  20.758  0.00  0.00    +0.000 A 
ATOM     19  C   UNL     1      -2.184  12.233  20.215  0.00  0.00    +0.000 A 
ATOM     20  F   UNL     1      -2.293  12.402  18.885  0.00  0.00    +0.000 F 
ENDBRANCH   5  18
ENDBRANCH   1   7
BRANCH   3  21
ATOM     21  C   UNL     1       2.671   6.028  19.832  0.00  0.00    +0.000 A 
ATOM     22  C   UNL     1       1.930   5.110  20.606  0.00  0.00    +0.000 A 
ATOM     23  N   UNL     1       2.144   3.775  20.705  0.00  0.00    +0.000 NA
ATOM     24  C   UNL     1       3.132   3.284  19.959  0.00  0.00    +0.000 A 
ATOM     25  C   UNL     1       3.909   4.069  19.121  0.00  0.00    +0.000 A 
ATOM     26  C   UNL     1       3.741   5.472  19.055  0.00  0.00    +0.000 A 
BRANCH  26  27
ATOM     27  C   UNL     1       4.831   6.296  18.327  0.00  0.00    +0.000 C 
ATOM     28  C   UNL     1       4.596   6.514  16.819  0.00  0.00    +0.000 C 
ATOM     29  C   UNL     1       5.423   5.643  15.879  0.00  0.00    +0.000 C 
ATOM     30  C   UNL     1       4.995   4.174  15.951  0.00  0.00    +0.000 C 
ATOM     31  C   UNL     1       6.904   5.903  16.163  0.00  0.00    +0.000 C 
ATOM     32  C   UNL     1       7.317   5.464  17.579  0.00  0.00    +0.000 C 
ATOM     33  C   UNL     1       6.366   6.041  18.660  0.00  0.00    +0.000 C 
BRANCH  32  34
ATOM     34  N   UNL     1       7.521   4.002  17.631  0.00  0.00    +0.000 NA
ATOM     35  H   UNL     1       7.977   3.666  16.786  0.00  0.00    +0.000 HD
ATOM     36  H   UNL     1       6.614   3.533  17.661  0.00  0.00    +0.000 HD
ENDBRANCH  32  34
BRANCH  31  37
ATOM     37  O   UNL     1       7.712   5.270  15.172  0.00  0.00    +0.000 OA
ATOM     38  H   UNL     1       8.437   5.907  14.999  0.00  0.00    +0.000 HD
ENDBRANCH  31  37
ENDBRANCH  26  27
ENDBRANCH   3  21
TORSDOF 6
ENDMDL
MODEL 2
REMARK VINA RESULT:      -9.0      2.064      2.602
REMARK  Name = 
REMARK  8 active torsions:
REMARK  status: ('A' for Active; 'I' for Inactive)
REMARK    1  A    between atoms: C_1  and  C_2
REMARK    2  A    between atoms: C_7  and  C_8
REMARK    3  A    between atoms: C_10  and  C_11
REMARK    4  A    between atoms: N_13  and  C_14
REMARK    5  A    between atoms: C_19  and  C_20
REMARK    6  A    between atoms: C_22  and  C_23
REMARK    7  A    between atoms: C_24  and  O_25
REMARK    8  A    between atoms: C_26  and  N_27
REMARK                            x       y       z     vdW  Elec       q    Type
REMARK                         _______ _______ _______ _____ _____    ______ ____
ROOT
ATOM      1  C   UNL     1       1.362   8.320  20.254  0.00  0.00    +0.000 C 
ATOM      2  O   UNL     1       1.348   8.166  21.474  0.00  0.00    +0.000 OA
ATOM      3  N   UNL     1       1.873   7.402  19.328  0.00  0.00    +0.000 N 
ATOM      4  H   UNL     1       1.882   7.725  18.371  0.00  0.00    +0.000 HD
ENDROOT
BRANCH   1   7
ATOM      5  C   UNL     1      -0.764  10.989  18.728  0.00  0.00    +0.000 A 
ATOM      6  N   UNL     1      -0.393   9.770  19.264  0.00  0.00    +0.000 NA
ATOM      7  C   UNL     1       0.867   9.656  19.760  0.00  0.00    +0.000 A 
ATOM      8  C   UNL     1       1.775  10.716  19.787  0.00  0.00    +0.000 A 
ATOM      9  C   UNL     1       1.409  11.929  19.227  0.00  0.00    +0.000 A 
ATOM     10  C   UNL     1       0.148  12.056  18.671  0.00  0.00    +0.000 A 
ATOM     11  F   UNL     1      -0.121  13.196  18.025  0.00  0.00    +0.000 F 
BRANCH   5  18
ATOM     12  C   UNL     1      -3.886   9.977  14.934  0.00  0.00    +0.000 C 
ATOM     13  C   UNL     1      -3.666  10.643  16.271  0.00  0.00    +0.000 A 
ATOM     14  C   UNL     1      -4.675  11.369  16.893  0.00  0.00    +0.000 A 
ATOM     15  C   UNL     1      -4.442  11.913  18.150  0.00  0.00    +0.000 A 
ATOM     16  C   UNL     1      -3.203  11.744  18.773  0.00  0.00    +0.000 A 
ATOM     17  F   UNL     1      -3.092  12.226  20.019  0.00  0.00    +0.000 F 
ATOM     18  C   UNL     1      -2.130  11.073  18.148  0.00  0.00    +0.000 A 
ATOM     19  C   UNL     1      -2.420  10.506  16.896  0.00  0.00    +0.000 A 
ATOM     20  F   UNL     1      -1.471   9.819  16.234  0.00  0.00    +0.000 F 
ENDBRANCH   5  18
ENDBRANCH   1   7
BRANCH   3  21
ATOM     21  C   UNL     1       2.404   6.098  19.655  0.00  0.00    +0.000 A 
ATOM     22  C   UNL     1       1.697   5.260  20.543  0.00  0.00    +0.000 A 
ATOM     23  N   UNL     1       2.075   4.032  20.973  0.00  0.00    +0.000 NA
ATOM     24  C   UNL     1       3.214   3.560  20.469  0.00  0.00    +0.000 A 
ATOM     25  C   UNL     1       3.984   4.262  19.554  0.00  0.00    +0.000 A 
ATOM     26  C   UNL     1       3.637   5.570  19.144  0.00  0.00    +0.000 A 
BRANCH  26  27
ATOM     27  C   UNL     1       4.693   6.385  18.358  0.00  0.00    +0.000 C 
ATOM     28  C   UNL     1       4.429   6.522  16.846  0.00  0.00    +0.000 C 
ATOM     29  C   UNL     1       5.266   5.626  15.936  0.00  0.00    +0.000 C 
ATOM     30  C   UNL     1       4.878   4.153  16.088  0.00  0.00    +0.000 C 
ATOM     31  C   UNL     1       6.743   5.938  16.183  0.00  0.00    +0.000 C 
ATOM     32  C   UNL     1       7.188   5.581  17.612  0.00  0.00    +0.000 C 
ATOM     33  C   UNL     1       6.239   6.187  18.679  0.00  0.00    +0.000 C 
BRANCH  32  34
ATOM     34  N   UNL     1       7.432   4.130  17.733  0.00  0.00    +0.000 NA
ATOM     35  H   UNL     1       7.384   3.830  18.704  0.00  0.00    +0.000 HD
ATOM     36  H   UNL     1       8.382   3.917  17.424  0.00  0.00    +0.000 HD
ENDBRANCH  32  34
BRANCH  31  37
ATOM     37  O   UNL     1       7.553   5.277  15.211  0.00  0.00    +0.000 OA
ATOM     38  H   UNL     1       8.345   4.985  15.708  0.00  0.00    +0.000 HD
ENDBRANCH  31  37
ENDBRANCH  26  27
ENDBRANCH   3  21
TORSDOF 6
ENDMDL
MODEL 3
REMARK VINA RESULT:      -9.0      1.119      1.403
REMARK  Name = 
REMARK  8 active torsions:
REMARK  status: ('A' for Active; 'I' for Inactive)
REMARK    1  A    between atoms: C_1  and  C_2
REMARK    2  A    between atoms: C_7  and  C_8
REMARK    3  A    between atoms: C_10  and  C_11
REMARK    4  A    between atoms: N_13  and  C_14
REMARK    5  A    between atoms: C_19  and  C_20
REMARK    6  A    between atoms: C_22  and  C_23
REMARK    7  A    between atoms: C_24  and  O_25
REMARK    8  A    between atoms: C_26  and  N_27
REMARK                            x       y       z     vdW  Elec       q    Type
REMARK                         _______ _______ _______ _____ _____    ______ ____
ROOT
ATOM      1  C   UNL     1       1.742   8.125  18.533  0.00  0.00    +0.000 C 
ATOM      2  O   UNL     1       1.482   7.569  17.468  0.00  0.00    +0.000 OA
ATOM      3  N   UNL     1       2.271   7.496  19.667  0.00  0.00    +0.000 N 
ATOM      4  H   UNL     1       2.344   8.085  20.484  0.00  0.00    +0.000 HD
ENDROOT
BRANCH   1   7
ATOM      5  C   UNL     1      -0.247  11.270  18.881  0.00  0.00    +0.000 A 
ATOM      6  N   UNL     1       0.080   9.928  18.917  0.00  0.00    +0.000 NA
ATOM      7  C   UNL     1       1.359   9.581  18.618  0.00  0.00    +0.000 A 
ATOM      8  C   UNL     1       2.353  10.515  18.319  0.00  0.00    +0.000 A 
ATOM      9  C   UNL     1       2.017  11.857  18.258  0.00  0.00    +0.000 A 
ATOM     10  C   UNL     1       0.709  12.232  18.511  0.00  0.00    +0.000 A 
ATOM     11  F   UNL     1       0.394  13.518  18.315  0.00  0.00    +0.000 F 
BRANCH   5  18
ATOM     12  C   UNL     1      -5.022  11.403  17.350  0.00  0.00    +0.000 C 
ATOM     13  C   UNL     1      -4.005  11.752  18.409  0.00  0.00    +0.000 A 
ATOM     14  C   UNL     1      -4.366  12.441  19.562  0.00  0.00    +0.000 A 
ATOM     15  C   UNL     1      -3.405  12.687  20.534  0.00  0.00    +0.000 A 
ATOM     16  C   UNL     1      -2.088  12.260  20.347  0.00  0.00    +0.000 A 
ATOM     17  F   UNL     1      -1.245  12.461  21.371  0.00  0.00    +0.000 F 
ATOM     18  C   UNL     1      -1.663  11.620  19.163  0.00  0.00    +0.000 A 
ATOM     19  C   UNL     1      -2.674  11.357  18.224  0.00  0.00    +0.000 A 
ATOM     20  F   UNL     1      -2.375  10.721  17.076  0.00  0.00    +0.000 F 
ENDBRANCH   5  18
ENDBRANCH   1   7
BRANCH   3  21
ATOM     21  C   UNL     1       2.659   6.106  19.742  0.00  0.00    +0.000 A 
ATOM     22  C   UNL     1       1.921   5.219  20.555  0.00  0.00    +0.000 A 
ATOM     23  N   UNL     1       2.175   3.903  20.757  0.00  0.00    +0.000 NA
ATOM     24  C   UNL     1       3.206   3.396  20.085  0.00  0.00    +0.000 A 
ATOM     25  C   UNL     1       3.988   4.146  19.220  0.00  0.00    +0.000 A 
ATOM     26  C   UNL     1       3.776   5.534  19.047  0.00  0.00    +0.000 A 
BRANCH  26  27
ATOM     27  C   UNL     1       4.865   6.343  18.299  0.00  0.00    +0.000 C 
ATOM     28  C   UNL     1       4.620   6.541  16.790  0.00  0.00    +0.000 C 
ATOM     29  C   UNL     1       5.438   5.653  15.857  0.00  0.00    +0.000 C 
ATOM     30  C   UNL     1       5.003   4.188  15.953  0.00  0.00    +0.000 C 
ATOM     31  C   UNL     1       6.921   5.910  16.127  0.00  0.00    +0.000 C 
ATOM     32  C   UNL     1       7.342   5.489  17.547  0.00  0.00    +0.000 C 
ATOM     33  C   UNL     1       6.401   6.086  18.626  0.00  0.00    +0.000 C 
BRANCH  32  34
ATOM     34  N   UNL     1       7.539   4.027  17.618  0.00  0.00    +0.000 NA
ATOM     35  H   UNL     1       6.660   3.531  17.484  0.00  0.00    +0.000 HD
ATOM     36  H   UNL     1       7.861   3.772  18.553  0.00  0.00    +0.000 HD
ENDBRANCH  32  34
BRANCH  31  37
ATOM     37  O   UNL     1       7.720   5.259  15.140  0.00  0.00    +0.000 OA
ATOM     38  H   UNL     1       7.890   5.950  14.465  0.00  0.00    +0.000 HD
ENDBRANCH  31  37
ENDBRANCH  26  27
ENDBRANCH   3  21
TORSDOF 6
ENDMDL
MODEL 4
REMARK VINA RESULT:      -8.9      1.670      2.351
REMARK  Name = 
REMARK  8 active torsions:
REMARK  status: ('A' for Active; 'I' for Inactive)
REMARK    1  A    between atoms: C_1  and  C_2
REMARK    2  A    between atoms: C_7  and  C_8
REMARK    3  A    between atoms: C_10  and  C_11
REMARK    4  A    between atoms: N_13  and  C_14
REMARK    5  A    between atoms: C_19  and  C_20
REMARK    6  A    between atoms: C_22  and  C_23
REMARK    7  A    between atoms: C_24  and  O_25
REMARK    8  A    between atoms: C_26  and  N_27
REMARK                            x       y       z     vdW  Elec       q    Type
REMARK                         _______ _______ _______ _____ _____    ______ ____
ROOT
ATOM      1  C   UNL     1       1.464   8.304  20.196  0.00  0.00    +0.000 C 
ATOM      2  O   UNL     1       1.490   8.164  21.418  0.00  0.00    +0.000 OA
ATOM      3  N   UNL     1       1.933   7.369  19.265  0.00  0.00    +0.000 N 
ATOM      4  H   UNL     1       1.913   7.680  18.304  0.00  0.00    +0.000 HD
ENDROOT
BRANCH   1   7
ATOM      5  C   UNL     1      -0.716  11.000  18.803  0.00  0.00    +0.000 A 
ATOM      6  N   UNL     1      -0.334   9.788  19.345  0.00  0.00    +0.000 NA
ATOM      7  C   UNL     1       0.968   9.639  19.704  0.00  0.00    +0.000 A 
ATOM      8  C   UNL     1       1.914  10.660  19.584  0.00  0.00    +0.000 A 
ATOM      9  C   UNL     1       1.534  11.865  19.016  0.00  0.00    +0.000 A 
ATOM     10  C   UNL     1       0.224  12.025  18.598  0.00  0.00    +0.000 A 
ATOM     11  F   UNL     1      -0.073  13.150  17.938  0.00  0.00    +0.000 F 
BRANCH   5  18
ATOM     12  C   UNL     1      -5.322  12.797  19.656  0.00  0.00    +0.000 C 
ATOM     13  C   UNL     1      -4.417  11.940  18.804  0.00  0.00    +0.000 A 
ATOM     14  C   UNL     1      -4.907  11.233  17.712  0.00  0.00    +0.000 A 
ATOM     15  C   UNL     1      -4.024  10.506  16.923  0.00  0.00    +0.000 A 
ATOM     16  C   UNL     1      -2.663  10.474  17.235  0.00  0.00    +0.000 A 
ATOM     17  F   UNL     1      -1.869   9.822  16.374  0.00  0.00    +0.000 F 
ATOM     18  C   UNL     1      -2.134  11.121  18.374  0.00  0.00    +0.000 A 
ATOM     19  C   UNL     1      -3.054  11.875  19.120  0.00  0.00    +0.000 A 
ATOM     20  F   UNL     1      -2.641  12.555  20.206  0.00  0.00    +0.000 F 
ENDBRANCH   5  18
ENDBRANCH   1   7
BRANCH   3  21
ATOM     21  C   UNL     1       2.460   6.062  19.590  0.00  0.00    +0.000 A 
ATOM     22  C   UNL     1       1.745   5.222  20.469  0.00  0.00    +0.000 A 
ATOM     23  N   UNL     1       2.119   3.991  20.896  0.00  0.00    +0.000 NA
ATOM     24  C   UNL     1       3.260   3.520  20.397  0.00  0.00    +0.000 A 
ATOM     25  C   UNL     1       4.037   4.224  19.491  0.00  0.00    +0.000 A 
ATOM     26  C   UNL     1       3.695   5.535  19.085  0.00  0.00    +0.000 A 
BRANCH  26  27
ATOM     27  C   UNL     1       4.758   6.351  18.310  0.00  0.00    +0.000 C 
ATOM     28  C   UNL     1       4.501   6.501  16.797  0.00  0.00    +0.000 C 
ATOM     29  C   UNL     1       5.337   5.610  15.884  0.00  0.00    +0.000 C 
ATOM     30  C   UNL     1       4.942   4.137  16.022  0.00  0.00    +0.000 C 
ATOM     31  C   UNL     1       6.815   5.913  16.139  0.00  0.00    +0.000 C 
ATOM     32  C   UNL     1       7.253   5.543  17.567  0.00  0.00    +0.000 C 
ATOM     33  C   UNL     1       6.302   6.144  18.634  0.00  0.00    +0.000 C 
BRANCH  32  34
ATOM     34  N   UNL     1       7.490   4.090  17.677  0.00  0.00    +0.000 NA
ATOM     35  H   UNL     1       8.486   3.883  17.716  0.00  0.00    +0.000 HD
ATOM     36  H   UNL     1       7.143   3.623  16.837  0.00  0.00    +0.000 HD
ENDBRANCH  32  34
BRANCH  31  37
ATOM     37  O   UNL     1       7.626   5.257  15.165  0.00  0.00    +0.000 OA
ATOM     38  H   UNL     1       7.501   4.301  15.344  0.00  0.00    +0.000 HD
ENDBRANCH  31  37
ENDBRANCH  26  27
ENDBRANCH   3  21
TORSDOF 6
ENDMDL
MODEL 5
REMARK VINA RESULT:      -8.8      0.609      1.639
REMARK  Name = 
REMARK  8 active torsions:
REMARK  status: ('A' for Active; 'I' for Inactive)
REMARK    1  A    between atoms: C_1  and  C_2
REMARK    2  A    between atoms: C_7  and  C_8
REMARK    3  A    between atoms: C_10  and  C_11
REMARK    4  A    between atoms: N_13  and  C_14
REMARK    5  A    between atoms: C_19  and  C_20
REMARK    6  A    between atoms: C_22  and  C_23
REMARK    7  A    between atoms: C_24  and  O_25
REMARK    8  A    between atoms: C_26  and  N_27
REMARK                            x       y       z     vdW  Elec       q    Type
REMARK                         _______ _______ _______ _____ _____    ______ ____
ROOT
ATOM      1  C   UNL     1       1.776   8.346  18.580  0.00  0.00    +0.000 C 
ATOM      2  O   UNL     1       1.456   7.839  17.506  0.00  0.00    +0.000 OA
ATOM      3  N   UNL     1       2.299   7.652  19.679  0.00  0.00    +0.000 N 
ATOM      4  H   UNL     1       2.428   8.210  20.511  0.00  0.00    +0.000 HD
ENDROOT
BRANCH   1   7
ATOM      5  C   UNL     1       0.052  11.578  19.319  0.00  0.00    +0.000 A 
ATOM      6  N   UNL     1       0.326  10.224  19.308  0.00  0.00    +0.000 NA
ATOM      7  C   UNL     1       1.481   9.818  18.719  0.00  0.00    +0.000 A 
ATOM      8  C   UNL     1       2.408  10.704  18.167  0.00  0.00    +0.000 A 
ATOM      9  C   UNL     1       2.119  12.059  18.157  0.00  0.00    +0.000 A 
ATOM     10  C   UNL     1       0.926  12.493  18.707  0.00  0.00    +0.000 A 
ATOM     11  F   UNL     1       0.623  13.788  18.562  0.00  0.00    +0.000 F 
BRANCH   5  18
ATOM     12  C   UNL     1      -2.566  12.828  23.411  0.00  0.00    +0.000 C 
ATOM     13  C   UNL     1      -2.561  12.549  21.928  0.00  0.00    +0.000 A 
ATOM     14  C   UNL     1      -3.731  12.600  21.178  0.00  0.00    +0.000 A 
ATOM     15  C   UNL     1      -3.665  12.393  19.805  0.00  0.00    +0.000 A 
ATOM     16  C   UNL     1      -2.440  12.122  19.191  0.00  0.00    +0.000 A 
ATOM     17  F   UNL     1      -2.453  12.021  17.854  0.00  0.00    +0.000 F 
ATOM     18  C   UNL     1      -1.241  11.992  19.925  0.00  0.00    +0.000 A 
ATOM     19  C   UNL     1      -1.345  12.247  21.302  0.00  0.00    +0.000 A 
ATOM     20  F   UNL     1      -0.251  12.181  22.082  0.00  0.00    +0.000 F 
ENDBRANCH   5  18
ENDBRANCH   1   7
BRANCH   3  21
ATOM     21  C   UNL     1       2.607   6.240  19.701  0.00  0.00    +0.000 A 
ATOM     22  C   UNL     1       1.824   5.368  20.488  0.00  0.00    +0.000 A 
ATOM     23  N   UNL     1       2.005   4.034  20.641  0.00  0.00    +0.000 NA
ATOM     24  C   UNL     1       3.000   3.493  19.942  0.00  0.00    +0.000 A 
ATOM     25  C   UNL     1       3.818   4.229  19.098  0.00  0.00    +0.000 A 
ATOM     26  C   UNL     1       3.685   5.632  18.976  0.00  0.00    +0.000 A 
BRANCH  26  27
ATOM     27  C   UNL     1       4.813   6.403  18.249  0.00  0.00    +0.000 C 
ATOM     28  C   UNL     1       4.614   6.588  16.731  0.00  0.00    +0.000 C 
ATOM     29  C   UNL     1       5.433   5.668  15.831  0.00  0.00    +0.000 C 
ATOM     30  C   UNL     1       4.959   4.216  15.933  0.00  0.00    +0.000 C 
ATOM     31  C   UNL     1       6.914   5.892  16.138  0.00  0.00    +0.000 C 
ATOM     32  C   UNL     1       7.286   5.479  17.573  0.00  0.00    +0.000 C 
ATOM     33  C   UNL     1       6.333   6.112  18.619  0.00  0.00    +0.000 C 
BRANCH  32  34
ATOM     34  N   UNL     1       7.445   4.013  17.667  0.00  0.00    +0.000 NA
ATOM     35  H   UNL     1       6.823   3.622  18.370  0.00  0.00    +0.000 HD
ATOM     36  H   UNL     1       8.392   3.793  17.981  0.00  0.00    +0.000 HD
ENDBRANCH  32  34
BRANCH  31  37
ATOM     37  O   UNL     1       7.722   5.209  15.180  0.00  0.00    +0.000 OA
ATOM     38  H   UNL     1       8.633   5.265  15.539  0.00  0.00    +0.000 HD
ENDBRANCH  31  37
ENDBRANCH  26  27
ENDBRANCH   3  21
TORSDOF 6
ENDMDL
MODEL 6
REMARK VINA RESULT:      -8.8      1.866      3.027
REMARK  Name = 
REMARK  8 active torsions:
REMARK  status: ('A' for Active; 'I' for Inactive)
REMARK    1  A    between atoms: C_1  and  C_2
REMARK    2  A    between atoms: C_7  and  C_8
REMARK    3  A    between atoms: C_10  and  C_11
REMARK    4  A    between atoms: N_13  and  C_14
REMARK    5  A    between atoms: C_19  and  C_20
REMARK    6  A    between atoms: C_22  and  C_23
REMARK    7  A    between atoms: C_24  and  O_25
REMARK    8  A    between atoms: C_26  and  N_27
REMARK                            x       y       z     vdW  Elec       q    Type
REMARK                         _______ _______ _______ _____ _____    ______ ____
ROOT
ATOM      1  C   UNL     1       1.850   6.948  19.860  0.00  0.00    +0.000 C 
ATOM      2  O   UNL     1       1.833   6.938  18.630  0.00  0.00    +0.000 OA
ATOM      3  N   UNL     1       2.276   5.890  20.672  0.00  0.00    +0.000 N 
ATOM      4  H   UNL     1       2.144   6.036  21.663  0.00  0.00    +0.000 HD
ENDROOT
BRANCH   1   7
ATOM      5  C   UNL     1       0.615  10.430  20.427  0.00  0.00    +0.000 A 
ATOM      6  N   UNL     1       1.051   9.296  19.767  0.00  0.00    +0.000 NA
ATOM      7  C   UNL     1       1.269   8.179  20.509  0.00  0.00    +0.000 A 
ATOM      8  C   UNL     1       1.036   8.118  21.884  0.00  0.00    +0.000 A 
ATOM      9  C   UNL     1       0.624   9.263  22.547  0.00  0.00    +0.000 A 
ATOM     10  C   UNL     1       0.441  10.427  21.822  0.00  0.00    +0.000 A 
ATOM     11  F   UNL     1       0.171  11.540  22.513  0.00  0.00    +0.000 F 
BRANCH   5  18
ATOM     12  C   UNL     1       2.144  15.046  19.193  0.00  0.00    +0.000 C 
ATOM     13  C   UNL     1       1.126  13.944  19.024  0.00  0.00    +0.000 A 
ATOM     14  C   UNL     1       0.023  14.098  18.192  0.00  0.00    +0.000 A 
ATOM     15  C   UNL     1      -0.854  13.034  18.023  0.00  0.00    +0.000 A 
ATOM     16  C   UNL     1      -0.636  11.829  18.695  0.00  0.00    +0.000 A 
ATOM     17  F   UNL     1      -1.479  10.826  18.409  0.00  0.00    +0.000 F 
ATOM     18  C   UNL     1       0.432  11.652  19.602  0.00  0.00    +0.000 A 
ATOM     19  C   UNL     1       1.314  12.739  19.713  0.00  0.00    +0.000 A 
ATOM     20  F   UNL     1       2.382  12.656  20.528  0.00  0.00    +0.000 F 
ENDBRANCH   5  18
ENDBRANCH   1   7
BRANCH   3  21
ATOM     21  C   UNL     1       2.829   4.643  20.193  0.00  0.00    +0.000 A 
ATOM     22  C   UNL     1       2.205   3.426  20.540  0.00  0.00    +0.000 A 
ATOM     23  N   UNL     1       2.617   2.179  20.201  0.00  0.00    +0.000 NA
ATOM     24  C   UNL     1       3.698   2.110  19.428  0.00  0.00    +0.000 A 
ATOM     25  C   UNL     1       4.381   3.231  18.980  0.00  0.00    +0.000 A 
ATOM     26  C   UNL     1       4.004   4.535  19.377  0.00  0.00    +0.000 A 
BRANCH  26  27
ATOM     27  C   UNL     1       4.985   5.694  19.074  0.00  0.00    +0.000 C 
ATOM     28  C   UNL     1       4.694   6.483  17.782  0.00  0.00    +0.000 C 
ATOM     29  C   UNL     1       5.588   6.164  16.587  0.00  0.00    +0.000 C 
ATOM     30  C   UNL     1       5.319   4.758  16.044  0.00  0.00    +0.000 C 
ATOM     31  C   UNL     1       7.039   6.439  16.987  0.00  0.00    +0.000 C 
ATOM     32  C   UNL     1       7.527   5.507  18.109  0.00  0.00    +0.000 C 
ATOM     33  C   UNL     1       6.544   5.488  19.309  0.00  0.00    +0.000 C 
BRANCH  32  34
ATOM     34  N   UNL     1       7.885   4.181  17.564  0.00  0.00    +0.000 NA
ATOM     35  H   UNL     1       7.168   3.841  16.927  0.00  0.00    +0.000 HD
ATOM     36  H   UNL     1       7.925   3.500  18.325  0.00  0.00    +0.000 HD
ENDBRANCH  32  34
BRANCH  31  37
ATOM     37  O   UNL     1       7.888   6.355  15.842  0.00  0.00    +0.000 OA
ATOM     38  H   UNL     1       8.746   6.036  16.194  0.00  0.00    +0.000 HD
ENDBRANCH  31  37
ENDBRANCH  26  27
ENDBRANCH   3  21
TORSDOF 6
ENDMDL
MODEL 7
REMARK VINA RESULT:      -8.6      2.141      4.460
REMARK  Name = 
REMARK  8 active torsions:
REMARK  status: ('A' for Active; 'I' for Inactive)
REMARK    1  A    between atoms: C_1  and  C_2
REMARK    2  A    between atoms: C_7  and  C_8
REMARK    3  A    between atoms: C_10  and  C_11
REMARK    4  A    between atoms: N_13  and  C_14
REMARK    5  A    between atoms: C_19  and  C_20
REMARK    6  A    between atoms: C_22  and  C_23
REMARK    7  A    between atoms: C_24  and  O_25
REMARK    8  A    between atoms: C_26  and  N_27
REMARK                            x       y       z     vdW  Elec       q    Type
REMARK                         _______ _______ _______ _____ _____    ______ ____
ROOT
ATOM      1  C   UNL     1       2.461   8.210  18.221  0.00  0.00    +0.000 C 
ATOM      2  O   UNL     1       2.328   8.686  17.094  0.00  0.00    +0.000 OA
ATOM      3  N   UNL     1       3.208   7.068  18.534  0.00  0.00    +0.000 N 
ATOM      4  H   UNL     1       3.141   6.766  19.495  0.00  0.00    +0.000 HD
ENDROOT
BRANCH   1   7
ATOM      5  C   UNL     1       0.605  10.768  20.216  0.00  0.00    +0.000 A 
ATOM      6  N   UNL     1       1.243  10.163  19.149  0.00  0.00    +0.000 NA
ATOM      7  C   UNL     1       1.663   8.880  19.310  0.00  0.00    +0.000 A 
ATOM      8  C   UNL     1       1.445   8.147  20.478  0.00  0.00    +0.000 A 
ATOM      9  C   UNL     1       0.828   8.764  21.554  0.00  0.00    +0.000 A 
ATOM     10  C   UNL     1       0.435  10.085  21.432  0.00  0.00    +0.000 A 
ATOM     11  F   UNL     1      -0.036  10.685  22.532  0.00  0.00    +0.000 F 
BRANCH   5  18
ATOM     12  C   UNL     1       1.930  15.555  19.509  0.00  0.00    +0.000 C 
ATOM     13  C   UNL     1       0.828  14.551  19.748  0.00  0.00    +0.000 A 
ATOM     14  C   UNL     1      -0.499  14.947  19.868  0.00  0.00    +0.000 A 
ATOM     15  C   UNL     1      -1.484  13.980  20.028  0.00  0.00    +0.000 A 
ATOM     16  C   UNL     1      -1.140  12.627  20.082  0.00  0.00    +0.000 A 
ATOM     17  F   UNL     1      -2.158  11.756  20.149  0.00  0.00    +0.000 F 
ATOM     18  C   UNL     1       0.200  12.186  20.033  0.00  0.00    +0.000 A 
ATOM     19  C   UNL     1       1.159  13.192  19.832  0.00  0.00    +0.000 A 
ATOM     20  F   UNL     1       2.462  12.869  19.739  0.00  0.00    +0.000 F 
ENDBRANCH   5  18
ENDBRANCH   1   7
BRANCH   3  21
ATOM     21  C   UNL     1       3.999   6.307  17.593  0.00  0.00    +0.000 A 
ATOM     22  C   UNL     1       5.111   6.911  16.967  0.00  0.00    +0.000 A 
ATOM     23  N   UNL     1       5.927   6.347  16.043  0.00  0.00    +0.000 NA
ATOM     24  C   UNL     1       5.668   5.079  15.730  0.00  0.00    +0.000 A 
ATOM     25  C   UNL     1       4.634   4.355  16.303  0.00  0.00    +0.000 A 
ATOM     26  C   UNL     1       3.734   4.947  17.220  0.00  0.00    +0.000 A 
BRANCH  26  27
ATOM     27  C   UNL     1       2.449   4.162  17.580  0.00  0.00    +0.000 C 
ATOM     28  C   UNL     1       1.478   4.888  18.532  0.00  0.00    +0.000 C 
ATOM     29  C   UNL     1       1.492   4.424  19.985  0.00  0.00    +0.000 C 
ATOM     30  C   UNL     1       2.800   4.806  20.683  0.00  0.00    +0.000 C 
ATOM     31  C   UNL     1       1.150   2.933  20.016  0.00  0.00    +0.000 C 
ATOM     32  C   UNL     1       2.212   2.071  19.312  0.00  0.00    +0.000 C 
ATOM     33  C   UNL     1       2.538   2.605  17.892  0.00  0.00    +0.000 C 
BRANCH  32  34
ATOM     34  N   UNL     1       3.380   1.864  20.193  0.00  0.00    +0.000 NA
ATOM     35  H   UNL     1       4.142   1.414  19.691  0.00  0.00    +0.000 HD
ATOM     36  H   UNL     1       3.128   1.222  20.947  0.00  0.00    +0.000 HD
ENDBRANCH  32  34
BRANCH  31  37
ATOM     37  O   UNL     1       0.948   2.504  21.362  0.00  0.00    +0.000 OA
ATOM     38  H   UNL     1      -0.003   2.269  21.407  0.00  0.00    +0.000 HD
ENDBRANCH  31  37
ENDBRANCH  26  27
ENDBRANCH   3  21
TORSDOF 6
ENDMDL
MODEL 8
REMARK VINA RESULT:      -8.6      1.664      2.035
REMARK  Name = 
REMARK  8 active torsions:
REMARK  status: ('A' for Active; 'I' for Inactive)
REMARK    1  A    between atoms: C_1  and  C_2
REMARK    2  A    between atoms: C_7  and  C_8
REMARK    3  A    between atoms: C_10  and  C_11
REMARK    4  A    between atoms: N_13  and  C_14
REMARK    5  A    between atoms: C_19  and  C_20
REMARK    6  A    between atoms: C_22  and  C_23
REMARK    7  A    between atoms: C_24  and  O_25
REMARK    8  A    between atoms: C_26  and  N_27
REMARK                            x       y       z     vdW  Elec       q    Type
REMARK                         _______ _______ _______ _____ _____    ______ ____
ROOT
ATOM      1  C   UNL     1       1.614   8.095  20.357  0.00  0.00    +0.000 C 
ATOM      2  O   UNL     1       1.808   8.007  21.569  0.00  0.00    +0.000 OA
ATOM      3  N   UNL     1       1.931   7.112  19.413  0.00  0.00    +0.000 N 
ATOM      4  H   UNL     1       1.782   7.383  18.451  0.00  0.00    +0.000 HD
ENDROOT
BRANCH   1   7
ATOM      5  C   UNL     1       0.183  11.548  20.301  0.00  0.00    +0.000 A 
ATOM      6  N   UNL     1       0.768  10.391  20.779  0.00  0.00    +0.000 NA
ATOM      7  C   UNL     1       1.077   9.421  19.879  0.00  0.00    +0.000 A 
ATOM      8  C   UNL     1       0.865   9.559  18.506  0.00  0.00    +0.000 A 
ATOM      9  C   UNL     1       0.254  10.709  18.033  0.00  0.00    +0.000 A 
ATOM     10  C   UNL     1      -0.113  11.691  18.935  0.00  0.00    +0.000 A 
ATOM     11  F   UNL     1      -0.816  12.725  18.458  0.00  0.00    +0.000 F 
BRANCH   5  18
ATOM     12  C   UNL     1       0.907  16.110  22.257  0.00  0.00    +0.000 C 
ATOM     13  C   UNL     1       0.190  14.784  22.327  0.00  0.00    +0.000 A 
ATOM     14  C   UNL     1      -0.722  14.507  23.340  0.00  0.00    +0.000 A 
ATOM     15  C   UNL     1      -1.400  13.294  23.328  0.00  0.00    +0.000 A 
ATOM     16  C   UNL     1      -1.157  12.360  22.318  0.00  0.00    +0.000 A 
ATOM     17  F   UNL     1      -1.916  11.256  22.333  0.00  0.00    +0.000 F 
ATOM     18  C   UNL     1      -0.190  12.573  21.311  0.00  0.00    +0.000 A 
ATOM     19  C   UNL     1       0.444  13.825  21.338  0.00  0.00    +0.000 A 
ATOM     20  F   UNL     1       1.358  14.136  20.400  0.00  0.00    +0.000 F 
ENDBRANCH   5  18
ENDBRANCH   1   7
BRANCH   3  21
ATOM     21  C   UNL     1       2.475   5.808  19.719  0.00  0.00    +0.000 A 
ATOM     22  C   UNL     1       1.748   4.926  20.545  0.00  0.00    +0.000 A 
ATOM     23  N   UNL     1       2.134   3.691  20.950  0.00  0.00    +0.000 NA
ATOM     24  C   UNL     1       3.303   3.260  20.482  0.00  0.00    +0.000 A 
ATOM     25  C   UNL     1       4.098   4.009  19.628  0.00  0.00    +0.000 A 
ATOM     26  C   UNL     1       3.741   5.324  19.247  0.00  0.00    +0.000 A 
BRANCH  26  27
ATOM     27  C   UNL     1       4.814   6.187  18.539  0.00  0.00    +0.000 C 
ATOM     28  C   UNL     1       4.550   6.473  17.047  0.00  0.00    +0.000 C 
ATOM     29  C   UNL     1       5.364   5.651  16.053  0.00  0.00    +0.000 C 
ATOM     30  C   UNL     1       4.945   4.179  16.065  0.00  0.00    +0.000 C 
ATOM     31  C   UNL     1       6.848   5.906  16.322  0.00  0.00    +0.000 C 
ATOM     32  C   UNL     1       7.289   5.405  17.709  0.00  0.00    +0.000 C 
ATOM     33  C   UNL     1       6.355   5.926  18.832  0.00  0.00    +0.000 C 
BRANCH  32  34
ATOM     34  N   UNL     1       7.501   3.944  17.689  0.00  0.00    +0.000 NA
ATOM     35  H   UNL     1       8.491   3.718  17.615  0.00  0.00    +0.000 HD
ATOM     36  H   UNL     1       7.063   3.547  16.856  0.00  0.00    +0.000 HD
ENDBRANCH  32  34
BRANCH  31  37
ATOM     37  O   UNL     1       7.642   5.324  15.288  0.00  0.00    +0.000 OA
ATOM     38  H   UNL     1       7.361   4.385  15.260  0.00  0.00    +0.000 HD
ENDBRANCH  31  37
ENDBRANCH  26  27
ENDBRANCH   3  21
TORSDOF 6
ENDMDL
MODEL 9
REMARK VINA RESULT:      -8.6      1.499      1.976
REMARK  Name = 
REMARK  8 active torsions:
REMARK  status: ('A' for Active; 'I' for Inactive)
REMARK    1  A    between atoms: C_1  and  C_2
REMARK    2  A    between atoms: C_7  and  C_8
REMARK    3  A    between atoms: C_10  and  C_11
REMARK    4  A    between atoms: N_13  and  C_14
REMARK    5  A    between atoms: C_19  and  C_20
REMARK    6  A    between atoms: C_22  and  C_23
REMARK    7  A    between atoms: C_24  and  O_25
REMARK    8  A    between atoms: C_26  and  N_27
REMARK                            x       y       z     vdW  Elec       q    Type
REMARK                         _______ _______ _______ _____ _____    ______ ____
ROOT
ATOM      1  C   UNL     1       1.728   7.949  20.148  0.00  0.00    +0.000 C 
ATOM      2  O   UNL     1       1.971   7.888  21.352  0.00  0.00    +0.000 OA
ATOM      3  N   UNL     1       2.055   6.966  19.206  0.00  0.00    +0.000 N 
ATOM      4  H   UNL     1       1.859   7.215  18.247  0.00  0.00    +0.000 HD
ENDROOT
BRANCH   1   7
ATOM      5  C   UNL     1       0.307  11.405  20.080  0.00  0.00    +0.000 A 
ATOM      6  N   UNL     1       0.968  10.280  20.535  0.00  0.00    +0.000 NA
ATOM      7  C   UNL     1       1.115   9.241  19.671  0.00  0.00    +0.000 A 
ATOM      8  C   UNL     1       0.666   9.279  18.350  0.00  0.00    +0.000 A 
ATOM      9  C   UNL     1      -0.018  10.398  17.904  0.00  0.00    +0.000 A 
ATOM     10  C   UNL     1      -0.223  11.450  18.779  0.00  0.00    +0.000 A 
ATOM     11  F   UNL     1      -0.999  12.454  18.355  0.00  0.00    +0.000 F 
BRANCH   5  18
ATOM     12  C   UNL     1      -2.428  13.467  23.745  0.00  0.00    +0.000 C 
ATOM     13  C   UNL     1      -1.243  13.570  22.816  0.00  0.00    +0.000 A 
ATOM     14  C   UNL     1      -0.412  14.685  22.824  0.00  0.00    +0.000 A 
ATOM     15  C   UNL     1       0.701  14.707  21.992  0.00  0.00    +0.000 A 
ATOM     16  C   UNL     1       0.971  13.628  21.148  0.00  0.00    +0.000 A 
ATOM     17  F   UNL     1       2.110  13.693  20.444  0.00  0.00    +0.000 F 
ATOM     18  C   UNL     1       0.117  12.507  21.058  0.00  0.00    +0.000 A 
ATOM     19  C   UNL     1      -0.974  12.508  21.943  0.00  0.00    +0.000 A 
ATOM     20  F   UNL     1      -1.828  11.469  21.957  0.00  0.00    +0.000 F 
ENDBRANCH   5  18
ENDBRANCH   1   7
BRANCH   3  21
ATOM     21  C   UNL     1       2.668   5.692  19.510  0.00  0.00    +0.000 A 
ATOM     22  C   UNL     1       2.012   4.792  20.376  0.00  0.00    +0.000 A 
ATOM     23  N   UNL     1       2.468   3.582  20.784  0.00  0.00    +0.000 NA
ATOM     24  C   UNL     1       3.638   3.196  20.278  0.00  0.00    +0.000 A 
ATOM     25  C   UNL     1       4.366   3.966  19.383  0.00  0.00    +0.000 A 
ATOM     26  C   UNL     1       3.936   5.257  18.997  0.00  0.00    +0.000 A 
BRANCH  26  27
ATOM     27  C   UNL     1       4.942   6.155  18.236  0.00  0.00    +0.000 C 
ATOM     28  C   UNL     1       4.632   6.372  16.741  0.00  0.00    +0.000 C 
ATOM     29  C   UNL     1       5.474   5.563  15.759  0.00  0.00    +0.000 C 
ATOM     30  C   UNL     1       5.142   4.070  15.831  0.00  0.00    +0.000 C 
ATOM     31  C   UNL     1       6.945   5.914  15.986  0.00  0.00    +0.000 C 
ATOM     32  C   UNL     1       7.442   5.490  17.380  0.00  0.00    +0.000 C 
ATOM     33  C   UNL     1       6.501   5.995  18.504  0.00  0.00    +0.000 C 
BRANCH  32  34
ATOM     34  N   UNL     1       7.740   4.043  17.407  0.00  0.00    +0.000 NA
ATOM     35  H   UNL     1       7.674   3.638  16.475  0.00  0.00    +0.000 HD
ATOM     36  H   UNL     1       7.036   3.561  17.968  0.00  0.00    +0.000 HD
ENDBRANCH  32  34
BRANCH  31  37
ATOM     37  O   UNL     1       7.751   5.342  14.957  0.00  0.00    +0.000 OA
ATOM     38  H   UNL     1       7.118   5.117  14.243  0.00  0.00    +0.000 HD
ENDBRANCH  31  37
ENDBRANCH  26  27
ENDBRANCH   3  21
TORSDOF 6
ENDMDL
