MODEL 1
REMARK VINA RESULT:      -8.2      0.000      0.000
REMARK  Name = 
REMARK  7 active torsions:
REMARK  status: ('A' for Active; 'I' for Inactive)
REMARK    1  A    between atoms: C_1  and  C_2
REMARK    2  A    between atoms: C_2  and  C_3
REMARK    3  A    between atoms: C_3  and  C_4
REMARK    4  A    between atoms: C_3  and  C_5
REMARK    5  A    between atoms: C_3  and  C_6
REMARK    6  A    between atoms: C_9  and  S_10
REMARK    7  A    between atoms: S_10  and  C_11
REMARK                            x       y       z     vdW  Elec       q    Type
REMARK                         _______ _______ _______ _____ _____    ______ ____
ROOT
ATOM      1  C   UNL     1       4.704   5.537  18.474  0.00  0.00    +0.000 A 
ATOM      2  C   UNL     1       4.327   6.810  18.022  0.00  0.00    +0.000 A 
ATOM      3  C   UNL     1       3.021   7.253  18.171  0.00  0.00    +0.000 A 
ATOM      4  C   UNL     1       2.089   6.429  18.790  0.00  0.00    +0.000 A 
ATOM      5  C   UNL     1       2.426   5.175  19.283  0.00  0.00    +0.000 A 
ATOM      6  N   UNL     1       1.486   4.515  19.962  0.00  0.00    +0.000 NA
ATOM      7  C   UNL     1       1.801   3.306  20.423  0.00  0.00    +0.000 A 
ATOM      8  N   UNL     1       1.071   2.780  21.479  0.00  0.00    +0.000 N 
ATOM      9  N   UNL     1       2.937   2.672  20.204  0.00  0.00    +0.000 NA
ATOM     10  C   UNL     1       3.898   3.377  19.603  0.00  0.00    +0.000 A 
ATOM     11  N   UNL     1       5.135   2.750  19.722  0.00  0.00    +0.000 N 
ATOM     12  C   UNL     1       3.734   4.686  19.106  0.00  0.00    +0.000 A 
ATOM     13  H   UNL     1       1.265   3.432  22.237  0.00  0.00    +0.000 HD
ATOM     14  H   UNL     1       1.544   1.902  21.682  0.00  0.00    +0.000 HD
ATOM     15  H   UNL     1       4.976   1.777  20.003  0.00  0.00    +0.000 HD
ATOM     16  H   UNL     1       5.732   2.856  18.916  0.00  0.00    +0.000 HD
ENDROOT
BRANCH   1  17
ATOM     17  S   UNL     1       6.394   5.022  18.137  0.00  0.00    +0.000 S 
BRANCH  17  21
ATOM     18  C   UNL     1       6.116   3.900  13.645  0.00  0.00    +0.000 A 
ATOM     19  C   UNL     1       5.183   3.407  14.586  0.00  0.00    +0.000 A 
ATOM     20  C   UNL     1       5.277   3.716  15.953  0.00  0.00    +0.000 A 
ATOM     21  C   UNL     1       6.305   4.531  16.425  0.00  0.00    +0.000 A 
ATOM     22  C   UNL     1       7.232   5.037  15.513  0.00  0.00    +0.000 A 
ATOM     23  C   UNL     1       7.138   4.725  14.151  0.00  0.00    +0.000 A 
BRANCH  18  24
ATOM     24  C   UNL     1       6.047   3.556  12.147  0.00  0.00    +0.000 C 
ATOM     25  C   UNL     1       6.235   2.049  11.848  0.00  0.00    +0.000 C 
ATOM     26  C   UNL     1       7.207   4.287  11.423  0.00  0.00    +0.000 C 
BRANCH  24  28
ATOM     27  C   UNL     1       3.771   2.939  11.020  0.00  0.00    +0.000 C 
ATOM     28  C   UNL     1       4.715   4.039  11.494  0.00  0.00    +0.000 C 
ENDBRANCH  24  28
ENDBRANCH  18  24
ENDBRANCH  17  21
ENDBRANCH   1  17
TORSDOF 4
ENDMDL
MODEL 2
REMARK VINA RESULT:      -8.0      0.414      1.170
REMARK  Name = 
REMARK  7 active torsions:
REMARK  status: ('A' for Active; 'I' for Inactive)
REMARK    1  A    between atoms: C_1  and  C_2
REMARK    2  A    between atoms: C_2  and  C_3
REMARK    3  A    between atoms: C_3  and  C_4
REMARK    4  A    between atoms: C_3  and  C_5
REMARK    5  A    between atoms: C_3  and  C_6
REMARK    6  A    between atoms: C_9  and  S_10
REMARK    7  A    between atoms: S_10  and  C_11
REMARK                            x       y       z     vdW  Elec       q    Type
REMARK                         _______ _______ _______ _____ _____    ______ ____
ROOT
ATOM      1  C   UNL     1       4.794   5.592  18.340  0.00  0.00    +0.000 A 
ATOM      2  C   UNL     1       4.450   6.867  17.869  0.00  0.00    +0.000 A 
ATOM      3  C   UNL     1       3.145   7.327  17.969  0.00  0.00    +0.000 A 
ATOM      4  C   UNL     1       2.181   6.518  18.558  0.00  0.00    +0.000 A 
ATOM      5  C   UNL     1       2.485   5.263  19.068  0.00  0.00    +0.000 A 
ATOM      6  N   UNL     1       1.513   4.617  19.717  0.00  0.00    +0.000 NA
ATOM      7  C   UNL     1       1.796   3.407  20.194  0.00  0.00    +0.000 A 
ATOM      8  N   UNL     1       1.023   2.896  21.226  0.00  0.00    +0.000 N 
ATOM      9  N   UNL     1       2.931   2.758  20.019  0.00  0.00    +0.000 NA
ATOM     10  C   UNL     1       3.922   3.448  19.449  0.00  0.00    +0.000 A 
ATOM     11  N   UNL     1       5.145   2.806  19.615  0.00  0.00    +0.000 N 
ATOM     12  C   UNL     1       3.792   4.756  18.941  0.00  0.00    +0.000 A 
ATOM     13  H   UNL     1       1.198   3.550  21.987  0.00  0.00    +0.000 HD
ATOM     14  H   UNL     1       1.476   2.013  21.449  0.00  0.00    +0.000 HD
ATOM     15  H   UNL     1       4.964   1.837  19.894  0.00  0.00    +0.000 HD
ATOM     16  H   UNL     1       5.772   2.901  18.830  0.00  0.00    +0.000 HD
ENDROOT
BRANCH   1  17
ATOM     17  S   UNL     1       6.488   5.054  18.065  0.00  0.00    +0.000 S 
BRANCH  17  21
ATOM     18  C   UNL     1       6.353   3.932  13.567  0.00  0.00    +0.000 A 
ATOM     19  C   UNL     1       5.426   3.393  14.488  0.00  0.00    +0.000 A 
ATOM     20  C   UNL     1       5.478   3.703  15.858  0.00  0.00    +0.000 A 
ATOM     21  C   UNL     1       6.457   4.564  16.350  0.00  0.00    +0.000 A 
ATOM     22  C   UNL     1       7.376   5.116  15.458  0.00  0.00    +0.000 A 
ATOM     23  C   UNL     1       7.324   4.804  14.094  0.00  0.00    +0.000 A 
BRANCH  18  24
ATOM     24  C   UNL     1       6.329   3.590  12.067  0.00  0.00    +0.000 C 
ATOM     25  C   UNL     1       6.948   4.690  11.170  0.00  0.00    +0.000 C 
ATOM     26  C   UNL     1       4.850   3.452  11.620  0.00  0.00    +0.000 C 
BRANCH  24  28
ATOM     27  C   UNL     1       6.146   1.140  11.177  0.00  0.00    +0.000 C 
ATOM     28  C   UNL     1       7.034   2.232  11.762  0.00  0.00    +0.000 C 
ENDBRANCH  24  28
ENDBRANCH  18  24
ENDBRANCH  17  21
ENDBRANCH   1  17
TORSDOF 4
ENDMDL
MODEL 3
REMARK VINA RESULT:      -8.0      0.389      1.507
REMARK  Name = 
REMARK  7 active torsions:
REMARK  status: ('A' for Active; 'I' for Inactive)
REMARK    1  A    between atoms: C_1  and  C_2
REMARK    2  A    between atoms: C_2  and  C_3
REMARK    3  A    between atoms: C_3  and  C_4
REMARK    4  A    between atoms: C_3  and  C_5
REMARK    5  A    between atoms: C_3  and  C_6
REMARK    6  A    between atoms: C_9  and  S_10
REMARK    7  A    between atoms: S_10  and  C_11
REMARK                            x       y       z     vdW  Elec       q    Type
REMARK                         _______ _______ _______ _____ _____    ______ ____
ROOT
ATOM      1  C   UNL     1       4.672   5.357  18.517  0.00  0.00    +0.000 A 
ATOM      2  C   UNL     1       4.286   6.616  18.037  0.00  0.00    +0.000 A 
ATOM      3  C   UNL     1       2.980   7.057  18.186  0.00  0.00    +0.000 A 
ATOM      4  C   UNL     1       2.056   6.246  18.833  0.00  0.00    +0.000 A 
ATOM      5  C   UNL     1       2.403   5.006  19.354  0.00  0.00    +0.000 A 
ATOM      6  N   UNL     1       1.472   4.359  20.058  0.00  0.00    +0.000 NA
ATOM      7  C   UNL     1       1.795   3.163  20.546  0.00  0.00    +0.000 A 
ATOM      8  N   UNL     1       1.077   2.661  21.620  0.00  0.00    +0.000 N 
ATOM      9  N   UNL     1       2.932   2.528  20.333  0.00  0.00    +0.000 NA
ATOM     10  C   UNL     1       3.885   3.222  19.706  0.00  0.00    +0.000 A 
ATOM     11  N   UNL     1       5.125   2.603  19.830  0.00  0.00    +0.000 N 
ATOM     12  C   UNL     1       3.711   4.517  19.179  0.00  0.00    +0.000 A 
ATOM     13  H   UNL     1       1.274   3.332  22.360  0.00  0.00    +0.000 HD
ATOM     14  H   UNL     1       1.554   1.790  21.841  0.00  0.00    +0.000 HD
ATOM     15  H   UNL     1       4.973   1.637  20.136  0.00  0.00    +0.000 HD
ATOM     16  H   UNL     1       5.715   2.692  19.017  0.00  0.00    +0.000 HD
ENDROOT
BRANCH   1  17
ATOM     17  S   UNL     1       6.361   4.840  18.178  0.00  0.00    +0.000 S 
BRANCH  17  21
ATOM     18  C   UNL     1       6.313   3.947  13.627  0.00  0.00    +0.000 A 
ATOM     19  C   UNL     1       7.294   4.787  14.202  0.00  0.00    +0.000 A 
ATOM     20  C   UNL     1       7.298   5.089  15.574  0.00  0.00    +0.000 A 
ATOM     21  C   UNL     1       6.324   4.557  16.418  0.00  0.00    +0.000 A 
ATOM     22  C   UNL     1       5.352   3.717  15.874  0.00  0.00    +0.000 A 
ATOM     23  C   UNL     1       5.347   3.420  14.506  0.00  0.00    +0.000 A 
BRANCH  18  24
ATOM     24  C   UNL     1       6.275   3.621  12.124  0.00  0.00    +0.000 C 
ATOM     25  C   UNL     1       6.917   4.715  11.237  0.00  0.00    +0.000 C 
ATOM     26  C   UNL     1       4.791   3.525  11.682  0.00  0.00    +0.000 C 
BRANCH  24  28
ATOM     27  C   UNL     1       6.047   1.212  11.138  0.00  0.00    +0.000 C 
ATOM     28  C   UNL     1       6.945   2.250  11.802  0.00  0.00    +0.000 C 
ENDBRANCH  24  28
ENDBRANCH  18  24
ENDBRANCH  17  21
ENDBRANCH   1  17
TORSDOF 4
ENDMDL
MODEL 4
REMARK VINA RESULT:      -7.5      6.474      9.180
REMARK  Name = 
REMARK  7 active torsions:
REMARK  status: ('A' for Active; 'I' for Inactive)
REMARK    1  A    between atoms: C_1  and  C_2
REMARK    2  A    between atoms: C_2  and  C_3
REMARK    3  A    between atoms: C_3  and  C_4
REMARK    4  A    between atoms: C_3  and  C_5
REMARK    5  A    between atoms: C_3  and  C_6
REMARK    6  A    between atoms: C_9  and  S_10
REMARK    7  A    between atoms: S_10  and  C_11
REMARK                            x       y       z     vdW  Elec       q    Type
REMARK                         _______ _______ _______ _____ _____    ______ ____
ROOT
ATOM      1  C   UNL     1      -1.142  11.113  18.528  0.00  0.00    +0.000 A 
ATOM      2  C   UNL     1      -1.396  10.157  17.535  0.00  0.00    +0.000 A 
ATOM      3  C   UNL     1      -2.698   9.861  17.158  0.00  0.00    +0.000 A 
ATOM      4  C   UNL     1      -3.752  10.534  17.762  0.00  0.00    +0.000 A 
ATOM      5  C   UNL     1      -3.545  11.513  18.726  0.00  0.00    +0.000 A 
ATOM      6  N   UNL     1      -4.618  12.179  19.157  0.00  0.00    +0.000 NA
ATOM      7  C   UNL     1      -4.425  13.108  20.093  0.00  0.00    +0.000 A 
ATOM      8  N   UNL     1      -5.372  14.109  20.248  0.00  0.00    +0.000 N 
ATOM      9  N   UNL     1      -3.277  13.376  20.684  0.00  0.00    +0.000 NA
ATOM     10  C   UNL     1      -2.200  12.768  20.182  0.00  0.00    +0.000 A 
ATOM     11  N   UNL     1      -1.026  13.360  20.637  0.00  0.00    +0.000 N 
ATOM     12  C   UNL     1      -2.236  11.801  19.156  0.00  0.00    +0.000 A 
ATOM     13  H   UNL     1      -5.338  14.595  19.353  0.00  0.00    +0.000 HD
ATOM     14  H   UNL     1      -4.966  14.714  20.958  0.00  0.00    +0.000 HD
ATOM     15  H   UNL     1      -1.254  13.941  21.450  0.00  0.00    +0.000 HD
ATOM     16  H   UNL     1      -0.268  12.713  20.790  0.00  0.00    +0.000 HD
ENDROOT
BRANCH   1  17
ATOM     17  S   UNL     1       0.574  11.344  19.015  0.00  0.00    +0.000 S 
BRANCH  17  21
ATOM     18  C   UNL     1       2.266   7.034  19.281  0.00  0.00    +0.000 A 
ATOM     19  C   UNL     1       2.372   7.793  18.093  0.00  0.00    +0.000 A 
ATOM     20  C   UNL     1       1.834   9.088  17.993  0.00  0.00    +0.000 A 
ATOM     21  C   UNL     1       1.178   9.667  19.078  0.00  0.00    +0.000 A 
ATOM     22  C   UNL     1       1.070   8.939  20.263  0.00  0.00    +0.000 A 
ATOM     23  C   UNL     1       1.604   7.647  20.360  0.00  0.00    +0.000 A 
BRANCH  18  24
ATOM     24  C   UNL     1       2.826   5.606  19.406  0.00  0.00    +0.000 C 
ATOM     25  C   UNL     1       4.373   5.548  19.442  0.00  0.00    +0.000 C 
ATOM     26  C   UNL     1       2.395   4.800  18.153  0.00  0.00    +0.000 C 
BRANCH  24  28
ATOM     27  C   UNL     1       1.076   3.938  20.397  0.00  0.00    +0.000 C 
ATOM     28  C   UNL     1       2.262   4.860  20.654  0.00  0.00    +0.000 C 
ENDBRANCH  24  28
ENDBRANCH  18  24
ENDBRANCH  17  21
ENDBRANCH   1  17
TORSDOF 4
ENDMDL
MODEL 5
REMARK VINA RESULT:      -7.5      3.255      7.521
REMARK  Name = 
REMARK  7 active torsions:
REMARK  status: ('A' for Active; 'I' for Inactive)
REMARK    1  A    between atoms: C_1  and  C_2
REMARK    2  A    between atoms: C_2  and  C_3
REMARK    3  A    between atoms: C_3  and  C_4
REMARK    4  A    between atoms: C_3  and  C_5
REMARK    5  A    between atoms: C_3  and  C_6
REMARK    6  A    between atoms: C_9  and  S_10
REMARK    7  A    between atoms: S_10  and  C_11
REMARK                            x       y       z     vdW  Elec       q    Type
REMARK                         _______ _______ _______ _____ _____    ______ ____
ROOT
ATOM      1  C   UNL     1       5.242   4.907  18.778  0.00  0.00    +0.000 A 
ATOM      2  C   UNL     1       6.176   5.484  19.650  0.00  0.00    +0.000 A 
ATOM      3  C   UNL     1       7.478   5.721  19.232  0.00  0.00    +0.000 A 
ATOM      4  C   UNL     1       7.846   5.396  17.934  0.00  0.00    +0.000 A 
ATOM      5  C   UNL     1       6.945   4.854  17.026  0.00  0.00    +0.000 A 
ATOM      6  N   UNL     1       7.369   4.688  15.772  0.00  0.00    +0.000 NA
ATOM      7  C   UNL     1       6.513   4.154  14.902  0.00  0.00    +0.000 A 
ATOM      8  N   UNL     1       6.714   4.367  13.547  0.00  0.00    +0.000 N 
ATOM      9  N   UNL     1       5.306   3.706  15.190  0.00  0.00    +0.000 NA
ATOM     10  C   UNL     1       4.862   3.960  16.423  0.00  0.00    +0.000 A 
ATOM     11  N   UNL     1       3.489   3.757  16.517  0.00  0.00    +0.000 N 
ATOM     12  C   UNL     1       5.630   4.565  17.438  0.00  0.00    +0.000 A 
ATOM     13  H   UNL     1       6.616   5.377  13.458  0.00  0.00    +0.000 HD
ATOM     14  H   UNL     1       5.906   3.926  13.114  0.00  0.00    +0.000 HD
ATOM     15  H   UNL     1       3.188   3.208  15.705  0.00  0.00    +0.000 HD
ATOM     16  H   UNL     1       3.185   3.384  17.404  0.00  0.00    +0.000 HD
ENDROOT
BRANCH   1  17
ATOM     17  S   UNL     1       3.615   4.547  19.453  0.00  0.00    +0.000 S 
BRANCH  17  21
ATOM     18  C   UNL     1       1.639   8.732  19.151  0.00  0.00    +0.000 A 
ATOM     19  C   UNL     1       1.532   7.950  20.324  0.00  0.00    +0.000 A 
ATOM     20  C   UNL     1       2.100   6.669  20.414  0.00  0.00    +0.000 A 
ATOM     21  C   UNL     1       2.798   6.128  19.336  0.00  0.00    +0.000 A 
ATOM     22  C   UNL     1       2.925   6.885  18.171  0.00  0.00    +0.000 A 
ATOM     23  C   UNL     1       2.355   8.161  18.082  0.00  0.00    +0.000 A 
BRANCH  18  24
ATOM     24  C   UNL     1       1.006  10.128  19.021  0.00  0.00    +0.000 C 
ATOM     25  C   UNL     1      -0.338  10.130  18.252  0.00  0.00    +0.000 C 
ATOM     26  C   UNL     1       1.970  11.028  18.205  0.00  0.00    +0.000 C 
BRANCH  24  28
ATOM     27  C   UNL     1      -0.645  11.160  20.765  0.00  0.00    +0.000 C 
ATOM     28  C   UNL     1       0.796  10.810  20.409  0.00  0.00    +0.000 C 
ENDBRANCH  24  28
ENDBRANCH  18  24
ENDBRANCH  17  21
ENDBRANCH   1  17
TORSDOF 4
ENDMDL
MODEL 6
REMARK VINA RESULT:      -7.5      3.319      7.549
REMARK  Name = 
REMARK  7 active torsions:
REMARK  status: ('A' for Active; 'I' for Inactive)
REMARK    1  A    between atoms: C_1  and  C_2
REMARK    2  A    between atoms: C_2  and  C_3
REMARK    3  A    between atoms: C_3  and  C_4
REMARK    4  A    between atoms: C_3  and  C_5
REMARK    5  A    between atoms: C_3  and  C_6
REMARK    6  A    between atoms: C_9  and  S_10
REMARK    7  A    between atoms: S_10  and  C_11
REMARK                            x       y       z     vdW  Elec       q    Type
REMARK                         _______ _______ _______ _____ _____    ______ ____
ROOT
ATOM      1  C   UNL     1       5.223   4.968  18.746  0.00  0.00    +0.000 A 
ATOM      2  C   UNL     1       6.192   5.511  19.602  0.00  0.00    +0.000 A 
ATOM      3  C   UNL     1       7.502   5.670  19.173  0.00  0.00    +0.000 A 
ATOM      4  C   UNL     1       7.844   5.302  17.879  0.00  0.00    +0.000 A 
ATOM      5  C   UNL     1       6.910   4.792  16.986  0.00  0.00    +0.000 A 
ATOM      6  N   UNL     1       7.317   4.580  15.733  0.00  0.00    +0.000 NA
ATOM      7  C   UNL     1       6.428   4.077  14.878  0.00  0.00    +0.000 A 
ATOM      8  N   UNL     1       6.631   4.254  13.518  0.00  0.00    +0.000 N 
ATOM      9  N   UNL     1       5.200   3.699  15.180  0.00  0.00    +0.000 NA
ATOM     10  C   UNL     1       4.778   4.000  16.411  0.00  0.00    +0.000 A 
ATOM     11  N   UNL     1       3.397   3.872  16.516  0.00  0.00    +0.000 N 
ATOM     12  C   UNL     1       5.584   4.581  17.410  0.00  0.00    +0.000 A 
ATOM     13  H   UNL     1       6.587   5.266  13.411  0.00  0.00    +0.000 HD
ATOM     14  H   UNL     1       5.798   3.849  13.098  0.00  0.00    +0.000 HD
ATOM     15  H   UNL     1       3.062   3.325  15.716  0.00  0.00    +0.000 HD
ATOM     16  H   UNL     1       3.079   3.532  17.412  0.00  0.00    +0.000 HD
ENDROOT
BRANCH   1  17
ATOM     17  S   UNL     1       3.583   4.708  19.436  0.00  0.00    +0.000 S 
BRANCH  17  21
ATOM     18  C   UNL     1       1.552   8.866  19.122  0.00  0.00    +0.000 A 
ATOM     19  C   UNL     1       2.298   8.328  18.048  0.00  0.00    +0.000 A 
ATOM     20  C   UNL     1       2.943   7.083  18.145  0.00  0.00    +0.000 A 
ATOM     21  C   UNL     1       2.860   6.334  19.317  0.00  0.00    +0.000 A 
ATOM     22  C   UNL     1       2.121   6.841  20.387  0.00  0.00    +0.000 A 
ATOM     23  C   UNL     1       1.482   8.083  20.289  0.00  0.00    +0.000 A 
BRANCH  18  24
ATOM     24  C   UNL     1       0.856  10.236  19.046  0.00  0.00    +0.000 C 
ATOM     25  C   UNL     1       1.751  11.353  18.454  0.00  0.00    +0.000 C 
ATOM     26  C   UNL     1       0.505  10.686  20.488  0.00  0.00    +0.000 C 
BRANCH  24  28
ATOM     27  C   UNL     1      -1.492  11.270  18.553  0.00  0.00    +0.000 C 
ATOM     28  C   UNL     1      -0.478  10.175  18.240  0.00  0.00    +0.000 C 
ENDBRANCH  24  28
ENDBRANCH  18  24
ENDBRANCH  17  21
ENDBRANCH   1  17
TORSDOF 4
ENDMDL
MODEL 7
REMARK VINA RESULT:      -7.5      3.254      7.490
REMARK  Name = 
REMARK  7 active torsions:
REMARK  status: ('A' for Active; 'I' for Inactive)
REMARK    1  A    between atoms: C_1  and  C_2
REMARK    2  A    between atoms: C_2  and  C_3
REMARK    3  A    between atoms: C_3  and  C_4
REMARK    4  A    between atoms: C_3  and  C_5
REMARK    5  A    between atoms: C_3  and  C_6
REMARK    6  A    between atoms: C_9  and  S_10
REMARK    7  A    between atoms: S_10  and  C_11
REMARK                            x       y       z     vdW  Elec       q    Type
REMARK                         _______ _______ _______ _____ _____    ______ ____
ROOT
ATOM      1  C   UNL     1       5.216   4.920  18.725  0.00  0.00    +0.000 A 
ATOM      2  C   UNL     1       6.141   5.483  19.617  0.00  0.00    +0.000 A 
ATOM      3  C   UNL     1       7.452   5.709  19.224  0.00  0.00    +0.000 A 
ATOM      4  C   UNL     1       7.840   5.388  17.930  0.00  0.00    +0.000 A 
ATOM      5  C   UNL     1       6.949   4.861  17.003  0.00  0.00    +0.000 A 
ATOM      6  N   UNL     1       7.394   4.698  15.755  0.00  0.00    +0.000 NA
ATOM      7  C   UNL     1       6.548   4.178  14.868  0.00  0.00    +0.000 A 
ATOM      8  N   UNL     1       6.775   4.398  13.518  0.00  0.00    +0.000 N 
ATOM      9  N   UNL     1       5.332   3.741  15.131  0.00  0.00    +0.000 NA
ATOM     10  C   UNL     1       4.868   3.992  16.358  0.00  0.00    +0.000 A 
ATOM     11  N   UNL     1       3.492   3.803  16.426  0.00  0.00    +0.000 N 
ATOM     12  C   UNL     1       5.625   4.583  17.389  0.00  0.00    +0.000 A 
ATOM     13  H   UNL     1       6.689   5.409  13.434  0.00  0.00    +0.000 HD
ATOM     14  H   UNL     1       5.970   3.968  13.067  0.00  0.00    +0.000 HD
ATOM     15  H   UNL     1       3.200   3.262  15.605  0.00  0.00    +0.000 HD
ATOM     16  H   UNL     1       3.169   3.427  17.305  0.00  0.00    +0.000 HD
ENDROOT
BRANCH   1  17
ATOM     17  S   UNL     1       3.574   4.573  19.369  0.00  0.00    +0.000 S 
BRANCH  17  21
ATOM     18  C   UNL     1       1.673   8.797  19.129  0.00  0.00    +0.000 A 
ATOM     19  C   UNL     1       1.571   8.009  20.299  0.00  0.00    +0.000 A 
ATOM     20  C   UNL     1       2.117   6.716  20.370  0.00  0.00    +0.000 A 
ATOM     21  C   UNL     1       2.785   6.170  19.276  0.00  0.00    +0.000 A 
ATOM     22  C   UNL     1       2.906   6.933  18.114  0.00  0.00    +0.000 A 
ATOM     23  C   UNL     1       2.359   8.220  18.044  0.00  0.00    +0.000 A 
BRANCH  18  24
ATOM     24  C   UNL     1       1.064  10.206  19.020  0.00  0.00    +0.000 C 
ATOM     25  C   UNL     1       0.729  10.844  20.390  0.00  0.00    +0.000 C 
ATOM     26  C   UNL     1      -0.281  10.099  18.254  0.00  0.00    +0.000 C 
BRANCH  24  28
ATOM     27  C   UNL     1       1.825  12.661  18.552  0.00  0.00    +0.000 C 
ATOM     28  C   UNL     1       1.979  11.182  18.217  0.00  0.00    +0.000 C 
ENDBRANCH  24  28
ENDBRANCH  18  24
ENDBRANCH  17  21
ENDBRANCH   1  17
TORSDOF 4
ENDMDL
MODEL 8
REMARK VINA RESULT:      -7.3      6.461      8.995
REMARK  Name = 
REMARK  7 active torsions:
REMARK  status: ('A' for Active; 'I' for Inactive)
REMARK    1  A    between atoms: C_1  and  C_2
REMARK    2  A    between atoms: C_2  and  C_3
REMARK    3  A    between atoms: C_3  and  C_4
REMARK    4  A    between atoms: C_3  and  C_5
REMARK    5  A    between atoms: C_3  and  C_6
REMARK    6  A    between atoms: C_9  and  S_10
REMARK    7  A    between atoms: S_10  and  C_11
REMARK                            x       y       z     vdW  Elec       q    Type
REMARK                         _______ _______ _______ _____ _____    ______ ____
ROOT
ATOM      1  C   UNL     1      -1.061  11.016  18.473  0.00  0.00    +0.000 A 
ATOM      2  C   UNL     1      -1.191  10.041  17.474  0.00  0.00    +0.000 A 
ATOM      3  C   UNL     1      -2.442   9.696  16.984  0.00  0.00    +0.000 A 
ATOM      4  C   UNL     1      -3.569  10.337  17.481  0.00  0.00    +0.000 A 
ATOM      5  C   UNL     1      -3.484  11.332  18.446  0.00  0.00    +0.000 A 
ATOM      6  N   UNL     1      -4.614  11.965  18.769  0.00  0.00    +0.000 NA
ATOM      7  C   UNL     1      -4.540  12.909  19.706  0.00  0.00    +0.000 A 
ATOM      8  N   UNL     1      -5.531  13.878  19.761  0.00  0.00    +0.000 N 
ATOM      9  N   UNL     1      -3.461  13.223  20.396  0.00  0.00    +0.000 NA
ATOM     10  C   UNL     1      -2.322  12.649  20.001  0.00  0.00    +0.000 A 
ATOM     11  N   UNL     1      -1.216  13.287  20.554  0.00  0.00    +0.000 N 
ATOM     12  C   UNL     1      -2.231  11.671  18.990  0.00  0.00    +0.000 A 
ATOM     13  H   UNL     1      -5.432  14.356  18.867  0.00  0.00    +0.000 HD
ATOM     14  H   UNL     1      -5.212  14.503  20.497  0.00  0.00    +0.000 HD
ATOM     15  H   UNL     1      -1.537  13.868  21.335  0.00  0.00    +0.000 HD
ATOM     16  H   UNL     1      -0.453  12.668  20.784  0.00  0.00    +0.000 HD
ENDROOT
BRANCH   1  17
ATOM     17  S   UNL     1       0.594  11.312  19.111  0.00  0.00    +0.000 S 
BRANCH  17  21
ATOM     18  C   UNL     1       2.195   6.963  19.308  0.00  0.00    +0.000 A 
ATOM     19  C   UNL     1       1.579   7.572  20.426  0.00  0.00    +0.000 A 
ATOM     20  C   UNL     1       1.119   8.899  20.385  0.00  0.00    +0.000 A 
ATOM     21  C   UNL     1       1.256   9.660  19.226  0.00  0.00    +0.000 A 
ATOM     22  C   UNL     1       1.853   9.076  18.107  0.00  0.00    +0.000 A 
ATOM     23  C   UNL     1       2.313   7.754  18.150  0.00  0.00    +0.000 A 
BRANCH  18  24
ATOM     24  C   UNL     1       2.726   5.519  19.337  0.00  0.00    +0.000 C 
ATOM     25  C   UNL     1       2.320   4.734  20.608  0.00  0.00    +0.000 C 
ATOM     26  C   UNL     1       4.277   5.570  19.340  0.00  0.00    +0.000 C 
BRANCH  24  28
ATOM     27  C   UNL     1       1.368   3.522  18.341  0.00  0.00    +0.000 C 
ATOM     28  C   UNL     1       2.290   4.707  18.079  0.00  0.00    +0.000 C 
ENDBRANCH  24  28
ENDBRANCH  18  24
ENDBRANCH  17  21
ENDBRANCH   1  17
TORSDOF 4
ENDMDL
MODEL 9
REMARK VINA RESULT:      -7.3      6.604      9.185
REMARK  Name = 
REMARK  7 active torsions:
REMARK  status: ('A' for Active; 'I' for Inactive)
REMARK    1  A    between atoms: C_1  and  C_2
REMARK    2  A    between atoms: C_2  and  C_3
REMARK    3  A    between atoms: C_3  and  C_4
REMARK    4  A    between atoms: C_3  and  C_5
REMARK    5  A    between atoms: C_3  and  C_6
REMARK    6  A    between atoms: C_9  and  S_10
REMARK    7  A    between atoms: S_10  and  C_11
REMARK                            x       y       z     vdW  Elec       q    Type
REMARK                         _______ _______ _______ _____ _____    ______ ____
ROOT
ATOM      1  C   UNL     1      -1.047  11.098  18.435  0.00  0.00    +0.000 A 
ATOM      2  C   UNL     1      -1.286  10.095  17.486  0.00  0.00    +0.000 A 
ATOM      3  C   UNL     1      -2.584   9.753  17.133  0.00  0.00    +0.000 A 
ATOM      4  C   UNL     1      -3.648  10.428  17.717  0.00  0.00    +0.000 A 
ATOM      5  C   UNL     1      -3.456  11.452  18.636  0.00  0.00    +0.000 A 
ATOM      6  N   UNL     1      -4.541  12.112  19.047  0.00  0.00    +0.000 NA
ATOM      7  C   UNL     1      -4.363  13.084  19.940  0.00  0.00    +0.000 A 
ATOM      8  N   UNL     1      -5.331  14.070  20.060  0.00  0.00    +0.000 N 
ATOM      9  N   UNL     1      -3.217  13.403  20.510  0.00  0.00    +0.000 NA
ATOM     10  C   UNL     1      -2.129  12.798  20.025  0.00  0.00    +0.000 A 
ATOM     11  N   UNL     1      -0.967  13.436  20.445  0.00  0.00    +0.000 N 
ATOM     12  C   UNL     1      -2.152  11.788  19.042  0.00  0.00    +0.000 A 
ATOM     13  H   UNL     1      -5.314  14.518  19.145  0.00  0.00    +0.000 HD
ATOM     14  H   UNL     1      -4.933  14.713  20.740  0.00  0.00    +0.000 HD
ATOM     15  H   UNL     1      -1.202  14.046  21.234  0.00  0.00    +0.000 HD
ATOM     16  H   UNL     1      -0.192  12.813  20.619  0.00  0.00    +0.000 HD
ENDROOT
BRANCH   1  17
ATOM     17  S   UNL     1       0.667  11.388  18.897  0.00  0.00    +0.000 S 
BRANCH  17  21
ATOM     18  C   UNL     1       2.142   7.022  19.418  0.00  0.00    +0.000 A 
ATOM     19  C   UNL     1       1.491   7.709  20.469  0.00  0.00    +0.000 A 
ATOM     20  C   UNL     1       1.069   9.042  20.330  0.00  0.00    +0.000 A 
ATOM     21  C   UNL     1       1.280   9.730  19.137  0.00  0.00    +0.000 A 
ATOM     22  C   UNL     1       1.912   9.069  18.084  0.00  0.00    +0.000 A 
ATOM     23  C   UNL     1       2.335   7.741  18.224  0.00  0.00    +0.000 A 
BRANCH  18  24
ATOM     24  C   UNL     1       2.634   5.570  19.554  0.00  0.00    +0.000 C 
ATOM     25  C   UNL     1       4.174   5.428  19.481  0.00  0.00    +0.000 C 
ATOM     26  C   UNL     1       2.069   4.749  18.366  0.00  0.00    +0.000 C 
BRANCH  24  28
ATOM     27  C   UNL     1       2.385   3.399  20.988  0.00  0.00    +0.000 C 
ATOM     28  C   UNL     1       2.126   4.897  20.867  0.00  0.00    +0.000 C 
ENDBRANCH  24  28
ENDBRANCH  18  24
ENDBRANCH  17  21
ENDBRANCH   1  17
TORSDOF 4
ENDMDL
