MODEL 1
REMARK VINA RESULT:      -7.2      0.000      0.000
REMARK  Name = 
REMARK  7 active torsions:
REMARK  status: ('A' for Active; 'I' for Inactive)
REMARK    1  A    between atoms: C_1  and  C_2
REMARK    2  A    between atoms: C_5  and  S_6
REMARK    3  A    between atoms: S_6  and  N_9
REMARK    4  A    between atoms: N_9  and  C_10
REMARK    5  A    between atoms: N_9  and  C_11
REMARK    6  A    between atoms: C_16  and  C_17
REMARK    7  A    between atoms: N_19  and  C_20
REMARK                            x       y       z     vdW  Elec       q    Type
REMARK                         _______ _______ _______ _____ _____    ______ ____
ROOT
ATOM      1  C   UNL     1       2.238   4.040  19.571  0.00  0.00    +0.000 A 
ATOM      2  C   UNL     1       1.583   4.177  20.803  0.00  0.00    +0.000 A 
ATOM      3  C   UNL     1       1.875   3.327  21.866  0.00  0.00    +0.000 A 
ATOM      4  C   UNL     1       2.768   2.278  21.685  0.00  0.00    +0.000 A 
ATOM      5  C   UNL     1       3.380   2.087  20.443  0.00  0.00    +0.000 A 
ATOM      6  C   UNL     1       3.149   2.980  19.377  0.00  0.00    +0.000 A 
ENDROOT
BRANCH   6   7
ATOM      7  C   UNL     1       3.998   2.767  18.157  0.00  0.00    +0.000 C 
ATOM      8  O   UNL     1       3.867   1.758  17.484  0.00  0.00    +0.000 OA
ATOM      9  N   UNL     1       4.962   3.726  17.916  0.00  0.00    +0.000 N 
ATOM     10  H   UNL     1       4.867   4.596  18.418  0.00  0.00    +0.000 HD
BRANCH   9  11
ATOM     11  C   UNL     1       5.798   3.725  16.737  0.00  0.00    +0.000 C 
ATOM     12  C   UNL     1       5.066   4.246  15.506  0.00  0.00    +0.000 C 
ATOM     13  C   UNL     1       6.185   4.635  14.550  0.00  0.00    +0.000 C 
ATOM     14  C   UNL     1       7.369   5.033  15.431  0.00  0.00    +0.000 C 
ATOM     15  C   UNL     1       6.971   4.695  16.865  0.00  0.00    +0.000 C 
ENDBRANCH   9  11
ENDBRANCH   6   7
BRANCH   1  16
ATOM     16  N   UNL     1       1.989   5.049  18.570  0.00  0.00    +0.000 N 
ATOM     17  C   UNL     1       1.365   4.581  17.315  0.00  0.00    +0.000 C 
BRANCH  16  18
ATOM     18  S   UNL     1       2.996   6.423  18.545  0.00  0.00    +0.000 S 
ATOM     19  O   UNL     1       3.465   6.618  17.189  0.00  0.00    +0.000 OA
ATOM     20  O   UNL     1       3.952   6.267  19.625  0.00  0.00    +0.000 OA
BRANCH  18  25
ATOM     21  C   UNL     1       0.501  11.728  20.151  0.00  0.00    +0.000 C 
ATOM     22  C   UNL     1       0.956  10.355  19.738  0.00  0.00    +0.000 A 
ATOM     23  C   UNL     1       1.064   9.306  20.662  0.00  0.00    +0.000 A 
ATOM     24  C   UNL     1       1.586   8.062  20.277  0.00  0.00    +0.000 A 
ATOM     25  C   UNL     1       1.984   7.848  18.950  0.00  0.00    +0.000 A 
ATOM     26  C   UNL     1       1.847   8.880  18.014  0.00  0.00    +0.000 A 
ATOM     27  C   UNL     1       1.343  10.126  18.410  0.00  0.00    +0.000 A 
ENDBRANCH  18  25
ENDBRANCH  16  18
ENDBRANCH   1  16
TORSDOF 5
ENDMDL
MODEL 2
REMARK VINA RESULT:      -7.2      2.693      5.695
REMARK  Name = 
REMARK  7 active torsions:
REMARK  status: ('A' for Active; 'I' for Inactive)
REMARK    1  A    between atoms: C_1  and  C_2
REMARK    2  A    between atoms: C_5  and  S_6
REMARK    3  A    between atoms: S_6  and  N_9
REMARK    4  A    between atoms: N_9  and  C_10
REMARK    5  A    between atoms: N_9  and  C_11
REMARK    6  A    between atoms: C_16  and  C_17
REMARK    7  A    between atoms: N_19  and  C_20
REMARK                            x       y       z     vdW  Elec       q    Type
REMARK                         _______ _______ _______ _____ _____    ______ ____
ROOT
ATOM      1  C   UNL     1       4.070   3.996  17.488  0.00  0.00    +0.000 A 
ATOM      2  C   UNL     1       3.841   2.677  17.072  0.00  0.00    +0.000 A 
ATOM      3  C   UNL     1       2.747   1.959  17.546  0.00  0.00    +0.000 A 
ATOM      4  C   UNL     1       1.913   2.523  18.504  0.00  0.00    +0.000 A 
ATOM      5  C   UNL     1       2.166   3.813  18.978  0.00  0.00    +0.000 A 
ATOM      6  C   UNL     1       3.227   4.581  18.457  0.00  0.00    +0.000 A 
ENDROOT
BRANCH   6   7
ATOM      7  C   UNL     1       3.284   6.007  18.920  0.00  0.00    +0.000 C 
ATOM      8  O   UNL     1       4.187   6.383  19.649  0.00  0.00    +0.000 OA
ATOM      9  N   UNL     1       2.226   6.809  18.542  0.00  0.00    +0.000 N 
ATOM     10  H   UNL     1       1.637   6.458  17.802  0.00  0.00    +0.000 HD
BRANCH   9  11
ATOM     11  C   UNL     1       2.170   8.226  18.821  0.00  0.00    +0.000 C 
ATOM     12  C   UNL     1       1.426   9.002  17.740  0.00  0.00    +0.000 C 
ATOM     13  C   UNL     1       1.043  10.308  18.424  0.00  0.00    +0.000 C 
ATOM     14  C   UNL     1       0.886   9.975  19.907  0.00  0.00    +0.000 C 
ATOM     15  C   UNL     1       1.353   8.532  20.076  0.00  0.00    +0.000 C 
ENDBRANCH   9  11
ENDBRANCH   6   7
BRANCH   1  16
ATOM     16  N   UNL     1       5.135   4.721  16.840  0.00  0.00    +0.000 N 
ATOM     17  C   UNL     1       5.014   4.886  15.376  0.00  0.00    +0.000 C 
BRANCH  16  18
ATOM     18  S   UNL     1       6.682   4.690  17.556  0.00  0.00    +0.000 S 
ATOM     19  O   UNL     1       7.635   4.250  16.558  0.00  0.00    +0.000 OA
ATOM     20  O   UNL     1       6.555   3.963  18.804  0.00  0.00    +0.000 OA
BRANCH  18  25
ATOM     21  C   UNL     1       8.923  10.298  18.238  0.00  0.00    +0.000 C 
ATOM     22  C   UNL     1       8.265   8.946  18.206  0.00  0.00    +0.000 A 
ATOM     23  C   UNL     1       8.697   7.898  19.032  0.00  0.00    +0.000 A 
ATOM     24  C   UNL     1       8.137   6.616  18.913  0.00  0.00    +0.000 A 
ATOM     25  C   UNL     1       7.120   6.377  17.980  0.00  0.00    +0.000 A 
ATOM     26  C   UNL     1       6.661   7.428  17.176  0.00  0.00    +0.000 A 
ATOM     27  C   UNL     1       7.236   8.700  17.286  0.00  0.00    +0.000 A 
ENDBRANCH  18  25
ENDBRANCH  16  18
ENDBRANCH   1  16
TORSDOF 5
ENDMDL
MODEL 3
REMARK VINA RESULT:      -6.8      1.921      6.617
REMARK  Name = 
REMARK  7 active torsions:
REMARK  status: ('A' for Active; 'I' for Inactive)
REMARK    1  A    between atoms: C_1  and  C_2
REMARK    2  A    between atoms: C_5  and  S_6
REMARK    3  A    between atoms: S_6  and  N_9
REMARK    4  A    between atoms: N_9  and  C_10
REMARK    5  A    between atoms: N_9  and  C_11
REMARK    6  A    between atoms: C_16  and  C_17
REMARK    7  A    between atoms: N_19  and  C_20
REMARK                            x       y       z     vdW  Elec       q    Type
REMARK                         _______ _______ _______ _____ _____    ______ ____
ROOT
ATOM      1  C   UNL     1       3.909   4.191  18.321  0.00  0.00    +0.000 A 
ATOM      2  C   UNL     1       3.874   2.932  17.705  0.00  0.00    +0.000 A 
ATOM      3  C   UNL     1       2.681   2.223  17.598  0.00  0.00    +0.000 A 
ATOM      4  C   UNL     1       1.523   2.728  18.176  0.00  0.00    +0.000 A 
ATOM      5  C   UNL     1       1.556   3.951  18.851  0.00  0.00    +0.000 A 
ATOM      6  C   UNL     1       2.739   4.715  18.909  0.00  0.00    +0.000 A 
ENDROOT
BRANCH   6   7
ATOM      7  C   UNL     1       2.598   6.085  19.507  0.00  0.00    +0.000 C 
ATOM      8  O   UNL     1       2.759   6.253  20.705  0.00  0.00    +0.000 OA
ATOM      9  N   UNL     1       2.202   7.085  18.643  0.00  0.00    +0.000 N 
ATOM     10  H   UNL     1       2.271   6.883  17.657  0.00  0.00    +0.000 HD
BRANCH   9  11
ATOM     11  C   UNL     1       2.110   8.474  19.033  0.00  0.00    +0.000 C 
ATOM     12  C   UNL     1       1.739   9.382  17.866  0.00  0.00    +0.000 C 
ATOM     13  C   UNL     1       1.213  10.645  18.535  0.00  0.00    +0.000 C 
ATOM     14  C   UNL     1       0.619  10.196  19.869  0.00  0.00    +0.000 C 
ATOM     15  C   UNL     1       0.972   8.719  20.022  0.00  0.00    +0.000 C 
ENDBRANCH   9  11
ENDBRANCH   6   7
BRANCH   1  16
ATOM     16  N   UNL     1       5.150   4.925  18.260  0.00  0.00    +0.000 N 
ATOM     17  C   UNL     1       5.812   5.191  19.554  0.00  0.00    +0.000 C 
BRANCH  16  18
ATOM     18  S   UNL     1       5.385   6.001  16.959  0.00  0.00    +0.000 S 
ATOM     19  O   UNL     1       6.478   6.890  17.298  0.00  0.00    +0.000 OA
ATOM     20  O   UNL     1       4.085   6.548  16.622  0.00  0.00    +0.000 OA
BRANCH  18  25
ATOM     21  C   UNL     1       6.953   3.607  11.597  0.00  0.00    +0.000 C 
ATOM     22  C   UNL     1       6.598   4.042  12.992  0.00  0.00    +0.000 A 
ATOM     23  C   UNL     1       5.325   3.812  13.535  0.00  0.00    +0.000 A 
ATOM     24  C   UNL     1       4.983   4.315  14.799  0.00  0.00    +0.000 A 
ATOM     25  C   UNL     1       5.924   5.037  15.545  0.00  0.00    +0.000 A 
ATOM     26  C   UNL     1       7.207   5.242  15.025  0.00  0.00    +0.000 A 
ATOM     27  C   UNL     1       7.536   4.752  13.754  0.00  0.00    +0.000 A 
ENDBRANCH  18  25
ENDBRANCH  16  18
ENDBRANCH   1  16
TORSDOF 5
ENDMDL
MODEL 4
REMARK VINA RESULT:      -6.8      1.920      6.999
REMARK  Name = 
REMARK  7 active torsions:
REMARK  status: ('A' for Active; 'I' for Inactive)
REMARK    1  A    between atoms: C_1  and  C_2
REMARK    2  A    between atoms: C_5  and  S_6
REMARK    3  A    between atoms: S_6  and  N_9
REMARK    4  A    between atoms: N_9  and  C_10
REMARK    5  A    between atoms: N_9  and  C_11
REMARK    6  A    between atoms: C_16  and  C_17
REMARK    7  A    between atoms: N_19  and  C_20
REMARK                            x       y       z     vdW  Elec       q    Type
REMARK                         _______ _______ _______ _____ _____    ______ ____
ROOT
ATOM      1  C   UNL     1       3.221   5.160  19.137  0.00  0.00    +0.000 A 
ATOM      2  C   UNL     1       3.239   3.764  19.007  0.00  0.00    +0.000 A 
ATOM      3  C   UNL     1       2.241   2.981  19.579  0.00  0.00    +0.000 A 
ATOM      4  C   UNL     1       1.256   3.577  20.356  0.00  0.00    +0.000 A 
ATOM      5  C   UNL     1       1.261   4.961  20.550  0.00  0.00    +0.000 A 
ATOM      6  C   UNL     1       2.223   5.777  19.921  0.00  0.00    +0.000 A 
ENDROOT
BRANCH   6   7
ATOM      7  C   UNL     1       2.015   7.256  20.067  0.00  0.00    +0.000 C 
ATOM      8  O   UNL     1       2.422   8.023  19.211  0.00  0.00    +0.000 OA
ATOM      9  N   UNL     1       1.425   7.671  21.245  0.00  0.00    +0.000 N 
ATOM     10  H   UNL     1       0.968   6.959  21.795  0.00  0.00    +0.000 HD
BRANCH   9  11
ATOM     11  C   UNL     1       1.066   9.046  21.505  0.00  0.00    +0.000 C 
ATOM     12  C   UNL     1      -0.020   9.552  20.562  0.00  0.00    +0.000 C 
ATOM     13  C   UNL     1      -0.595  10.765  21.281  0.00  0.00    +0.000 C 
ATOM     14  C   UNL     1      -0.411  10.495  22.774  0.00  0.00    +0.000 C 
ATOM     15  C   UNL     1       0.423   9.221  22.881  0.00  0.00    +0.000 C 
ENDBRANCH   9  11
ENDBRANCH   6   7
BRANCH   1  16
ATOM     16  N   UNL     1       4.204   5.909  18.393  0.00  0.00    +0.000 N 
ATOM     17  C   UNL     1       3.705   6.646  17.214  0.00  0.00    +0.000 C 
BRANCH  16  18
ATOM     18  S   UNL     1       5.820   5.367  18.422  0.00  0.00    +0.000 S 
ATOM     19  O   UNL     1       5.919   4.286  19.381  0.00  0.00    +0.000 OA
ATOM     20  O   UNL     1       6.658   6.542  18.567  0.00  0.00    +0.000 OA
BRANCH  18  25
ATOM     21  C   UNL     1       6.337   3.686  12.604  0.00  0.00    +0.000 C 
ATOM     22  C   UNL     1       6.317   3.971  14.081  0.00  0.00    +0.000 A 
ATOM     23  C   UNL     1       5.465   3.278  14.953  0.00  0.00    +0.000 A 
ATOM     24  C   UNL     1       5.389   3.628  16.309  0.00  0.00    +0.000 A 
ATOM     25  C   UNL     1       6.187   4.664  16.813  0.00  0.00    +0.000 A 
ATOM     26  C   UNL     1       7.065   5.338  15.955  0.00  0.00    +0.000 A 
ATOM     27  C   UNL     1       7.122   4.995  14.597  0.00  0.00    +0.000 A 
ENDBRANCH  18  25
ENDBRANCH  16  18
ENDBRANCH   1  16
TORSDOF 5
ENDMDL
MODEL 5
REMARK VINA RESULT:      -6.7      1.943      6.674
REMARK  Name = 
REMARK  7 active torsions:
REMARK  status: ('A' for Active; 'I' for Inactive)
REMARK    1  A    between atoms: C_1  and  C_2
REMARK    2  A    between atoms: C_5  and  S_6
REMARK    3  A    between atoms: S_6  and  N_9
REMARK    4  A    between atoms: N_9  and  C_10
REMARK    5  A    between atoms: N_9  and  C_11
REMARK    6  A    between atoms: C_16  and  C_17
REMARK    7  A    between atoms: N_19  and  C_20
REMARK                            x       y       z     vdW  Elec       q    Type
REMARK                         _______ _______ _______ _____ _____    ______ ____
ROOT
ATOM      1  C   UNL     1       2.928   4.376  18.690  0.00  0.00    +0.000 A 
ATOM      2  C   UNL     1       2.810   3.303  17.795  0.00  0.00    +0.000 A 
ATOM      3  C   UNL     1       1.725   2.435  17.861  0.00  0.00    +0.000 A 
ATOM      4  C   UNL     1       0.785   2.580  18.874  0.00  0.00    +0.000 A 
ATOM      5  C   UNL     1       0.923   3.604  19.814  0.00  0.00    +0.000 A 
ATOM      6  C   UNL     1       1.978   4.536  19.720  0.00  0.00    +0.000 A 
ENDROOT
BRANCH   6   7
ATOM      7  C   UNL     1       1.914   5.686  20.682  0.00  0.00    +0.000 C 
ATOM      8  O   UNL     1       2.315   5.554  21.827  0.00  0.00    +0.000 OA
ATOM      9  N   UNL     1       1.311   6.835  20.213  0.00  0.00    +0.000 N 
ATOM     10  H   UNL     1       1.182   6.901  19.214  0.00  0.00    +0.000 HD
BRANCH   9  11
ATOM     11  C   UNL     1       1.252   8.063  20.973  0.00  0.00    +0.000 C 
ATOM     12  C   UNL     1       1.195   9.297  20.081  0.00  0.00    +0.000 C 
ATOM     13  C   UNL     1       0.646  10.386  20.993  0.00  0.00    +0.000 C 
ATOM     14  C   UNL     1      -0.238   9.670  22.014  0.00  0.00    +0.000 C 
ATOM     15  C   UNL     1      -0.040   8.175  21.782  0.00  0.00    +0.000 C 
ENDBRANCH   9  11
ENDBRANCH   6   7
BRANCH   1  16
ATOM     16  N   UNL     1       3.999   5.316  18.462  0.00  0.00    +0.000 N 
ATOM     17  C   UNL     1       3.699   6.436  17.547  0.00  0.00    +0.000 C 
BRANCH  16  18
ATOM     18  S   UNL     1       5.603   4.758  18.609  0.00  0.00    +0.000 S 
ATOM     19  O   UNL     1       5.577   3.466  19.262  0.00  0.00    +0.000 OA
ATOM     20  O   UNL     1       6.377   5.842  19.182  0.00  0.00    +0.000 OA
BRANCH  18  25
ATOM     21  C   UNL     1       7.076   4.620  12.714  0.00  0.00    +0.000 C 
ATOM     22  C   UNL     1       6.816   4.516  14.191  0.00  0.00    +0.000 A 
ATOM     23  C   UNL     1       5.858   3.634  14.710  0.00  0.00    +0.000 A 
ATOM     24  C   UNL     1       5.560   3.626  16.082  0.00  0.00    +0.000 A 
ATOM     25  C   UNL     1       6.239   4.487  16.953  0.00  0.00    +0.000 A 
ATOM     26  C   UNL     1       7.221   5.346  16.447  0.00  0.00    +0.000 A 
ATOM     27  C   UNL     1       7.501   5.363  15.074  0.00  0.00    +0.000 A 
ENDBRANCH  18  25
ENDBRANCH  16  18
ENDBRANCH   1  16
TORSDOF 5
ENDMDL
MODEL 6
REMARK VINA RESULT:      -6.6      4.681      9.884
REMARK  Name = 
REMARK  7 active torsions:
REMARK  status: ('A' for Active; 'I' for Inactive)
REMARK    1  A    between atoms: C_1  and  C_2
REMARK    2  A    between atoms: C_5  and  S_6
REMARK    3  A    between atoms: S_6  and  N_9
REMARK    4  A    between atoms: N_9  and  C_10
REMARK    5  A    between atoms: N_9  and  C_11
REMARK    6  A    between atoms: C_16  and  C_17
REMARK    7  A    between atoms: N_19  and  C_20
REMARK                            x       y       z     vdW  Elec       q    Type
REMARK                         _______ _______ _______ _____ _____    ______ ____
ROOT
ATOM      1  C   UNL     1      -1.033  10.879  18.748  0.00  0.00    +0.000 A 
ATOM      2  C   UNL     1      -1.019  10.038  17.626  0.00  0.00    +0.000 A 
ATOM      3  C   UNL     1      -2.112   9.976  16.767  0.00  0.00    +0.000 A 
ATOM      4  C   UNL     1      -3.265  10.693  17.064  0.00  0.00    +0.000 A 
ATOM      5  C   UNL     1      -3.319  11.485  18.214  0.00  0.00    +0.000 A 
ATOM      6  C   UNL     1      -2.196  11.615  19.057  0.00  0.00    +0.000 A 
ENDROOT
BRANCH   6   7
ATOM      7  C   UNL     1      -2.325  12.628  20.157  0.00  0.00    +0.000 C 
ATOM      8  O   UNL     1      -1.813  13.729  20.043  0.00  0.00    +0.000 OA
ATOM      9  N   UNL     1      -2.970  12.201  21.300  0.00  0.00    +0.000 N 
ATOM     10  H   UNL     1      -3.506  11.350  21.224  0.00  0.00    +0.000 HD
BRANCH   9  11
ATOM     11  C   UNL     1      -3.263  13.075  22.414  0.00  0.00    +0.000 C 
ATOM     12  C   UNL     1      -4.676  13.644  22.349  0.00  0.00    +0.000 C 
ATOM     13  C   UNL     1      -4.958  14.090  23.778  0.00  0.00    +0.000 C 
ATOM     14  C   UNL     1      -4.137  13.165  24.676  0.00  0.00    +0.000 C 
ATOM     15  C   UNL     1      -3.265  12.326  23.746  0.00  0.00    +0.000 C 
ENDBRANCH   9  11
ENDBRANCH   6   7
BRANCH   1  16
ATOM     16  N   UNL     1       0.191  11.000  19.502  0.00  0.00    +0.000 N 
ATOM     17  C   UNL     1       1.314  11.673  18.817  0.00  0.00    +0.000 C 
BRANCH  16  18
ATOM     18  S   UNL     1       0.517   9.831  20.698  0.00  0.00    +0.000 S 
ATOM     19  O   UNL     1      -0.731   9.193  21.063  0.00  0.00    +0.000 OA
ATOM     20  O   UNL     1       1.322  10.480  21.716  0.00  0.00    +0.000 OA
BRANCH  18  25
ATOM     21  C   UNL     1       3.080   5.153  17.784  0.00  0.00    +0.000 C 
ATOM     22  C   UNL     1       2.604   6.343  18.570  0.00  0.00    +0.000 A 
ATOM     23  C   UNL     1       2.264   6.242  19.927  0.00  0.00    +0.000 A 
ATOM     24  C   UNL     1       1.726   7.340  20.615  0.00  0.00    +0.000 A 
ATOM     25  C   UNL     1       1.546   8.563  19.955  0.00  0.00    +0.000 A 
ATOM     26  C   UNL     1       1.916   8.681  18.610  0.00  0.00    +0.000 A 
ATOM     27  C   UNL     1       2.434   7.575  17.923  0.00  0.00    +0.000 A 
ENDBRANCH  18  25
ENDBRANCH  16  18
ENDBRANCH   1  16
TORSDOF 5
ENDMDL
MODEL 7
REMARK VINA RESULT:      -6.6      0.861      1.279
REMARK  Name = 
REMARK  7 active torsions:
REMARK  status: ('A' for Active; 'I' for Inactive)
REMARK    1  A    between atoms: C_1  and  C_2
REMARK    2  A    between atoms: C_5  and  S_6
REMARK    3  A    between atoms: S_6  and  N_9
REMARK    4  A    between atoms: N_9  and  C_10
REMARK    5  A    between atoms: N_9  and  C_11
REMARK    6  A    between atoms: C_16  and  C_17
REMARK    7  A    between atoms: N_19  and  C_20
REMARK                            x       y       z     vdW  Elec       q    Type
REMARK                         _______ _______ _______ _____ _____    ______ ____
ROOT
ATOM      1  C   UNL     1       2.202   4.157  19.543  0.00  0.00    +0.000 A 
ATOM      2  C   UNL     1       1.156   3.977  20.460  0.00  0.00    +0.000 A 
ATOM      3  C   UNL     1       1.290   3.100  21.532  0.00  0.00    +0.000 A 
ATOM      4  C   UNL     1       2.440   2.331  21.656  0.00  0.00    +0.000 A 
ATOM      5  C   UNL     1       3.465   2.449  20.713  0.00  0.00    +0.000 A 
ATOM      6  C   UNL     1       3.376   3.383  19.661  0.00  0.00    +0.000 A 
ENDROOT
BRANCH   6   7
ATOM      7  C   UNL     1       4.613   3.536  18.823  0.00  0.00    +0.000 C 
ATOM      8  O   UNL     1       5.708   3.632  19.353  0.00  0.00    +0.000 OA
ATOM      9  N   UNL     1       4.412   3.644  17.462  0.00  0.00    +0.000 N 
ATOM     10  H   UNL     1       3.503   3.374  17.118  0.00  0.00    +0.000 HD
BRANCH   9  11
ATOM     11  C   UNL     1       5.495   3.700  16.506  0.00  0.00    +0.000 C 
ATOM     12  C   UNL     1       5.012   4.038  15.101  0.00  0.00    +0.000 C 
ATOM     13  C   UNL     1       6.265   4.535  14.391  0.00  0.00    +0.000 C 
ATOM     14  C   UNL     1       7.146   5.152  15.478  0.00  0.00    +0.000 C 
ATOM     15  C   UNL     1       6.468   4.840  16.809  0.00  0.00    +0.000 C 
ENDBRANCH   9  11
ENDBRANCH   6   7
BRANCH   1  16
ATOM     16  N   UNL     1       2.043   5.190  18.549  0.00  0.00    +0.000 N 
ATOM     17  C   UNL     1       1.433   4.774  17.270  0.00  0.00    +0.000 C 
BRANCH  16  18
ATOM     18  S   UNL     1       3.129   6.503  18.573  0.00  0.00    +0.000 S 
ATOM     19  O   UNL     1       3.656   6.681  17.235  0.00  0.00    +0.000 OA
ATOM     20  O   UNL     1       4.036   6.283  19.683  0.00  0.00    +0.000 OA
BRANCH  18  25
ATOM     21  C   UNL     1      -0.920  10.890  19.713  0.00  0.00    +0.000 C 
ATOM     22  C   UNL     1       0.205   9.928  19.446  0.00  0.00    +0.000 A 
ATOM     23  C   UNL     1       0.763   9.784  18.168  0.00  0.00    +0.000 A 
ATOM     24  C   UNL     1       1.741   8.809  17.919  0.00  0.00    +0.000 A 
ATOM     25  C   UNL     1       2.188   7.982  18.957  0.00  0.00    +0.000 A 
ATOM     26  C   UNL     1       1.660   8.143  20.244  0.00  0.00    +0.000 A 
ATOM     27  C   UNL     1       0.670   9.105  20.482  0.00  0.00    +0.000 A 
ENDBRANCH  18  25
ENDBRANCH  16  18
ENDBRANCH   1  16
TORSDOF 5
ENDMDL
MODEL 8
REMARK VINA RESULT:      -6.6      1.508      1.764
REMARK  Name = 
REMARK  7 active torsions:
REMARK  status: ('A' for Active; 'I' for Inactive)
REMARK    1  A    between atoms: C_1  and  C_2
REMARK    2  A    between atoms: C_5  and  S_6
REMARK    3  A    between atoms: S_6  and  N_9
REMARK    4  A    between atoms: N_9  and  C_10
REMARK    5  A    between atoms: N_9  and  C_11
REMARK    6  A    between atoms: C_16  and  C_17
REMARK    7  A    between atoms: N_19  and  C_20
REMARK                            x       y       z     vdW  Elec       q    Type
REMARK                         _______ _______ _______ _____ _____    ______ ____
ROOT
ATOM      1  C   UNL     1       2.090   4.245  19.678  0.00  0.00    +0.000 A 
ATOM      2  C   UNL     1       1.133   3.885  20.637  0.00  0.00    +0.000 A 
ATOM      3  C   UNL     1       1.412   2.915  21.595  0.00  0.00    +0.000 A 
ATOM      4  C   UNL     1       2.623   2.234  21.556  0.00  0.00    +0.000 A 
ATOM      5  C   UNL     1       3.562   2.535  20.565  0.00  0.00    +0.000 A 
ATOM      6  C   UNL     1       3.324   3.563  19.631  0.00  0.00    +0.000 A 
ENDROOT
BRANCH   6   7
ATOM      7  C   UNL     1       4.479   3.904  18.734  0.00  0.00    +0.000 C 
ATOM      8  O   UNL     1       4.557   3.418  17.618  0.00  0.00    +0.000 OA
ATOM      9  N   UNL     1       5.453   4.713  19.283  0.00  0.00    +0.000 N 
ATOM     10  H   UNL     1       5.209   5.201  20.132  0.00  0.00    +0.000 HD
BRANCH   9  11
ATOM     11  C   UNL     1       6.581   5.214  18.529  0.00  0.00    +0.000 C 
ATOM     12  C   UNL     1       6.182   6.313  17.551  0.00  0.00    +0.000 C 
ATOM     13  C   UNL     1       7.493   7.027  17.247  0.00  0.00    +0.000 C 
ATOM     14  C   UNL     1       8.357   6.866  18.498  0.00  0.00    +0.000 C 
ATOM     15  C   UNL     1       7.603   5.915  19.423  0.00  0.00    +0.000 C 
ENDBRANCH   9  11
ENDBRANCH   6   7
BRANCH   1  16
ATOM     16  N   UNL     1       1.779   5.360  18.816  0.00  0.00    +0.000 N 
ATOM     17  C   UNL     1       1.309   5.020  17.457  0.00  0.00    +0.000 C 
BRANCH  16  18
ATOM     18  S   UNL     1       2.598   6.831  19.078  0.00  0.00    +0.000 S 
ATOM     19  O   UNL     1       2.971   7.379  17.790  0.00  0.00    +0.000 OA
ATOM     20  O   UNL     1       3.617   6.577  20.078  0.00  0.00    +0.000 OA
BRANCH  18  25
ATOM     21  C   UNL     1      -0.483  11.244  21.904  0.00  0.00    +0.000 C 
ATOM     22  C   UNL     1       0.125  10.078  21.174  0.00  0.00    +0.000 A 
ATOM     23  C   UNL     1       0.377   8.857  21.816  0.00  0.00    +0.000 A 
ATOM     24  C   UNL     1       1.037   7.817  21.143  0.00  0.00    +0.000 A 
ATOM     25  C   UNL     1       1.430   7.981  19.809  0.00  0.00    +0.000 A 
ATOM     26  C   UNL     1       1.151   9.185  19.151  0.00  0.00    +0.000 A 
ATOM     27  C   UNL     1       0.508  10.227  19.834  0.00  0.00    +0.000 A 
ENDBRANCH  18  25
ENDBRANCH  16  18
ENDBRANCH   1  16
TORSDOF 5
ENDMDL
MODEL 9
REMARK VINA RESULT:      -6.6      1.444      6.109
REMARK  Name = 
REMARK  7 active torsions:
REMARK  status: ('A' for Active; 'I' for Inactive)
REMARK    1  A    between atoms: C_1  and  C_2
REMARK    2  A    between atoms: C_5  and  S_6
REMARK    3  A    between atoms: S_6  and  N_9
REMARK    4  A    between atoms: N_9  and  C_10
REMARK    5  A    between atoms: N_9  and  C_11
REMARK    6  A    between atoms: C_16  and  C_17
REMARK    7  A    between atoms: N_19  and  C_20
REMARK                            x       y       z     vdW  Elec       q    Type
REMARK                         _______ _______ _______ _____ _____    ______ ____
ROOT
ATOM      1  C   UNL     1       3.468   3.600  19.493  0.00  0.00    +0.000 A 
ATOM      2  C   UNL     1       3.750   2.541  20.368  0.00  0.00    +0.000 A 
ATOM      3  C   UNL     1       3.016   2.367  21.538  0.00  0.00    +0.000 A 
ATOM      4  C   UNL     1       2.045   3.297  21.888  0.00  0.00    +0.000 A 
ATOM      5  C   UNL     1       1.797   4.395  21.060  0.00  0.00    +0.000 A 
ATOM      6  C   UNL     1       2.482   4.549  19.837  0.00  0.00    +0.000 A 
ENDROOT
BRANCH   6   7
ATOM      7  C   UNL     1       2.002   5.669  18.961  0.00  0.00    +0.000 C 
ATOM      8  O   UNL     1       1.681   5.452  17.804  0.00  0.00    +0.000 OA
ATOM      9  N   UNL     1       2.033   6.931  19.521  0.00  0.00    +0.000 N 
ATOM     10  H   UNL     1       2.139   6.977  20.523  0.00  0.00    +0.000 HD
BRANCH   9  11
ATOM     11  C   UNL     1       1.518   8.104  18.851  0.00  0.00    +0.000 C 
ATOM     12  C   UNL     1       1.135   9.209  19.828  0.00  0.00    +0.000 C 
ATOM     13  C   UNL     1       1.110  10.467  18.970  0.00  0.00    +0.000 C 
ATOM     14  C   UNL     1       2.124  10.229  17.850  0.00  0.00    +0.000 C 
ATOM     15  C   UNL     1       2.578   8.779  17.981  0.00  0.00    +0.000 C 
ENDBRANCH   9  11
ENDBRANCH   6   7
BRANCH   1  16
ATOM     16  N   UNL     1       4.171   3.625  18.234  0.00  0.00    +0.000 N 
ATOM     17  C   UNL     1       4.169   2.365  17.462  0.00  0.00    +0.000 C 
BRANCH  16  18
ATOM     18  S   UNL     1       5.470   4.714  18.059  0.00  0.00    +0.000 S 
ATOM     19  O   UNL     1       6.633   4.142  18.707  0.00  0.00    +0.000 OA
ATOM     20  O   UNL     1       4.986   6.020  18.464  0.00  0.00    +0.000 OA
BRANCH  18  25
ATOM     21  C   UNL     1       6.983   4.036  12.211  0.00  0.00    +0.000 C 
ATOM     22  C   UNL     1       6.598   4.375  13.625  0.00  0.00    +0.000 A 
ATOM     23  C   UNL     1       7.547   4.801  14.565  0.00  0.00    +0.000 A 
ATOM     24  C   UNL     1       7.184   5.014  15.903  0.00  0.00    +0.000 A 
ATOM     25  C   UNL     1       5.857   4.825  16.310  0.00  0.00    +0.000 A 
ATOM     26  C   UNL     1       4.897   4.432  15.370  0.00  0.00    +0.000 A 
ATOM     27  C   UNL     1       5.269   4.202  14.039  0.00  0.00    +0.000 A 
ENDBRANCH  18  25
ENDBRANCH  16  18
ENDBRANCH   1  16
TORSDOF 5
ENDMDL
