MODEL 1
REMARK VINA RESULT:      -7.8      0.000      0.000
REMARK  Name = 
REMARK  7 active torsions:
REMARK  status: ('A' for Active; 'I' for Inactive)
REMARK    1  A    between atoms: CB_1  and  CA_2
REMARK    2  A    between atoms: CA_2  and  N_3
REMARK    3  A    between atoms: CA_2  and  C_22
REMARK    4  A    between atoms: N_3  and  C_4
REMARK    5  A    between atoms: C_4  and  C_5
REMARK    6  A    between atoms: N_7  and  C_8
REMARK    7  A    between atoms: C_22  and  OXT_24
REMARK                            x       y       z     vdW  Elec       q    Type
REMARK                         _______ _______ _______ _____ _____    ______ ____
ROOT
ATOM      1  C   UNK A   0       3.673   5.827  17.994  0.00  0.00    +0.000 A 
ATOM      2  C   UNK A   0       3.091   4.659  18.522  0.00  0.00    +0.000 A 
ATOM      3  C   UNK A   0       3.947   3.736  19.123  0.00  0.00    +0.000 A 
ATOM      4  N   UNK A   0       5.289   3.902  19.179  0.00  0.00    +0.000 NA
ATOM      5  C   UNK A   0       5.838   4.990  18.628  0.00  0.00    +0.000 A 
ATOM      6  C   UNK A   0       7.218   5.131  18.723  0.00  0.00    +0.000 A 
ATOM      7  C   UNK A   0       7.886   6.241  18.207  0.00  0.00    +0.000 A 
ATOM      8  C   UNK A   0       7.165   7.237  17.569  0.00  0.00    +0.000 A 
ATOM      9  C   UNK A   0       5.777   7.121  17.464  0.00  0.00    +0.000 A 
ATOM     10  C   UNK A   0       5.086   6.000  17.995  0.00  0.00    +0.000 A 
ATOM     11  C   UNK A   0       3.423   2.527  19.860  0.00  0.00    +0.000 C 
ATOM     12  C   UNK A   0       1.959   2.186  19.592  0.00  0.00    +0.000 C 
ATOM     13  C   UNK A   0       1.115   3.447  19.490  0.00  0.00    +0.000 C 
ATOM     14  C   UNK A   0       1.634   4.301  18.339  0.00  0.00    +0.000 C 
ENDROOT
BRANCH   1  17
ATOM     15  C   UNK A   0       2.230   7.755  18.358  0.00  0.00    +0.000 C 
ATOM     16  O   UNK A   0       2.373   7.775  19.579  0.00  0.00    +0.000 OA
ATOM     17  N   UNK A   0       2.842   6.861  17.485  0.00  0.00    +0.000 N 
ATOM     18  H   UNK A   0       3.100   7.261  16.593  0.00  0.00    +0.000 HD
BRANCH  15  19
ATOM     19  C   UNK A   0       1.334   8.781  17.665  0.00  0.00    +0.000 C 
BRANCH  19  20
ATOM     20  N   ALA A   1       2.022  10.093  17.675  0.00  0.00    +0.000 NA
ATOM     21  H   ALA A   1       3.002   9.900  17.924  0.00  0.00    +0.000 HD
BRANCH  20  23
ATOM     22  CB  ALA A   1      -0.056  11.100  18.754  0.00  0.00    +0.000 C 
ATOM     23  CA  ALA A   1       1.466  11.034  18.693  0.00  0.00    +0.000 C 
BRANCH  23  24
ATOM     24  C   ALA A   1       2.111  12.418  18.505  0.00  0.00    +0.000 C 
ATOM     25  O   ALA A   1       2.253  13.268  19.370  0.00  0.00    +0.000 OA
BRANCH  24  26
ATOM     26  OXT ALA A   1       2.551  12.578  17.225  0.00  0.00    +0.000 OA
ATOM     27  HXT ALA A   1       2.520  11.681  16.812  0.00  0.00    +0.000 HD
ENDBRANCH  24  26
ENDBRANCH  23  24
ENDBRANCH  20  23
ENDBRANCH  19  20
ENDBRANCH  15  19
ENDBRANCH   1  17
TORSDOF 6
ENDMDL
MODEL 2
REMARK VINA RESULT:      -7.6      1.554      1.758
REMARK  Name = 
REMARK  7 active torsions:
REMARK  status: ('A' for Active; 'I' for Inactive)
REMARK    1  A    between atoms: CB_1  and  CA_2
REMARK    2  A    between atoms: CA_2  and  N_3
REMARK    3  A    between atoms: CA_2  and  C_22
REMARK    4  A    between atoms: N_3  and  C_4
REMARK    5  A    between atoms: C_4  and  C_5
REMARK    6  A    between atoms: N_7  and  C_8
REMARK    7  A    between atoms: C_22  and  OXT_24
REMARK                            x       y       z     vdW  Elec       q    Type
REMARK                         _______ _______ _______ _____ _____    ______ ____
ROOT
ATOM      1  C   UNK A   0       3.676   5.836  17.973  0.00  0.00    +0.000 A 
ATOM      2  C   UNK A   0       3.082   4.645  18.433  0.00  0.00    +0.000 A 
ATOM      3  C   UNK A   0       3.931   3.670  18.957  0.00  0.00    +0.000 A 
ATOM      4  N   UNK A   0       5.276   3.809  19.001  0.00  0.00    +0.000 NA
ATOM      5  C   UNK A   0       5.836   4.921  18.512  0.00  0.00    +0.000 A 
ATOM      6  C   UNK A   0       7.219   5.031  18.592  0.00  0.00    +0.000 A 
ATOM      7  C   UNK A   0       7.900   6.161  18.138  0.00  0.00    +0.000 A 
ATOM      8  C   UNK A   0       7.186   7.210  17.579  0.00  0.00    +0.000 A 
ATOM      9  C   UNK A   0       5.795   7.125  17.492  0.00  0.00    +0.000 A 
ATOM     10  C   UNK A   0       5.092   5.983  17.960  0.00  0.00    +0.000 A 
ATOM     11  C   UNK A   0       3.397   2.425  19.623  0.00  0.00    +0.000 C 
ATOM     12  C   UNK A   0       1.923   2.127  19.359  0.00  0.00    +0.000 C 
ATOM     13  C   UNK A   0       1.101   3.407  19.355  0.00  0.00    +0.000 C 
ATOM     14  C   UNK A   0       1.616   4.325  18.254  0.00  0.00    +0.000 C 
ENDROOT
BRANCH   1  17
ATOM     15  C   UNK A   0       2.272   7.758  18.488  0.00  0.00    +0.000 C 
ATOM     16  O   UNK A   0       2.434   7.694  19.705  0.00  0.00    +0.000 OA
ATOM     17  N   UNK A   0       2.857   6.915  17.548  0.00  0.00    +0.000 N 
ATOM     18  H   UNK A   0       3.109   7.370  16.681  0.00  0.00    +0.000 HD
BRANCH  15  19
ATOM     19  C   UNK A   0       1.385   8.843  17.880  0.00  0.00    +0.000 C 
BRANCH  19  20
ATOM     20  N   ALA A   1       1.347   9.998  18.806  0.00  0.00    +0.000 NA
ATOM     21  H   ALA A   1       2.096   9.837  19.495  0.00  0.00    +0.000 HD
BRANCH  20  23
ATOM     22  CB  ALA A   1      -0.811  11.303  19.171  0.00  0.00    +0.000 C 
ATOM     23  CA  ALA A   1       0.056  10.107  19.548  0.00  0.00    +0.000 C 
BRANCH  23  24
ATOM     24  C   ALA A   1       0.335  10.032  21.060  0.00  0.00    +0.000 C 
ATOM     25  O   ALA A   1       0.581  10.977  21.793  0.00  0.00    +0.000 OA
BRANCH  24  26
ATOM     26  OXT ALA A   1       0.240   8.748  21.506  0.00  0.00    +0.000 OA
ATOM     27  HXT ALA A   1      -0.572   8.714  22.067  0.00  0.00    +0.000 HD
ENDBRANCH  24  26
ENDBRANCH  23  24
ENDBRANCH  20  23
ENDBRANCH  19  20
ENDBRANCH  15  19
ENDBRANCH   1  17
TORSDOF 6
ENDMDL
MODEL 3
REMARK VINA RESULT:      -7.4      1.932      4.048
REMARK  Name = 
REMARK  7 active torsions:
REMARK  status: ('A' for Active; 'I' for Inactive)
REMARK    1  A    between atoms: CB_1  and  CA_2
REMARK    2  A    between atoms: CA_2  and  N_3
REMARK    3  A    between atoms: CA_2  and  C_22
REMARK    4  A    between atoms: N_3  and  C_4
REMARK    5  A    between atoms: C_4  and  C_5
REMARK    6  A    between atoms: N_7  and  C_8
REMARK    7  A    between atoms: C_22  and  OXT_24
REMARK                            x       y       z     vdW  Elec       q    Type
REMARK                         _______ _______ _______ _____ _____    ______ ____
ROOT
ATOM      1  C   UNK A   0       3.205   5.958  18.576  0.00  0.00    +0.000 A 
ATOM      2  C   UNK A   0       4.105   5.766  17.510  0.00  0.00    +0.000 A 
ATOM      3  C   UNK A   0       4.304   4.458  17.070  0.00  0.00    +0.000 A 
ATOM      4  N   UNK A   0       3.707   3.388  17.644  0.00  0.00    +0.000 NA
ATOM      5  C   UNK A   0       2.894   3.575  18.691  0.00  0.00    +0.000 A 
ATOM      6  C   UNK A   0       2.287   2.451  19.240  0.00  0.00    +0.000 A 
ATOM      7  C   UNK A   0       1.401   2.539  20.314  0.00  0.00    +0.000 A 
ATOM      8  C   UNK A   0       1.116   3.778  20.865  0.00  0.00    +0.000 A 
ATOM      9  C   UNK A   0       1.710   4.922  20.329  0.00  0.00    +0.000 A 
ATOM     10  C   UNK A   0       2.605   4.845  19.229  0.00  0.00    +0.000 A 
ATOM     11  C   UNK A   0       5.120   4.147  15.839  0.00  0.00    +0.000 C 
ATOM     12  C   UNK A   0       6.000   5.290  15.338  0.00  0.00    +0.000 C 
ATOM     13  C   UNK A   0       5.286   6.626  15.466  0.00  0.00    +0.000 C 
ATOM     14  C   UNK A   0       4.957   6.874  16.933  0.00  0.00    +0.000 C 
ENDROOT
BRANCH   1  17
ATOM     15  C   UNK A   0       1.880   7.982  18.300  0.00  0.00    +0.000 C 
ATOM     16  O   UNK A   0       1.208   7.552  17.363  0.00  0.00    +0.000 OA
ATOM     17  N   UNK A   0       2.864   7.275  18.983  0.00  0.00    +0.000 N 
ATOM     18  H   UNK A   0       2.909   7.477  19.973  0.00  0.00    +0.000 HD
BRANCH  15  19
ATOM     19  C   UNK A   0       1.655   9.399  18.827  0.00  0.00    +0.000 C 
BRANCH  19  20
ATOM     20  N   ALA A   1       0.871  10.158  17.826  0.00  0.00    +0.000 NA
ATOM     21  H   ALA A   1       1.379  11.041  17.674  0.00  0.00    +0.000 HD
BRANCH  20  23
ATOM     22  CB  ALA A   1      -1.638   9.986  17.413  0.00  0.00    +0.000 C 
ATOM     23  CA  ALA A   1      -0.505  10.494  18.298  0.00  0.00    +0.000 C 
BRANCH  23  24
ATOM     24  C   ALA A   1      -0.592  12.008  18.561  0.00  0.00    +0.000 C 
ATOM     25  O   ALA A   1      -0.180  12.590  19.552  0.00  0.00    +0.000 OA
BRANCH  24  26
ATOM     26  OXT ALA A   1      -1.171  12.650  17.508  0.00  0.00    +0.000 OA
ATOM     27  HXT ALA A   1      -1.009  12.080  16.718  0.00  0.00    +0.000 HD
ENDBRANCH  24  26
ENDBRANCH  23  24
ENDBRANCH  20  23
ENDBRANCH  19  20
ENDBRANCH  15  19
ENDBRANCH   1  17
TORSDOF 6
ENDMDL
MODEL 4
REMARK VINA RESULT:      -7.4      2.157      4.240
REMARK  Name = 
REMARK  7 active torsions:
REMARK  status: ('A' for Active; 'I' for Inactive)
REMARK    1  A    between atoms: CB_1  and  CA_2
REMARK    2  A    between atoms: CA_2  and  N_3
REMARK    3  A    between atoms: CA_2  and  C_22
REMARK    4  A    between atoms: N_3  and  C_4
REMARK    5  A    between atoms: C_4  and  C_5
REMARK    6  A    between atoms: N_7  and  C_8
REMARK    7  A    between atoms: C_22  and  OXT_24
REMARK                            x       y       z     vdW  Elec       q    Type
REMARK                         _______ _______ _______ _____ _____    ______ ____
ROOT
ATOM      1  C   UNK A   0       3.257   5.881  18.590  0.00  0.00    +0.000 A 
ATOM      2  C   UNK A   0       4.145   5.681  17.516  0.00  0.00    +0.000 A 
ATOM      3  C   UNK A   0       4.335   4.369  17.081  0.00  0.00    +0.000 A 
ATOM      4  N   UNK A   0       3.739   3.304  17.667  0.00  0.00    +0.000 NA
ATOM      5  C   UNK A   0       2.938   3.500  18.721  0.00  0.00    +0.000 A 
ATOM      6  C   UNK A   0       2.333   2.382  19.283  0.00  0.00    +0.000 A 
ATOM      7  C   UNK A   0       1.458   2.478  20.365  0.00  0.00    +0.000 A 
ATOM      8  C   UNK A   0       1.184   3.721  20.913  0.00  0.00    +0.000 A 
ATOM      9  C   UNK A   0       1.776   4.860  20.364  0.00  0.00    +0.000 A 
ATOM     10  C   UNK A   0       2.660   4.774  19.255  0.00  0.00    +0.000 A 
ATOM     11  C   UNK A   0       5.137   4.048  15.844  0.00  0.00    +0.000 C 
ATOM     12  C   UNK A   0       6.016   5.185  15.327  0.00  0.00    +0.000 C 
ATOM     13  C   UNK A   0       5.308   6.524  15.456  0.00  0.00    +0.000 C 
ATOM     14  C   UNK A   0       4.995   6.782  16.925  0.00  0.00    +0.000 C 
ENDROOT
BRANCH   1  17
ATOM     15  C   UNK A   0       1.962   7.922  18.294  0.00  0.00    +0.000 C 
ATOM     16  O   UNK A   0       1.302   7.502  17.346  0.00  0.00    +0.000 OA
ATOM     17  N   UNK A   0       2.925   7.202  18.994  0.00  0.00    +0.000 N 
ATOM     18  H   UNK A   0       2.956   7.402  19.985  0.00  0.00    +0.000 HD
BRANCH  15  19
ATOM     19  C   UNK A   0       1.746   9.341  18.821  0.00  0.00    +0.000 C 
BRANCH  19  20
ATOM     20  N   ALA A   1       0.818  10.048  17.909  0.00  0.00    +0.000 NA
ATOM     21  H   ALA A   1       1.374  10.778  17.443  0.00  0.00    +0.000 HD
BRANCH  20  23
ATOM     22  CB  ALA A   1      -0.573  10.204  20.039  0.00  0.00    +0.000 C 
ATOM     23  CA  ALA A   1      -0.308  10.716  18.628  0.00  0.00    +0.000 C 
BRANCH  23  24
ATOM     24  C   ALA A   1      -1.564  10.682  17.740  0.00  0.00    +0.000 C 
ATOM     25  O   ALA A   1      -2.399   9.791  17.711  0.00  0.00    +0.000 OA
BRANCH  24  26
ATOM     26  OXT ALA A   1      -1.657  11.814  16.989  0.00  0.00    +0.000 OA
ATOM     27  HXT ALA A   1      -1.431  12.562  17.593  0.00  0.00    +0.000 HD
ENDBRANCH  24  26
ENDBRANCH  23  24
ENDBRANCH  20  23
ENDBRANCH  19  20
ENDBRANCH  15  19
ENDBRANCH   1  17
TORSDOF 6
ENDMDL
MODEL 5
REMARK VINA RESULT:      -7.4      2.378      2.840
REMARK  Name = 
REMARK  7 active torsions:
REMARK  status: ('A' for Active; 'I' for Inactive)
REMARK    1  A    between atoms: CB_1  and  CA_2
REMARK    2  A    between atoms: CA_2  and  N_3
REMARK    3  A    between atoms: CA_2  and  C_22
REMARK    4  A    between atoms: N_3  and  C_4
REMARK    5  A    between atoms: C_4  and  C_5
REMARK    6  A    between atoms: N_7  and  C_8
REMARK    7  A    between atoms: C_22  and  OXT_24
REMARK                            x       y       z     vdW  Elec       q    Type
REMARK                         _______ _______ _______ _____ _____    ______ ____
ROOT
ATOM      1  C   UNK A   0       3.387   5.607  18.748  0.00  0.00    +0.000 A 
ATOM      2  C   UNK A   0       2.660   4.403  18.806  0.00  0.00    +0.000 A 
ATOM      3  C   UNK A   0       3.207   3.295  18.158  0.00  0.00    +0.000 A 
ATOM      4  N   UNK A   0       4.364   3.346  17.460  0.00  0.00    +0.000 NA
ATOM      5  C   UNK A   0       5.022   4.508  17.365  0.00  0.00    +0.000 A 
ATOM      6  C   UNK A   0       6.216   4.513  16.653  0.00  0.00    +0.000 A 
ATOM      7  C   UNK A   0       6.993   5.664  16.519  0.00  0.00    +0.000 A 
ATOM      8  C   UNK A   0       6.567   6.847  17.101  0.00  0.00    +0.000 A 
ATOM      9  C   UNK A   0       5.373   6.867  17.824  0.00  0.00    +0.000 A 
ATOM     10  C   UNK A   0       4.580   5.699  17.976  0.00  0.00    +0.000 A 
ATOM     11  C   UNK A   0       2.599   1.919  18.284  0.00  0.00    +0.000 C 
ATOM     12  C   UNK A   0       1.177   1.885  18.840  0.00  0.00    +0.000 C 
ATOM     13  C   UNK A   0       1.002   2.905  19.954  0.00  0.00    +0.000 C 
ATOM     14  C   UNK A   0       1.274   4.298  19.400  0.00  0.00    +0.000 C 
ENDROOT
BRANCH   1  17
ATOM     15  C   UNK A   0       2.209   7.735  18.870  0.00  0.00    +0.000 C 
ATOM     16  O   UNK A   0       1.837   7.726  17.698  0.00  0.00    +0.000 OA
ATOM     17  N   UNK A   0       2.948   6.734  19.493  0.00  0.00    +0.000 N 
ATOM     18  H   UNK A   0       2.705   6.578  20.462  0.00  0.00    +0.000 HD
BRANCH  15  19
ATOM     19  C   UNK A   0       1.847   8.901  19.790  0.00  0.00    +0.000 C 
BRANCH  19  20
ATOM     20  N   ALA A   1       1.224   8.358  21.019  0.00  0.00    +0.000 NA
ATOM     21  H   ALA A   1       0.979   7.380  20.809  0.00  0.00    +0.000 HD
BRANCH  20  23
ATOM     22  CB  ALA A   1      -0.450  10.197  20.457  0.00  0.00    +0.000 C 
ATOM     23  CA  ALA A   1      -0.031   9.074  21.400  0.00  0.00    +0.000 C 
BRANCH  23  24
ATOM     24  C   ALA A   1       0.079   9.539  22.863  0.00  0.00    +0.000 C 
ATOM     25  O   ALA A   1       1.106   9.605  23.520  0.00  0.00    +0.000 OA
BRANCH  24  26
ATOM     26  OXT ALA A   1      -1.138   9.914  23.345  0.00  0.00    +0.000 OA
ATOM     27  HXT ALA A   1      -1.642   9.078  23.494  0.00  0.00    +0.000 HD
ENDBRANCH  24  26
ENDBRANCH  23  24
ENDBRANCH  20  23
ENDBRANCH  19  20
ENDBRANCH  15  19
ENDBRANCH   1  17
TORSDOF 6
ENDMDL
MODEL 6
REMARK VINA RESULT:      -7.4      3.713      6.375
REMARK  Name = 
REMARK  7 active torsions:
REMARK  status: ('A' for Active; 'I' for Inactive)
REMARK    1  A    between atoms: CB_1  and  CA_2
REMARK    2  A    between atoms: CA_2  and  N_3
REMARK    3  A    between atoms: CA_2  and  C_22
REMARK    4  A    between atoms: N_3  and  C_4
REMARK    5  A    between atoms: C_4  and  C_5
REMARK    6  A    between atoms: N_7  and  C_8
REMARK    7  A    between atoms: C_22  and  OXT_24
REMARK                            x       y       z     vdW  Elec       q    Type
REMARK                         _______ _______ _______ _____ _____    ______ ____
ROOT
ATOM      1  C   UNK A   0       3.167   5.908  18.258  0.00  0.00    +0.000 A 
ATOM      2  C   UNK A   0       3.133   4.838  19.172  0.00  0.00    +0.000 A 
ATOM      3  C   UNK A   0       2.424   5.032  20.357  0.00  0.00    +0.000 A 
ATOM      4  N   UNK A   0       1.815   6.200  20.669  0.00  0.00    +0.000 NA
ATOM      5  C   UNK A   0       1.897   7.229  19.818  0.00  0.00    +0.000 A 
ATOM      6  C   UNK A   0       1.242   8.404  20.168  0.00  0.00    +0.000 A 
ATOM      7  C   UNK A   0       1.241   9.526  19.339  0.00  0.00    +0.000 A 
ATOM      8  C   UNK A   0       1.917   9.484  18.131  0.00  0.00    +0.000 A 
ATOM      9  C   UNK A   0       2.579   8.313  17.754  0.00  0.00    +0.000 A 
ATOM     10  C   UNK A   0       2.578   7.162  18.586  0.00  0.00    +0.000 A 
ATOM     11  C   UNK A   0       2.187   3.909  21.337  0.00  0.00    +0.000 C 
ATOM     12  C   UNK A   0       3.067   2.677  21.138  0.00  0.00    +0.000 C 
ATOM     13  C   UNK A   0       3.261   2.377  19.660  0.00  0.00    +0.000 C 
ATOM     14  C   UNK A   0       3.937   3.570  18.995  0.00  0.00    +0.000 C 
ENDROOT
BRANCH   1  17
ATOM     15  C   UNK A   0       5.082   6.114  16.768  0.00  0.00    +0.000 C 
ATOM     16  O   UNK A   0       5.840   6.575  17.620  0.00  0.00    +0.000 OA
ATOM     17  N   UNK A   0       3.763   5.728  16.981  0.00  0.00    +0.000 N 
ATOM     18  H   UNK A   0       3.475   4.917  16.450  0.00  0.00    +0.000 HD
BRANCH  15  19
ATOM     19  C   UNK A   0       5.567   5.898  15.335  0.00  0.00    +0.000 C 
BRANCH  19  20
ATOM     20  N   ALA A   1       5.375   4.473  14.980  0.00  0.00    +0.000 NA
ATOM     21  H   ALA A   1       5.454   3.945  15.861  0.00  0.00    +0.000 HD
BRANCH  20  23
ATOM     22  CB  ALA A   1       7.527   4.950  13.700  0.00  0.00    +0.000 C 
ATOM     23  CA  ALA A   1       6.418   3.961  14.041  0.00  0.00    +0.000 C 
BRANCH  23  24
ATOM     24  C   ALA A   1       5.730   3.387  12.790  0.00  0.00    +0.000 C 
ATOM     25  O   ALA A   1       4.609   3.666  12.394  0.00  0.00    +0.000 OA
BRANCH  24  26
ATOM     26  OXT ALA A   1       6.559   2.528  12.133  0.00  0.00    +0.000 OA
ATOM     27  HXT ALA A   1       7.239   2.247  12.792  0.00  0.00    +0.000 HD
ENDBRANCH  24  26
ENDBRANCH  23  24
ENDBRANCH  20  23
ENDBRANCH  19  20
ENDBRANCH  15  19
ENDBRANCH   1  17
TORSDOF 6
ENDMDL
MODEL 7
REMARK VINA RESULT:      -7.3      0.930      1.068
REMARK  Name = 
REMARK  7 active torsions:
REMARK  status: ('A' for Active; 'I' for Inactive)
REMARK    1  A    between atoms: CB_1  and  CA_2
REMARK    2  A    between atoms: CA_2  and  N_3
REMARK    3  A    between atoms: CA_2  and  C_22
REMARK    4  A    between atoms: N_3  and  C_4
REMARK    5  A    between atoms: C_4  and  C_5
REMARK    6  A    between atoms: N_7  and  C_8
REMARK    7  A    between atoms: C_22  and  OXT_24
REMARK                            x       y       z     vdW  Elec       q    Type
REMARK                         _______ _______ _______ _____ _____    ______ ____
ROOT
ATOM      1  C   UNK A   0       3.602   5.870  18.058  0.00  0.00    +0.000 A 
ATOM      2  C   UNK A   0       3.007   4.713  18.597  0.00  0.00    +0.000 A 
ATOM      3  C   UNK A   0       3.858   3.762  19.160  0.00  0.00    +0.000 A 
ATOM      4  N   UNK A   0       5.205   3.891  19.170  0.00  0.00    +0.000 NA
ATOM      5  C   UNK A   0       5.764   4.968  18.607  0.00  0.00    +0.000 A 
ATOM      6  C   UNK A   0       7.150   5.071  18.654  0.00  0.00    +0.000 A 
ATOM      7  C   UNK A   0       7.830   6.167  18.123  0.00  0.00    +0.000 A 
ATOM      8  C   UNK A   0       7.113   7.188  17.519  0.00  0.00    +0.000 A 
ATOM      9  C   UNK A   0       5.721   7.110  17.463  0.00  0.00    +0.000 A 
ATOM     10  C   UNK A   0       5.018   6.004  18.009  0.00  0.00    +0.000 A 
ATOM     11  C   UNK A   0       3.328   2.562  19.907  0.00  0.00    +0.000 C 
ATOM     12  C   UNK A   0       1.847   2.263  19.688  0.00  0.00    +0.000 C 
ATOM     13  C   UNK A   0       1.034   3.547  19.626  0.00  0.00    +0.000 C 
ATOM     14  C   UNK A   0       1.535   4.397  18.464  0.00  0.00    +0.000 C 
ENDROOT
BRANCH   1  17
ATOM     15  C   UNK A   0       2.205   7.818  18.490  0.00  0.00    +0.000 C 
ATOM     16  O   UNK A   0       2.374   7.810  19.708  0.00  0.00    +0.000 OA
ATOM     17  N   UNK A   0       2.782   6.930  17.587  0.00  0.00    +0.000 N 
ATOM     18  H   UNK A   0       3.030   7.343  16.698  0.00  0.00    +0.000 HD
BRANCH  15  19
ATOM     19  C   UNK A   0       1.317   8.876  17.836  0.00  0.00    +0.000 C 
BRANCH  19  20
ATOM     20  N   ALA A   1       1.150  10.003  18.782  0.00  0.00    +0.000 NA
ATOM     21  H   ALA A   1       1.294   9.611  19.724  0.00  0.00    +0.000 HD
BRANCH  20  23
ATOM     22  CB  ALA A   1      -1.163   9.989  17.710  0.00  0.00    +0.000 C 
ATOM     23  CA  ALA A   1      -0.218  10.602  18.738  0.00  0.00    +0.000 C 
BRANCH  23  24
ATOM     24  C   ALA A   1      -0.095  12.129  18.593  0.00  0.00    +0.000 C 
ATOM     25  O   ALA A   1      -0.961  12.948  18.858  0.00  0.00    +0.000 OA
BRANCH  24  26
ATOM     26  OXT ALA A   1       1.146  12.475  18.151  0.00  0.00    +0.000 OA
ATOM     27  HXT ALA A   1       1.140  12.326  17.175  0.00  0.00    +0.000 HD
ENDBRANCH  24  26
ENDBRANCH  23  24
ENDBRANCH  20  23
ENDBRANCH  19  20
ENDBRANCH  15  19
ENDBRANCH   1  17
TORSDOF 6
ENDMDL
MODEL 8
REMARK VINA RESULT:      -7.3      1.457      1.635
REMARK  Name = 
REMARK  7 active torsions:
REMARK  status: ('A' for Active; 'I' for Inactive)
REMARK    1  A    between atoms: CB_1  and  CA_2
REMARK    2  A    between atoms: CA_2  and  N_3
REMARK    3  A    between atoms: CA_2  and  C_22
REMARK    4  A    between atoms: N_3  and  C_4
REMARK    5  A    between atoms: C_4  and  C_5
REMARK    6  A    between atoms: N_7  and  C_8
REMARK    7  A    between atoms: C_22  and  OXT_24
REMARK                            x       y       z     vdW  Elec       q    Type
REMARK                         _______ _______ _______ _____ _____    ______ ____
ROOT
ATOM      1  C   UNK A   0       3.634   5.917  17.884  0.00  0.00    +0.000 A 
ATOM      2  C   UNK A   0       3.026   4.716  18.296  0.00  0.00    +0.000 A 
ATOM      3  C   UNK A   0       3.860   3.717  18.798  0.00  0.00    +0.000 A 
ATOM      4  N   UNK A   0       5.206   3.845  18.864  0.00  0.00    +0.000 NA
ATOM      5  C   UNK A   0       5.779   4.969  18.421  0.00  0.00    +0.000 A 
ATOM      6  C   UNK A   0       7.162   5.067  18.523  0.00  0.00    +0.000 A 
ATOM      7  C   UNK A   0       7.856   6.207  18.117  0.00  0.00    +0.000 A 
ATOM      8  C   UNK A   0       7.157   7.279  17.584  0.00  0.00    +0.000 A 
ATOM      9  C   UNK A   0       5.768   7.206  17.475  0.00  0.00    +0.000 A 
ATOM     10  C   UNK A   0       5.050   6.055  17.895  0.00  0.00    +0.000 A 
ATOM     11  C   UNK A   0       3.309   2.454  19.414  0.00  0.00    +0.000 C 
ATOM     12  C   UNK A   0       1.837   2.176  19.120  0.00  0.00    +0.000 C 
ATOM     13  C   UNK A   0       1.023   3.461  19.148  0.00  0.00    +0.000 C 
ATOM     14  C   UNK A   0       1.560   4.412  18.085  0.00  0.00    +0.000 C 
ENDROOT
BRANCH   1  17
ATOM     15  C   UNK A   0       2.253   7.843  18.444  0.00  0.00    +0.000 C 
ATOM     16  O   UNK A   0       2.414   7.749  19.659  0.00  0.00    +0.000 OA
ATOM     17  N   UNK A   0       2.827   7.016  17.484  0.00  0.00    +0.000 N 
ATOM     18  H   UNK A   0       3.084   7.488  16.628  0.00  0.00    +0.000 HD
BRANCH  15  19
ATOM     19  C   UNK A   0       1.379   8.953  17.862  0.00  0.00    +0.000 C 
BRANCH  19  20
ATOM     20  N   ALA A   1       0.687   9.643  18.974  0.00  0.00    +0.000 NA
ATOM     21  H   ALA A   1      -0.192   9.129  19.129  0.00  0.00    +0.000 HD
BRANCH  20  23
ATOM     22  CB  ALA A   1       0.606  12.063  19.772  0.00  0.00    +0.000 C 
ATOM     23  CA  ALA A   1       0.341  11.061  18.654  0.00  0.00    +0.000 C 
BRANCH  23  24
ATOM     24  C   ALA A   1      -1.107  11.121  18.136  0.00  0.00    +0.000 C 
ATOM     25  O   ALA A   1      -1.952  10.249  18.264  0.00  0.00    +0.000 OA
BRANCH  24  26
ATOM     26  OXT ALA A   1      -1.355  12.314  17.527  0.00  0.00    +0.000 OA
ATOM     27  HXT ALA A   1      -2.325  12.331  17.345  0.00  0.00    +0.000 HD
ENDBRANCH  24  26
ENDBRANCH  23  24
ENDBRANCH  20  23
ENDBRANCH  19  20
ENDBRANCH  15  19
ENDBRANCH   1  17
TORSDOF 6
ENDMDL
MODEL 9
REMARK VINA RESULT:      -7.3      0.331      3.749
REMARK  Name = 
REMARK  7 active torsions:
REMARK  status: ('A' for Active; 'I' for Inactive)
REMARK    1  A    between atoms: CB_1  and  CA_2
REMARK    2  A    between atoms: CA_2  and  N_3
REMARK    3  A    between atoms: CA_2  and  C_22
REMARK    4  A    between atoms: N_3  and  C_4
REMARK    5  A    between atoms: C_4  and  C_5
REMARK    6  A    between atoms: N_7  and  C_8
REMARK    7  A    between atoms: C_22  and  OXT_24
REMARK                            x       y       z     vdW  Elec       q    Type
REMARK                         _______ _______ _______ _____ _____    ______ ____
ROOT
ATOM      1  C   UNK A   0       3.577   5.728  18.023  0.00  0.00    +0.000 A 
ATOM      2  C   UNK A   0       4.973   5.894  18.099  0.00  0.00    +0.000 A 
ATOM      3  C   UNK A   0       5.727   4.791  18.499  0.00  0.00    +0.000 A 
ATOM      4  N   UNK A   0       5.173   3.606  18.847  0.00  0.00    +0.000 NA
ATOM      5  C   UNK A   0       3.842   3.473  18.822  0.00  0.00    +0.000 A 
ATOM      6  C   UNK A   0       3.314   2.235  19.169  0.00  0.00    +0.000 A 
ATOM      7  C   UNK A   0       1.942   1.982  19.149  0.00  0.00    +0.000 A 
ATOM      8  C   UNK A   0       1.067   2.992  18.783  0.00  0.00    +0.000 A 
ATOM      9  C   UNK A   0       1.572   4.243  18.426  0.00  0.00    +0.000 A 
ATOM     10  C   UNK A   0       2.968   4.508  18.433  0.00  0.00    +0.000 A 
ATOM     11  C   UNK A   0       7.236   4.803  18.466  0.00  0.00    +0.000 C 
ATOM     12  C   UNK A   0       7.872   6.185  18.331  0.00  0.00    +0.000 C 
ATOM     13  C   UNK A   0       7.077   7.060  17.375  0.00  0.00    +0.000 C 
ATOM     14  C   UNK A   0       5.661   7.227  17.913  0.00  0.00    +0.000 C 
ENDROOT
BRANCH   1  17
ATOM     15  C   UNK A   0       2.193   7.703  18.360  0.00  0.00    +0.000 C 
ATOM     16  O   UNK A   0       2.354   7.748  19.578  0.00  0.00    +0.000 OA
ATOM     17  N   UNK A   0       2.769   6.772  17.501  0.00  0.00    +0.000 N 
ATOM     18  H   UNK A   0       3.026   7.144  16.596  0.00  0.00    +0.000 HD
BRANCH  15  19
ATOM     19  C   UNK A   0       1.317   8.738  17.655  0.00  0.00    +0.000 C 
BRANCH  19  20
ATOM     20  N   ALA A   1       2.015  10.044  17.678  0.00  0.00    +0.000 NA
ATOM     21  H   ALA A   1       2.990   9.843  17.941  0.00  0.00    +0.000 HD
BRANCH  20  23
ATOM     22  CB  ALA A   1      -0.071  11.067  18.725  0.00  0.00    +0.000 C 
ATOM     23  CA  ALA A   1       1.451  10.987  18.689  0.00  0.00    +0.000 C 
BRANCH  23  24
ATOM     24  C   ALA A   1       2.113  12.366  18.517  0.00  0.00    +0.000 C 
ATOM     25  O   ALA A   1       2.276  13.199  19.394  0.00  0.00    +0.000 OA
BRANCH  24  26
ATOM     26  OXT ALA A   1       2.539  12.541  17.235  0.00  0.00    +0.000 OA
ATOM     27  HXT ALA A   1       1.847  13.086  16.789  0.00  0.00    +0.000 HD
ENDBRANCH  24  26
ENDBRANCH  23  24
ENDBRANCH  20  23
ENDBRANCH  19  20
ENDBRANCH  15  19
ENDBRANCH   1  17
TORSDOF 6
ENDMDL
