MODEL 1
REMARK VINA RESULT:      -7.7      0.000      0.000
REMARK  Name = 
REMARK  3 active torsions:
REMARK  status: ('A' for Active; 'I' for Inactive)
REMARK    1  A    between atoms: C_2  and  O_3
REMARK    2  A    between atoms: C_2  and  C_4
REMARK    3  A    between atoms: C_9  and  C_10
REMARK                            x       y       z     vdW  Elec       q    Type
REMARK                         _______ _______ _______ _____ _____    ______ ____
ROOT
ATOM      1  C   UNL     1       3.354   2.707  20.218  0.00  0.00    +0.000 A 
ATOM      2  C   UNL     1       2.408   2.475  21.242  0.00  0.00    +0.000 A 
ATOM      3  C   UNL     1       1.307   3.310  21.400  0.00  0.00    +0.000 A 
ATOM      4  C   UNL     1       1.152   4.400  20.557  0.00  0.00    +0.000 A 
ATOM      5  C   UNL     1       2.090   4.643  19.550  0.00  0.00    +0.000 A 
ATOM      6  C   UNL     1       3.209   3.805  19.345  0.00  0.00    +0.000 A 
ENDROOT
BRANCH   6   7
ATOM      7  C   UNL     1       4.101   4.157  18.211  0.00  0.00    +0.000 A 
ATOM      8  C   UNL     1       3.940   3.836  16.873  0.00  0.00    +0.000 A 
ATOM      9  C   UNL     1       5.058   4.188  16.044  0.00  0.00    +0.000 A 
ATOM     10  C   UNL     1       5.293   3.962  14.665  0.00  0.00    +0.000 A 
ATOM     11  C   UNL     1       6.469   4.419  14.064  0.00  0.00    +0.000 A 
ATOM     12  C   UNL     1       7.406   5.122  14.808  0.00  0.00    +0.000 A 
ATOM     13  C   UNL     1       7.202   5.352  16.171  0.00  0.00    +0.000 A 
ATOM     14  C   UNL     1       6.033   4.855  16.782  0.00  0.00    +0.000 A 
ATOM     15  S   UNL     1       5.612   4.930  18.449  0.00  0.00    +0.000 S 
ENDBRANCH   6   7
BRANCH   1  17
ATOM     16  O   UNL     1       5.318   1.692  21.115  0.00  0.00    +0.000 OA
ATOM     17  C   UNL     1       4.520   1.793  20.200  0.00  0.00    +0.000 C 
BRANCH  17  18
ATOM     18  O   UNL     1       4.567   1.034  19.081  0.00  0.00    +0.000 OA
ATOM     19  H   UNL     1       4.921   1.483  18.293  0.00  0.00    +0.000 HD
ENDBRANCH  17  18
ENDBRANCH   1  17
TORSDOF 3
ENDMDL
MODEL 2
REMARK VINA RESULT:      -7.6      2.003      6.036
REMARK  Name = 
REMARK  3 active torsions:
REMARK  status: ('A' for Active; 'I' for Inactive)
REMARK    1  A    between atoms: C_2  and  O_3
REMARK    2  A    between atoms: C_2  and  C_4
REMARK    3  A    between atoms: C_9  and  C_10
REMARK                            x       y       z     vdW  Elec       q    Type
REMARK                         _______ _______ _______ _____ _____    ______ ____
ROOT
ATOM      1  C   UNL     1       6.727   4.759  16.120  0.00  0.00    +0.000 A 
ATOM      2  C   UNL     1       7.501   4.872  14.943  0.00  0.00    +0.000 A 
ATOM      3  C   UNL     1       6.958   4.563  13.699  0.00  0.00    +0.000 A 
ATOM      4  C   UNL     1       5.649   4.115  13.620  0.00  0.00    +0.000 A 
ATOM      5  C   UNL     1       4.881   3.990  14.781  0.00  0.00    +0.000 A 
ATOM      6  C   UNL     1       5.391   4.314  16.058  0.00  0.00    +0.000 A 
ENDROOT
BRANCH   6   7
ATOM      7  C   UNL     1       4.452   4.174  17.200  0.00  0.00    +0.000 A 
ATOM      8  C   UNL     1       3.939   3.005  17.738  0.00  0.00    +0.000 A 
ATOM      9  C   UNL     1       2.931   3.210  18.740  0.00  0.00    +0.000 A 
ATOM     10  C   UNL     1       2.137   2.281  19.457  0.00  0.00    +0.000 A 
ATOM     11  C   UNL     1       1.217   2.723  20.411  0.00  0.00    +0.000 A 
ATOM     12  C   UNL     1       1.091   4.078  20.684  0.00  0.00    +0.000 A 
ATOM     13  C   UNL     1       1.857   5.016  19.987  0.00  0.00    +0.000 A 
ATOM     14  C   UNL     1       2.755   4.568  18.997  0.00  0.00    +0.000 A 
ATOM     15  S   UNL     1       3.725   5.532  17.951  0.00  0.00    +0.000 S 
ENDBRANCH   6   7
BRANCH   1  17
ATOM     16  O   UNL     1       7.266   6.049  18.054  0.00  0.00    +0.000 OA
ATOM     17  C   UNL     1       7.440   5.044  17.387  0.00  0.00    +0.000 C 
BRANCH  17  18
ATOM     18  O   UNL     1       8.260   4.034  17.759  0.00  0.00    +0.000 OA
ATOM     19  H   UNL     1       8.767   3.627  17.033  0.00  0.00    +0.000 HD
ENDBRANCH  17  18
ENDBRANCH   1  17
TORSDOF 3
ENDMDL
MODEL 3
REMARK VINA RESULT:      -7.4      2.044      6.117
REMARK  Name = 
REMARK  3 active torsions:
REMARK  status: ('A' for Active; 'I' for Inactive)
REMARK    1  A    between atoms: C_2  and  O_3
REMARK    2  A    between atoms: C_2  and  C_4
REMARK    3  A    between atoms: C_9  and  C_10
REMARK                            x       y       z     vdW  Elec       q    Type
REMARK                         _______ _______ _______ _____ _____    ______ ____
ROOT
ATOM      1  C   UNL     1       6.606   4.908  16.207  0.00  0.00    +0.000 A 
ATOM      2  C   UNL     1       7.491   5.046  15.114  0.00  0.00    +0.000 A 
ATOM      3  C   UNL     1       7.110   4.661  13.833  0.00  0.00    +0.000 A 
ATOM      4  C   UNL     1       5.853   4.110  13.634  0.00  0.00    +0.000 A 
ATOM      5  C   UNL     1       4.976   3.960  14.712  0.00  0.00    +0.000 A 
ATOM      6  C   UNL     1       5.321   4.359  16.022  0.00  0.00    +0.000 A 
ENDROOT
BRANCH   6   7
ATOM      7  C   UNL     1       4.278   4.180  17.064  0.00  0.00    +0.000 A 
ATOM      8  C   UNL     1       3.601   5.166  17.765  0.00  0.00    +0.000 A 
ATOM      9  C   UNL     1       2.763   4.669  18.819  0.00  0.00    +0.000 A 
ATOM     10  C   UNL     1       1.982   5.356  19.781  0.00  0.00    +0.000 A 
ATOM     11  C   UNL     1       1.223   4.646  20.716  0.00  0.00    +0.000 A 
ATOM     12  C   UNL     1       1.206   3.259  20.692  0.00  0.00    +0.000 A 
ATOM     13  C   UNL     1       1.972   2.556  19.757  0.00  0.00    +0.000 A 
ATOM     14  C   UNL     1       2.767   3.276  18.843  0.00  0.00    +0.000 A 
ATOM     15  S   UNL     1       3.857   2.635  17.674  0.00  0.00    +0.000 S 
ENDBRANCH   6   7
BRANCH   1  17
ATOM     16  O   UNL     1       7.117   6.413  17.988  0.00  0.00    +0.000 OA
ATOM     17  C   UNL     1       7.156   5.284  17.531  0.00  0.00    +0.000 C 
BRANCH  17  18
ATOM     18  O   UNL     1       7.649   4.221  18.208  0.00  0.00    +0.000 OA
ATOM     19  H   UNL     1       7.061   3.446  18.243  0.00  0.00    +0.000 HD
ENDBRANCH  17  18
ENDBRANCH   1  17
TORSDOF 3
ENDMDL
MODEL 4
REMARK VINA RESULT:      -7.0      3.634      6.499
REMARK  Name = 
REMARK  3 active torsions:
REMARK  status: ('A' for Active; 'I' for Inactive)
REMARK    1  A    between atoms: C_2  and  O_3
REMARK    2  A    between atoms: C_2  and  C_4
REMARK    3  A    between atoms: C_9  and  C_10
REMARK                            x       y       z     vdW  Elec       q    Type
REMARK                         _______ _______ _______ _____ _____    ______ ____
ROOT
ATOM      1  C   UNL     1       3.347   4.802  17.553  0.00  0.00    +0.000 A 
ATOM      2  C   UNL     1       4.197   3.988  16.769  0.00  0.00    +0.000 A 
ATOM      3  C   UNL     1       5.304   4.528  16.121  0.00  0.00    +0.000 A 
ATOM      4  C   UNL     1       5.559   5.886  16.226  0.00  0.00    +0.000 A 
ATOM      5  C   UNL     1       4.716   6.699  16.989  0.00  0.00    +0.000 A 
ATOM      6  C   UNL     1       3.596   6.183  17.678  0.00  0.00    +0.000 A 
ENDROOT
BRANCH   6   7
ATOM      7  C   UNL     1       2.812   7.153  18.485  0.00  0.00    +0.000 A 
ATOM      8  C   UNL     1       2.397   7.022  19.801  0.00  0.00    +0.000 A 
ATOM      9  C   UNL     1       1.519   8.066  20.249  0.00  0.00    +0.000 A 
ATOM     10  C   UNL     1       0.843   8.240  21.482  0.00  0.00    +0.000 A 
ATOM     11  C   UNL     1       0.041   9.364  21.697  0.00  0.00    +0.000 A 
ATOM     12  C   UNL     1      -0.080  10.334  20.712  0.00  0.00    +0.000 A 
ATOM     13  C   UNL     1       0.571  10.184  19.484  0.00  0.00    +0.000 A 
ATOM     14  C   UNL     1       1.347   9.029  19.258  0.00  0.00    +0.000 A 
ATOM     15  S   UNL     1       2.155   8.582  17.805  0.00  0.00    +0.000 S 
ENDBRANCH   6   7
BRANCH   1  17
ATOM     16  O   UNL     1       2.152   3.584  19.221  0.00  0.00    +0.000 OA
ATOM     17  C   UNL     1       2.162   4.125  18.129  0.00  0.00    +0.000 C 
BRANCH  17  18
ATOM     18  O   UNL     1       1.070   4.229  17.338  0.00  0.00    +0.000 OA
ATOM     19  H   UNL     1       1.239   4.118  16.385  0.00  0.00    +0.000 HD
ENDBRANCH  17  18
ENDBRANCH   1  17
TORSDOF 3
ENDMDL
MODEL 5
REMARK VINA RESULT:      -6.9      2.903      5.989
REMARK  Name = 
REMARK  3 active torsions:
REMARK  status: ('A' for Active; 'I' for Inactive)
REMARK    1  A    between atoms: C_2  and  O_3
REMARK    2  A    between atoms: C_2  and  C_4
REMARK    3  A    between atoms: C_9  and  C_10
REMARK                            x       y       z     vdW  Elec       q    Type
REMARK                         _______ _______ _______ _____ _____    ______ ____
ROOT
ATOM      1  C   UNL     1       4.553   4.163  16.846  0.00  0.00    +0.000 A 
ATOM      2  C   UNL     1       5.559   3.562  16.056  0.00  0.00    +0.000 A 
ATOM      3  C   UNL     1       6.566   4.328  15.477  0.00  0.00    +0.000 A 
ATOM      4  C   UNL     1       6.565   5.702  15.658  0.00  0.00    +0.000 A 
ATOM      5  C   UNL     1       5.567   6.305  16.428  0.00  0.00    +0.000 A 
ATOM      6  C   UNL     1       4.541   5.558  17.049  0.00  0.00    +0.000 A 
ENDROOT
BRANCH   6   7
ATOM      7  C   UNL     1       3.571   6.322  17.873  0.00  0.00    +0.000 A 
ATOM      8  C   UNL     1       2.946   7.518  17.556  0.00  0.00    +0.000 A 
ATOM      9  C   UNL     1       2.180   8.085  18.630  0.00  0.00    +0.000 A 
ATOM     10  C   UNL     1       1.469   9.308  18.712  0.00  0.00    +0.000 A 
ATOM     11  C   UNL     1       0.772   9.644  19.877  0.00  0.00    +0.000 A 
ATOM     12  C   UNL     1       0.750   8.770  20.954  0.00  0.00    +0.000 A 
ATOM     13  C   UNL     1       1.448   7.560  20.901  0.00  0.00    +0.000 A 
ATOM     14  C   UNL     1       2.182   7.243  19.740  0.00  0.00    +0.000 A 
ATOM     15  S   UNL     1       3.188   5.871  19.481  0.00  0.00    +0.000 S 
ENDBRANCH   6   7
BRANCH   1  17
ATOM     16  O   UNL     1       2.352   3.245  16.926  0.00  0.00    +0.000 OA
ATOM     17  C   UNL     1       3.497   3.251  17.343  0.00  0.00    +0.000 C 
BRANCH  17  18
ATOM     18  O   UNL     1       3.958   2.379  18.269  0.00  0.00    +0.000 OA
ATOM     19  H   UNL     1       4.929   2.325  18.336  0.00  0.00    +0.000 HD
ENDBRANCH  17  18
ENDBRANCH   1  17
TORSDOF 3
ENDMDL
MODEL 6
REMARK VINA RESULT:      -6.9      0.833      1.454
REMARK  Name = 
REMARK  3 active torsions:
REMARK  status: ('A' for Active; 'I' for Inactive)
REMARK    1  A    between atoms: C_2  and  O_3
REMARK    2  A    between atoms: C_2  and  C_4
REMARK    3  A    between atoms: C_9  and  C_10
REMARK                            x       y       z     vdW  Elec       q    Type
REMARK                         _______ _______ _______ _____ _____    ______ ____
ROOT
ATOM      1  C   UNL     1       3.518   2.605  20.450  0.00  0.00    +0.000 A 
ATOM      2  C   UNL     1       2.594   2.497  21.514  0.00  0.00    +0.000 A 
ATOM      3  C   UNL     1       1.518   3.373  21.617  0.00  0.00    +0.000 A 
ATOM      4  C   UNL     1       1.368   4.381  20.677  0.00  0.00    +0.000 A 
ATOM      5  C   UNL     1       2.285   4.502  19.629  0.00  0.00    +0.000 A 
ATOM      6  C   UNL     1       3.377   3.617  19.480  0.00  0.00    +0.000 A 
ENDROOT
BRANCH   6   7
ATOM      7  C   UNL     1       4.248   3.836  18.297  0.00  0.00    +0.000 A 
ATOM      8  C   UNL     1       5.515   4.397  18.268  0.00  0.00    +0.000 A 
ATOM      9  C   UNL     1       6.034   4.614  16.947  0.00  0.00    +0.000 A 
ATOM     10  C   UNL     1       7.240   5.218  16.515  0.00  0.00    +0.000 A 
ATOM     11  C   UNL     1       7.541   5.303  15.153  0.00  0.00    +0.000 A 
ATOM     12  C   UNL     1       6.672   4.772  14.211  0.00  0.00    +0.000 A 
ATOM     13  C   UNL     1       5.472   4.175  14.610  0.00  0.00    +0.000 A 
ATOM     14  C   UNL     1       5.154   4.128  15.982  0.00  0.00    +0.000 A 
ATOM     15  S   UNL     1       3.705   3.536  16.699  0.00  0.00    +0.000 S 
ENDBRANCH   6   7
BRANCH   1  17
ATOM     16  O   UNL     1       5.396   1.529  21.455  0.00  0.00    +0.000 OA
ATOM     17  C   UNL     1       4.661   1.662  20.493  0.00  0.00    +0.000 C 
BRANCH  17  18
ATOM     18  O   UNL     1       4.760   0.916  19.369  0.00  0.00    +0.000 OA
ATOM     19  H   UNL     1       5.622   0.482  19.237  0.00  0.00    +0.000 HD
ENDBRANCH  17  18
ENDBRANCH   1  17
TORSDOF 3
ENDMDL
MODEL 7
REMARK VINA RESULT:      -6.9      2.204      2.806
REMARK  Name = 
REMARK  3 active torsions:
REMARK  status: ('A' for Active; 'I' for Inactive)
REMARK    1  A    between atoms: C_2  and  O_3
REMARK    2  A    between atoms: C_2  and  C_4
REMARK    3  A    between atoms: C_9  and  C_10
REMARK                            x       y       z     vdW  Elec       q    Type
REMARK                         _______ _______ _______ _____ _____    ______ ____
ROOT
ATOM      1  C   UNL     1       2.645   5.100  20.000  0.00  0.00    +0.000 A 
ATOM      2  C   UNL     1       1.920   4.748  21.161  0.00  0.00    +0.000 A 
ATOM      3  C   UNL     1       2.004   3.465  21.693  0.00  0.00    +0.000 A 
ATOM      4  C   UNL     1       2.789   2.514  21.059  0.00  0.00    +0.000 A 
ATOM      5  C   UNL     1       3.499   2.852  19.904  0.00  0.00    +0.000 A 
ATOM      6  C   UNL     1       3.456   4.150  19.346  0.00  0.00    +0.000 A 
ENDROOT
BRANCH   6   7
ATOM      7  C   UNL     1       4.292   4.381  18.142  0.00  0.00    +0.000 A 
ATOM      8  C   UNL     1       4.041   3.969  16.843  0.00  0.00    +0.000 A 
ATOM      9  C   UNL     1       5.121   4.213  15.928  0.00  0.00    +0.000 A 
ATOM     10  C   UNL     1       5.266   3.877  14.559  0.00  0.00    +0.000 A 
ATOM     11  C   UNL     1       6.421   4.240  13.860  0.00  0.00    +0.000 A 
ATOM     12  C   UNL     1       7.426   4.955  14.496  0.00  0.00    +0.000 A 
ATOM     13  C   UNL     1       7.310   5.294  15.847  0.00  0.00    +0.000 A 
ATOM     14  C   UNL     1       6.162   4.891  16.558  0.00  0.00    +0.000 A 
ATOM     15  S   UNL     1       5.842   5.105  18.236  0.00  0.00    +0.000 S 
ENDBRANCH   6   7
BRANCH   1  17
ATOM     16  O   UNL     1       2.317   6.750  18.307  0.00  0.00    +0.000 OA
ATOM     17  C   UNL     1       2.414   6.472  19.490  0.00  0.00    +0.000 C 
BRANCH  17  18
ATOM     18  O   UNL     1       2.256   7.375  20.484  0.00  0.00    +0.000 OA
ATOM     19  H   UNL     1       1.660   8.117  20.276  0.00  0.00    +0.000 HD
ENDBRANCH  17  18
ENDBRANCH   1  17
TORSDOF 3
ENDMDL
MODEL 8
REMARK VINA RESULT:      -6.9      2.738      3.523
REMARK  Name = 
REMARK  3 active torsions:
REMARK  status: ('A' for Active; 'I' for Inactive)
REMARK    1  A    between atoms: C_2  and  O_3
REMARK    2  A    between atoms: C_2  and  C_4
REMARK    3  A    between atoms: C_9  and  C_10
REMARK                            x       y       z     vdW  Elec       q    Type
REMARK                         _______ _______ _______ _____ _____    ______ ____
ROOT
ATOM      1  C   UNL     1       1.975   4.032  19.779  0.00  0.00    +0.000 A 
ATOM      2  C   UNL     1       0.862   3.172  19.920  0.00  0.00    +0.000 A 
ATOM      3  C   UNL     1       0.664   2.111  19.043  0.00  0.00    +0.000 A 
ATOM      4  C   UNL     1       1.557   1.913  18.001  0.00  0.00    +0.000 A 
ATOM      5  C   UNL     1       2.653   2.766  17.847  0.00  0.00    +0.000 A 
ATOM      6  C   UNL     1       2.899   3.841  18.731  0.00  0.00    +0.000 A 
ENDROOT
BRANCH   6   7
ATOM      7  C   UNL     1       4.123   4.641  18.475  0.00  0.00    +0.000 A 
ATOM      8  C   UNL     1       5.341   4.561  19.130  0.00  0.00    +0.000 A 
ATOM      9  C   UNL     1       6.281   5.579  18.755  0.00  0.00    +0.000 A 
ATOM     10  C   UNL     1       7.579   5.865  19.244  0.00  0.00    +0.000 A 
ATOM     11  C   UNL     1       8.324   6.917  18.703  0.00  0.00    +0.000 A 
ATOM     12  C   UNL     1       7.807   7.676  17.663  0.00  0.00    +0.000 A 
ATOM     13  C   UNL     1       6.526   7.419  17.166  0.00  0.00    +0.000 A 
ATOM     14  C   UNL     1       5.764   6.383  17.741  0.00  0.00    +0.000 A 
ATOM     15  S   UNL     1       4.141   5.947  17.366  0.00  0.00    +0.000 S 
ENDBRANCH   6   7
BRANCH   1  17
ATOM     16  O   UNL     1       1.563   6.268  20.503  0.00  0.00    +0.000 OA
ATOM     17  C   UNL     1       2.034   5.167  20.729  0.00  0.00    +0.000 C 
BRANCH  17  18
ATOM     18  O   UNL     1       2.613   4.830  21.905  0.00  0.00    +0.000 OA
ATOM     19  H   UNL     1       2.007   4.451  22.568  0.00  0.00    +0.000 HD
ENDBRANCH  17  18
ENDBRANCH   1  17
TORSDOF 3
ENDMDL
MODEL 9
REMARK VINA RESULT:      -6.9      3.828      6.437
REMARK  Name = 
REMARK  3 active torsions:
REMARK  status: ('A' for Active; 'I' for Inactive)
REMARK    1  A    between atoms: C_2  and  O_3
REMARK    2  A    between atoms: C_2  and  C_4
REMARK    3  A    between atoms: C_9  and  C_10
REMARK                            x       y       z     vdW  Elec       q    Type
REMARK                         _______ _______ _______ _____ _____    ______ ____
ROOT
ATOM      1  C   UNL     1       3.319   4.766  17.493  0.00  0.00    +0.000 A 
ATOM      2  C   UNL     1       4.260   3.960  16.812  0.00  0.00    +0.000 A 
ATOM      3  C   UNL     1       5.428   4.509  16.293  0.00  0.00    +0.000 A 
ATOM      4  C   UNL     1       5.657   5.870  16.424  0.00  0.00    +0.000 A 
ATOM      5  C   UNL     1       4.726   6.676  17.085  0.00  0.00    +0.000 A 
ATOM      6  C   UNL     1       3.540   6.150  17.644  0.00  0.00    +0.000 A 
ENDROOT
BRANCH   6   7
ATOM      7  C   UNL     1       2.660   7.112  18.356  0.00  0.00    +0.000 A 
ATOM      8  C   UNL     1       2.125   8.294  17.868  0.00  0.00    +0.000 A 
ATOM      9  C   UNL     1       1.442   9.083  18.853  0.00  0.00    +0.000 A 
ATOM     10  C   UNL     1       0.836  10.359  18.756  0.00  0.00    +0.000 A 
ATOM     11  C   UNL     1       0.205  10.929  19.866  0.00  0.00    +0.000 A 
ATOM     12  C   UNL     1       0.144  10.237  21.067  0.00  0.00    +0.000 A 
ATOM     13  C   UNL     1       0.740   8.978  21.191  0.00  0.00    +0.000 A 
ATOM     14  C   UNL     1       1.409   8.425  20.080  0.00  0.00    +0.000 A 
ATOM     15  S   UNL     1       2.291   6.948  20.021  0.00  0.00    +0.000 S 
ENDBRANCH   6   7
BRANCH   1  17
ATOM     16  O   UNL     1       1.041   4.083  17.300  0.00  0.00    +0.000 OA
ATOM     17  C   UNL     1       2.083   4.078  17.932  0.00  0.00    +0.000 C 
BRANCH  17  18
ATOM     18  O   UNL     1       2.254   3.389  19.084  0.00  0.00    +0.000 OA
ATOM     19  H   UNL     1       3.144   3.012  19.210  0.00  0.00    +0.000 HD
ENDBRANCH  17  18
ENDBRANCH   1  17
TORSDOF 3
ENDMDL
