MODEL 1
REMARK VINA RESULT:      -8.7      0.000      0.000
REMARK  Name = 
REMARK  8 active torsions:
REMARK  status: ('A' for Active; 'I' for Inactive)
REMARK    1  A    between atoms: C_1  and  O_2
REMARK    2  A    between atoms: O_2  and  C_3
REMARK    3  A    between atoms: C_6  and  C_7
REMARK    4  A    between atoms: C_12  and  C_13
REMARK    5  A    between atoms: N_18  and  C_19
REMARK    6  A    between atoms: C_25  and  C_26
REMARK    7  A    between atoms: C_30  and  O_31
REMARK    8  A    between atoms: O_31  and  C_32
REMARK                            x       y       z     vdW  Elec       q    Type
REMARK                         _______ _______ _______ _____ _____    ______ ____
ROOT
ATOM      1  C   UNL     1       2.957   3.773  18.945  0.00  0.00    +0.000 C 
ATOM      2  O   UNL     1       3.288   3.387  20.284  0.00  0.00    +0.000 OA
ATOM      3  C   UNL     1       2.403   3.937  21.154  0.00  0.00    +0.000 C 
ATOM      4  O   UNL     1       2.433   3.756  22.359  0.00  0.00    +0.000 OA
ATOM      5  C   UNL     1       1.424   4.812  20.443  0.00  0.00    +0.000 C 
ATOM      6  C   UNL     1       2.028   4.957  19.064  0.00  0.00    +0.000 C 
ENDROOT
BRANCH   6   7
ATOM      7  C   UNL     1       2.494   6.377  18.748  0.00  0.00    +0.000 C 
ATOM      8  O   UNL     1       3.201   6.507  17.739  0.00  0.00    +0.000 OA
ATOM      9  N   UNL     1       2.086   7.490  19.445  0.00  0.00    +0.000 N 
ATOM     10  C   UNL     1       2.260   8.816  18.828  0.00  0.00    +0.000 C 
ATOM     11  C   UNL     1       0.890   9.513  18.681  0.00  0.00    +0.000 C 
ATOM     12  N   UNL     1       0.176   9.593  19.981  0.00  0.00    +0.000 N 
ATOM     13  C   UNL     1       0.087   8.302  20.698  0.00  0.00    +0.000 C 
ATOM     14  C   UNL     1       1.451   7.583  20.761  0.00  0.00    +0.000 C 
BRANCH  12  15
ATOM     15  C   UNL     1       0.076  10.801  20.670  0.00  0.00    +0.000 A 
ATOM     16  C   UNL     1       0.333  12.021  20.005  0.00  0.00    +0.000 A 
ATOM     17  C   UNL     1       0.170  13.262  20.624  0.00  0.00    +0.000 A 
ATOM     18 CL   UNL     1       0.476  14.707  19.740  0.00  0.00    +0.000 Cl
ATOM     19  C   UNL     1      -0.244  13.338  21.942  0.00  0.00    +0.000 A 
ATOM     20  C   UNL     1      -0.493  12.162  22.638  0.00  0.00    +0.000 A 
ATOM     21  C   UNL     1      -0.351  10.896  22.021  0.00  0.00    +0.000 A 
ATOM     22  C   UNL     1      -0.740   9.705  22.866  0.00  0.00    +0.000 C 
ENDBRANCH  12  15
ENDBRANCH   6   7
BRANCH   1  26
ATOM     23  C   UNL     1       6.370   4.509  16.406  0.00  0.00    +0.000 A 
ATOM     24  C   UNL     1       5.155   4.080  15.851  0.00  0.00    +0.000 A 
ATOM     25  C   UNL     1       4.061   3.782  16.662  0.00  0.00    +0.000 A 
ATOM     26  C   UNL     1       4.166   3.851  18.053  0.00  0.00    +0.000 A 
ATOM     27  C   UNL     1       5.425   4.151  18.602  0.00  0.00    +0.000 A 
ATOM     28  C   UNL     1       6.523   4.503  17.799  0.00  0.00    +0.000 A 
BRANCH  23  30
ATOM     29  C   UNL     1       7.119   4.880  14.199  0.00  0.00    +0.000 C 
ATOM     30  O   UNL     1       7.401   4.919  15.601  0.00  0.00    +0.000 OA
ENDBRANCH  23  30
BRANCH  28  31
ATOM     31  O   UNL     1       7.612   4.846  18.554  0.00  0.00    +0.000 OA
ATOM     32  C   UNL     1       7.837   6.207  18.885  0.00  0.00    +0.000 C 
ENDBRANCH  28  31
ENDBRANCH   1  26
TORSDOF 5
ENDMDL
MODEL 2
REMARK VINA RESULT:      -8.6      1.181      1.324
REMARK  Name = 
REMARK  8 active torsions:
REMARK  status: ('A' for Active; 'I' for Inactive)
REMARK    1  A    between atoms: C_1  and  O_2
REMARK    2  A    between atoms: O_2  and  C_3
REMARK    3  A    between atoms: C_6  and  C_7
REMARK    4  A    between atoms: C_12  and  C_13
REMARK    5  A    between atoms: N_18  and  C_19
REMARK    6  A    between atoms: C_25  and  C_26
REMARK    7  A    between atoms: C_30  and  O_31
REMARK    8  A    between atoms: O_31  and  C_32
REMARK                            x       y       z     vdW  Elec       q    Type
REMARK                         _______ _______ _______ _____ _____    ______ ____
ROOT
ATOM      1  C   UNL     1       3.033   4.090  18.696  0.00  0.00    +0.000 C 
ATOM      2  O   UNL     1       3.320   3.771  20.062  0.00  0.00    +0.000 OA
ATOM      3  C   UNL     1       2.452   4.419  20.879  0.00  0.00    +0.000 C 
ATOM      4  O   UNL     1       2.452   4.311  22.094  0.00  0.00    +0.000 OA
ATOM      5  C   UNL     1       1.533   5.298  20.097  0.00  0.00    +0.000 C 
ATOM      6  C   UNL     1       2.167   5.326  18.724  0.00  0.00    +0.000 C 
ENDROOT
BRANCH   6   7
ATOM      7  C   UNL     1       2.713   6.697  18.332  0.00  0.00    +0.000 C 
ATOM      8  O   UNL     1       3.489   6.719  17.366  0.00  0.00    +0.000 OA
ATOM      9  N   UNL     1       2.308   7.877  18.911  0.00  0.00    +0.000 N 
ATOM     10  C   UNL     1       2.580   9.142  18.206  0.00  0.00    +0.000 C 
ATOM     11  C   UNL     1       1.254   9.876  17.912  0.00  0.00    +0.000 C 
ATOM     12  N   UNL     1       0.460  10.087  19.149  0.00  0.00    +0.000 N 
ATOM     13  C   UNL     1       0.268   8.862  19.956  0.00  0.00    +0.000 C 
ATOM     14  C   UNL     1       1.593   8.099  20.169  0.00  0.00    +0.000 C 
BRANCH  12  15
ATOM     15  C   UNL     1       0.367  11.349  19.734  0.00  0.00    +0.000 A 
ATOM     16  C   UNL     1       1.523  11.982  20.242  0.00  0.00    +0.000 A 
ATOM     17  C   UNL     1       1.500  13.278  20.765  0.00  0.00    +0.000 A 
ATOM     18 CL   UNL     1       2.956  13.993  21.341  0.00  0.00    +0.000 Cl
ATOM     19  C   UNL     1       0.318  13.993  20.815  0.00  0.00    +0.000 A 
ATOM     20  C   UNL     1      -0.846  13.401  20.340  0.00  0.00    +0.000 A 
ATOM     21  C   UNL     1      -0.840  12.097  19.790  0.00  0.00    +0.000 A 
ATOM     22  C   UNL     1      -2.156  11.612  19.229  0.00  0.00    +0.000 C 
ENDBRANCH  12  15
ENDBRANCH   6   7
BRANCH   1  26
ATOM     23  C   UNL     1       6.538   4.489  16.206  0.00  0.00    +0.000 A 
ATOM     24  C   UNL     1       5.301   4.149  15.638  0.00  0.00    +0.000 A 
ATOM     25  C   UNL     1       4.172   3.960  16.434  0.00  0.00    +0.000 A 
ATOM     26  C   UNL     1       4.259   4.050  17.825  0.00  0.00    +0.000 A 
ATOM     27  C   UNL     1       5.530   4.257  18.391  0.00  0.00    +0.000 A 
ATOM     28  C   UNL     1       6.666   4.501  17.602  0.00  0.00    +0.000 A 
BRANCH  23  30
ATOM     29  C   UNL     1       7.314   4.914  14.018  0.00  0.00    +0.000 C 
ATOM     30  O   UNL     1       7.613   4.796  15.412  0.00  0.00    +0.000 OA
ENDBRANCH  23  30
BRANCH  28  31
ATOM     31  O   UNL     1       7.767   4.769  18.369  0.00  0.00    +0.000 OA
ATOM     32  C   UNL     1       7.699   5.775  19.368  0.00  0.00    +0.000 C 
ENDBRANCH  28  31
ENDBRANCH   1  26
TORSDOF 5
ENDMDL
MODEL 3
REMARK VINA RESULT:      -8.5      3.940      8.607
REMARK  Name = 
REMARK  8 active torsions:
REMARK  status: ('A' for Active; 'I' for Inactive)
REMARK    1  A    between atoms: C_1  and  O_2
REMARK    2  A    between atoms: O_2  and  C_3
REMARK    3  A    between atoms: C_6  and  C_7
REMARK    4  A    between atoms: C_12  and  C_13
REMARK    5  A    between atoms: N_18  and  C_19
REMARK    6  A    between atoms: C_25  and  C_26
REMARK    7  A    between atoms: C_30  and  O_31
REMARK    8  A    between atoms: O_31  and  C_32
REMARK                            x       y       z     vdW  Elec       q    Type
REMARK                         _______ _______ _______ _____ _____    ______ ____
ROOT
ATOM      1  C   UNL     1      -0.305  11.761  19.281  0.00  0.00    +0.000 C 
ATOM      2  O   UNL     1      -0.533  11.435  17.905  0.00  0.00    +0.000 OA
ATOM      3  C   UNL     1      -1.277  10.304  17.816  0.00  0.00    +0.000 C 
ATOM      4  O   UNL     1      -1.639   9.809  16.763  0.00  0.00    +0.000 OA
ATOM      5  C   UNL     1      -1.555   9.736  19.169  0.00  0.00    +0.000 C 
ATOM      6  C   UNL     1      -0.617  10.511  20.069  0.00  0.00    +0.000 C 
ENDROOT
BRANCH   6   7
ATOM      7  C   UNL     1       0.488   9.654  20.683  0.00  0.00    +0.000 C 
ATOM      8  O   UNL     1       0.463   9.533  21.915  0.00  0.00    +0.000 OA
ATOM      9  N   UNL     1       1.406   8.945  19.944  0.00  0.00    +0.000 N 
ATOM     10  C   UNL     1       2.151   7.855  20.598  0.00  0.00    +0.000 C 
ATOM     11  C   UNL     1       1.879   6.522  19.870  0.00  0.00    +0.000 C 
ATOM     12  N   UNL     1       2.189   6.616  18.421  0.00  0.00    +0.000 N 
ATOM     13  C   UNL     1       1.560   7.774  17.747  0.00  0.00    +0.000 C 
ATOM     14  C   UNL     1       1.774   9.084  18.534  0.00  0.00    +0.000 C 
BRANCH  12  15
ATOM     15  C   UNL     1       3.330   6.015  17.891  0.00  0.00    +0.000 A 
ATOM     16  C   UNL     1       4.541   6.737  17.812  0.00  0.00    +0.000 A 
ATOM     17  C   UNL     1       5.732   6.159  17.365  0.00  0.00    +0.000 A 
ATOM     18 CL   UNL     1       7.175   7.097  17.323  0.00  0.00    +0.000 Cl
ATOM     19  C   UNL     1       5.760   4.836  16.964  0.00  0.00    +0.000 A 
ATOM     20  C   UNL     1       4.587   4.093  17.010  0.00  0.00    +0.000 A 
ATOM     21  C   UNL     1       3.375   4.657  17.477  0.00  0.00    +0.000 A 
ATOM     22  C   UNL     1       2.199   3.712  17.560  0.00  0.00    +0.000 C 
ENDBRANCH  12  15
ENDBRANCH   6   7
BRANCH   1  26
ATOM     23  C   UNL     1       3.176  14.259  19.810  0.00  0.00    +0.000 A 
ATOM     24  C   UNL     1       2.994  13.543  18.617  0.00  0.00    +0.000 A 
ATOM     25  C   UNL     1       1.905  12.688  18.452  0.00  0.00    +0.000 A 
ATOM     26  C   UNL     1       0.999  12.479  19.495  0.00  0.00    +0.000 A 
ATOM     27  C   UNL     1       1.267  13.096  20.730  0.00  0.00    +0.000 A 
ATOM     28  C   UNL     1       2.329  14.000  20.896  0.00  0.00    +0.000 A 
BRANCH  23  30
ATOM     29  C   UNL     1       3.993  16.364  19.123  0.00  0.00    +0.000 C 
ATOM     30  O   UNL     1       4.176  15.191  19.921  0.00  0.00    +0.000 OA
ENDBRANCH  23  30
BRANCH  28  31
ATOM     31  O   UNL     1       2.337  14.546  22.151  0.00  0.00    +0.000 OA
ATOM     32  C   UNL     1       1.703  15.795  22.378  0.00  0.00    +0.000 C 
ENDBRANCH  28  31
ENDBRANCH   1  26
TORSDOF 5
ENDMDL
MODEL 4
REMARK VINA RESULT:      -8.5      5.683      9.497
REMARK  Name = 
REMARK  8 active torsions:
REMARK  status: ('A' for Active; 'I' for Inactive)
REMARK    1  A    between atoms: C_1  and  O_2
REMARK    2  A    between atoms: O_2  and  C_3
REMARK    3  A    between atoms: C_6  and  C_7
REMARK    4  A    between atoms: C_12  and  C_13
REMARK    5  A    between atoms: N_18  and  C_19
REMARK    6  A    between atoms: C_25  and  C_26
REMARK    7  A    between atoms: C_30  and  O_31
REMARK    8  A    between atoms: O_31  and  C_32
REMARK                            x       y       z     vdW  Elec       q    Type
REMARK                         _______ _______ _______ _____ _____    ______ ____
ROOT
ATOM      1  C   UNL     1      -1.362  10.355  18.808  0.00  0.00    +0.000 C 
ATOM      2  O   UNL     1      -0.500   9.898  17.759  0.00  0.00    +0.000 OA
ATOM      3  C   UNL     1       0.789   9.903  18.185  0.00  0.00    +0.000 C 
ATOM      4  O   UNL     1       1.732   9.540  17.504  0.00  0.00    +0.000 OA
ATOM      5  C   UNL     1       0.892  10.443  19.574  0.00  0.00    +0.000 C 
ATOM      6  C   UNL     1      -0.473  11.049  19.813  0.00  0.00    +0.000 C 
ENDROOT
BRANCH   6   7
ATOM      7  C   UNL     1      -0.450  12.570  19.947  0.00  0.00    +0.000 C 
ATOM      8  O   UNL     1       0.073  13.192  19.013  0.00  0.00    +0.000 OA
ATOM      9  N   UNL     1      -1.064  13.257  20.968  0.00  0.00    +0.000 N 
ATOM     10  C   UNL     1      -1.329  14.696  20.794  0.00  0.00    +0.000 C 
ATOM     11  C   UNL     1      -2.844  14.969  20.908  0.00  0.00    +0.000 C 
ATOM     12  N   UNL     1      -3.399  14.451  22.185  0.00  0.00    +0.000 N 
ATOM     13  C   UNL     1      -3.050  13.040  22.462  0.00  0.00    +0.000 C 
ATOM     14  C   UNL     1      -1.544  12.769  22.262  0.00  0.00    +0.000 C 
BRANCH  12  15
ATOM     15  C   UNL     1      -3.744  15.318  23.220  0.00  0.00    +0.000 A 
ATOM     16  C   UNL     1      -2.737  15.916  24.010  0.00  0.00    +0.000 A 
ATOM     17  C   UNL     1      -3.023  16.853  25.006  0.00  0.00    +0.000 A 
ATOM     18 CL   UNL     1      -1.739  17.560  25.909  0.00  0.00    +0.000 Cl
ATOM     19  C   UNL     1      -4.330  17.222  25.266  0.00  0.00    +0.000 A 
ATOM     20  C   UNL     1      -5.353  16.646  24.524  0.00  0.00    +0.000 A 
ATOM     21  C   UNL     1      -5.082  15.709  23.498  0.00  0.00    +0.000 A 
ATOM     22  C   UNL     1      -6.278  15.231  22.710  0.00  0.00    +0.000 C 
ENDBRANCH  12  15
ENDBRANCH   6   7
BRANCH   1  26
ATOM     23  C   UNL     1      -5.148  11.927  17.456  0.00  0.00    +0.000 A 
ATOM     24  C   UNL     1      -4.228  11.406  16.533  0.00  0.00    +0.000 A 
ATOM     25  C   UNL     1      -2.978  10.947  16.946  0.00  0.00    +0.000 A 
ATOM     26  C   UNL     1      -2.589  11.048  18.284  0.00  0.00    +0.000 A 
ATOM     27  C   UNL     1      -3.464  11.695  19.175  0.00  0.00    +0.000 A 
ATOM     28  C   UNL     1      -4.747  12.115  18.786  0.00  0.00    +0.000 A 
BRANCH  23  30
ATOM     29  C   UNL     1      -6.631  13.656  16.837  0.00  0.00    +0.000 C 
ATOM     30  O   UNL     1      -6.420  12.260  17.065  0.00  0.00    +0.000 OA
ENDBRANCH  23  30
BRANCH  28  31
ATOM     31  O   UNL     1      -5.452  12.629  19.840  0.00  0.00    +0.000 OA
ATOM     32  C   UNL     1      -6.375  11.807  20.535  0.00  0.00    +0.000 C 
ENDBRANCH  28  31
ENDBRANCH   1  26
TORSDOF 5
ENDMDL
MODEL 5
REMARK VINA RESULT:      -8.5      4.819      9.256
REMARK  Name = 
REMARK  8 active torsions:
REMARK  status: ('A' for Active; 'I' for Inactive)
REMARK    1  A    between atoms: C_1  and  O_2
REMARK    2  A    between atoms: O_2  and  C_3
REMARK    3  A    between atoms: C_6  and  C_7
REMARK    4  A    between atoms: C_12  and  C_13
REMARK    5  A    between atoms: N_18  and  C_19
REMARK    6  A    between atoms: C_25  and  C_26
REMARK    7  A    between atoms: C_30  and  O_31
REMARK    8  A    between atoms: O_31  and  C_32
REMARK                            x       y       z     vdW  Elec       q    Type
REMARK                         _______ _______ _______ _____ _____    ______ ____
ROOT
ATOM      1  C   UNL     1      -0.598  13.490  22.420  0.00  0.00    +0.000 C 
ATOM      2  O   UNL     1      -1.803  14.211  22.703  0.00  0.00    +0.000 OA
ATOM      3  C   UNL     1      -2.751  13.360  23.171  0.00  0.00    +0.000 C 
ATOM      4  O   UNL     1      -3.868  13.709  23.514  0.00  0.00    +0.000 OA
ATOM      5  C   UNL     1      -2.254  11.952  23.175  0.00  0.00    +0.000 C 
ATOM      6  C   UNL     1      -0.984  12.031  22.356  0.00  0.00    +0.000 C 
ENDROOT
BRANCH   6   7
ATOM      7  C   UNL     1      -1.067  11.282  21.028  0.00  0.00    +0.000 C 
ATOM      8  O   UNL     1      -1.602  11.890  20.091  0.00  0.00    +0.000 OA
ATOM      9  N   UNL     1      -0.493  10.052  20.806  0.00  0.00    +0.000 N 
ATOM     10  C   UNL     1      -0.281   9.610  19.417  0.00  0.00    +0.000 C 
ATOM     11  C   UNL     1       1.221   9.353  19.170  0.00  0.00    +0.000 C 
ATOM     12  N   UNL     1       1.780   8.389  20.152  0.00  0.00    +0.000 N 
ATOM     13  C   UNL     1       1.482   8.728  21.561  0.00  0.00    +0.000 C 
ATOM     14  C   UNL     1      -0.011   9.062  21.771  0.00  0.00    +0.000 C 
BRANCH  12  15
ATOM     15  C   UNL     1       2.078   7.079  19.781  0.00  0.00    +0.000 A 
ATOM     16  C   UNL     1       1.609   5.996  20.558  0.00  0.00    +0.000 A 
ATOM     17  C   UNL     1       1.811   4.664  20.188  0.00  0.00    +0.000 A 
ATOM     18 CL   UNL     1       1.184   3.399  21.172  0.00  0.00    +0.000 Cl
ATOM     19  C   UNL     1       2.503   4.356  19.031  0.00  0.00    +0.000 A 
ATOM     20  C   UNL     1       2.996   5.390  18.246  0.00  0.00    +0.000 A 
ATOM     21  C   UNL     1       2.786   6.746  18.595  0.00  0.00    +0.000 A 
ATOM     22  C   UNL     1       3.297   7.767  17.606  0.00  0.00    +0.000 C 
ENDBRANCH  12  15
ENDBRANCH   6   7
BRANCH   1  26
ATOM     23  C   UNL     1       1.835  15.614  19.556  0.00  0.00    +0.000 A 
ATOM     24  C   UNL     1       0.441  15.774  19.556  0.00  0.00    +0.000 A 
ATOM     25  C   UNL     1      -0.364  15.051  20.436  0.00  0.00    +0.000 A 
ATOM     26  C   UNL     1       0.195  14.109  21.302  0.00  0.00    +0.000 A 
ATOM     27  C   UNL     1       1.575  13.860  21.198  0.00  0.00    +0.000 A 
ATOM     28  C   UNL     1       2.407  14.615  20.355  0.00  0.00    +0.000 A 
BRANCH  23  30
ATOM     29  C   UNL     1       1.921  17.297  17.904  0.00  0.00    +0.000 C 
ATOM     30  O   UNL     1       2.631  16.416  18.778  0.00  0.00    +0.000 OA
ENDBRANCH  23  30
BRANCH  28  31
ATOM     31  O   UNL     1       3.721  14.260  20.492  0.00  0.00    +0.000 OA
ATOM     32  C   UNL     1       4.299  14.187  21.785  0.00  0.00    +0.000 C 
ENDBRANCH  28  31
ENDBRANCH   1  26
TORSDOF 5
ENDMDL
MODEL 6
REMARK VINA RESULT:      -8.5      5.606      9.087
REMARK  Name = 
REMARK  8 active torsions:
REMARK  status: ('A' for Active; 'I' for Inactive)
REMARK    1  A    between atoms: C_1  and  O_2
REMARK    2  A    between atoms: O_2  and  C_3
REMARK    3  A    between atoms: C_6  and  C_7
REMARK    4  A    between atoms: C_12  and  C_13
REMARK    5  A    between atoms: N_18  and  C_19
REMARK    6  A    between atoms: C_25  and  C_26
REMARK    7  A    between atoms: C_30  and  O_31
REMARK    8  A    between atoms: O_31  and  C_32
REMARK                            x       y       z     vdW  Elec       q    Type
REMARK                         _______ _______ _______ _____ _____    ______ ____
ROOT
ATOM      1  C   UNL     1      -1.019  10.134  18.798  0.00  0.00    +0.000 C 
ATOM      2  O   UNL     1      -0.093   9.736  17.780  0.00  0.00    +0.000 OA
ATOM      3  C   UNL     1       1.176   9.988  18.187  0.00  0.00    +0.000 C 
ATOM      4  O   UNL     1       2.166   9.726  17.526  0.00  0.00    +0.000 OA
ATOM      5  C   UNL     1       1.190  10.653  19.524  0.00  0.00    +0.000 C 
ATOM      6  C   UNL     1      -0.256  11.047  19.729  0.00  0.00    +0.000 C 
ENDROOT
BRANCH   6   7
ATOM      7  C   UNL     1      -0.483  12.557  19.734  0.00  0.00    +0.000 C 
ATOM      8  O   UNL     1      -0.182  13.157  18.694  0.00  0.00    +0.000 OA
ATOM      9  N   UNL     1      -1.090  13.236  20.765  0.00  0.00    +0.000 N 
ATOM     10  C   UNL     1      -1.618  14.587  20.509  0.00  0.00    +0.000 C 
ATOM     11  C   UNL     1      -3.135  14.621  20.790  0.00  0.00    +0.000 C 
ATOM     12  N   UNL     1      -3.448  14.153  22.164  0.00  0.00    +0.000 N 
ATOM     13  C   UNL     1      -2.831  12.853  22.510  0.00  0.00    +0.000 C 
ATOM     14  C   UNL     1      -1.332  12.811  22.145  0.00  0.00    +0.000 C 
BRANCH  12  15
ATOM     15  C   UNL     1      -3.821  15.054  23.161  0.00  0.00    +0.000 A 
ATOM     16  C   UNL     1      -2.835  15.695  23.943  0.00  0.00    +0.000 A 
ATOM     17  C   UNL     1      -3.150  16.665  24.898  0.00  0.00    +0.000 A 
ATOM     18 CL   UNL     1      -1.890  17.423  25.794  0.00  0.00    +0.000 Cl
ATOM     19  C   UNL     1      -4.466  17.026  25.123  0.00  0.00    +0.000 A 
ATOM     20  C   UNL     1      -5.468  16.407  24.387  0.00  0.00    +0.000 A 
ATOM     21  C   UNL     1      -5.168  15.436  23.402  0.00  0.00    +0.000 A 
ATOM     22  C   UNL     1      -6.345  14.912  22.614  0.00  0.00    +0.000 C 
ENDBRANCH  12  15
ENDBRANCH   6   7
BRANCH   1  26
ATOM     23  C   UNL     1      -4.597  11.842  17.091  0.00  0.00    +0.000 A 
ATOM     24  C   UNL     1      -4.477  11.696  18.481  0.00  0.00    +0.000 A 
ATOM     25  C   UNL     1      -3.353  11.094  19.045  0.00  0.00    +0.000 A 
ATOM     26  C   UNL     1      -2.343  10.570  18.235  0.00  0.00    +0.000 A 
ATOM     27  C   UNL     1      -2.538  10.601  16.842  0.00  0.00    +0.000 A 
ATOM     28  C   UNL     1      -3.639  11.250  16.258  0.00  0.00    +0.000 A 
BRANCH  23  30
ATOM     29  C   UNL     1      -6.821  12.585  17.358  0.00  0.00    +0.000 C 
ATOM     30  O   UNL     1      -5.643  12.545  16.549  0.00  0.00    +0.000 OA
ENDBRANCH  23  30
BRANCH  28  31
ATOM     31  O   UNL     1      -3.568  11.234  14.891  0.00  0.00    +0.000 OA
ATOM     32  C   UNL     1      -3.424   9.999  14.209  0.00  0.00    +0.000 C 
ENDBRANCH  28  31
ENDBRANCH   1  26
TORSDOF 5
ENDMDL
MODEL 7
REMARK VINA RESULT:      -8.3      5.224     10.025
REMARK  Name = 
REMARK  8 active torsions:
REMARK  status: ('A' for Active; 'I' for Inactive)
REMARK    1  A    between atoms: C_1  and  O_2
REMARK    2  A    between atoms: O_2  and  C_3
REMARK    3  A    between atoms: C_6  and  C_7
REMARK    4  A    between atoms: C_12  and  C_13
REMARK    5  A    between atoms: N_18  and  C_19
REMARK    6  A    between atoms: C_25  and  C_26
REMARK    7  A    between atoms: C_30  and  O_31
REMARK    8  A    between atoms: O_31  and  C_32
REMARK                            x       y       z     vdW  Elec       q    Type
REMARK                         _______ _______ _______ _____ _____    ______ ____
ROOT
ATOM      1  C   UNL     1      -2.347  14.298  21.396  0.00  0.00    +0.000 C 
ATOM      2  O   UNL     1      -3.127  15.091  22.299  0.00  0.00    +0.000 OA
ATOM      3  C   UNL     1      -2.362  15.477  23.352  0.00  0.00    +0.000 C 
ATOM      4  O   UNL     1      -2.764  16.181  24.262  0.00  0.00    +0.000 OA
ATOM      5  C   UNL     1      -0.989  14.898  23.259  0.00  0.00    +0.000 C 
ATOM      6  C   UNL     1      -1.124  13.860  22.166  0.00  0.00    +0.000 C 
ENDROOT
BRANCH   6   7
ATOM      7  C   UNL     1      -0.960  12.426  22.662  0.00  0.00    +0.000 C 
ATOM      8  O   UNL     1      -1.693  12.087  23.602  0.00  0.00    +0.000 OA
ATOM      9  N   UNL     1      -0.147  11.495  22.060  0.00  0.00    +0.000 N 
ATOM     10  C   UNL     1      -0.363  10.068  22.355  0.00  0.00    +0.000 C 
ATOM     11  C   UNL     1      -0.686   9.304  21.053  0.00  0.00    +0.000 C 
ATOM     12  N   UNL     1       0.367   9.507  20.025  0.00  0.00    +0.000 N 
ATOM     13  C   UNL     1       0.707  10.927  19.786  0.00  0.00    +0.000 C 
ATOM     14  C   UNL     1       0.945  11.692  21.105  0.00  0.00    +0.000 C 
BRANCH  12  15
ATOM     15  C   UNL     1       1.275   8.494  19.720  0.00  0.00    +0.000 A 
ATOM     16  C   UNL     1       1.359   7.346  20.539  0.00  0.00    +0.000 A 
ATOM     17  C   UNL     1       2.193   6.267  20.236  0.00  0.00    +0.000 A 
ATOM     18 CL   UNL     1       2.220   4.890  21.269  0.00  0.00    +0.000 Cl
ATOM     19  C   UNL     1       2.990   6.294  19.106  0.00  0.00    +0.000 A 
ATOM     20  C   UNL     1       2.951   7.411  18.282  0.00  0.00    +0.000 A 
ATOM     21  C   UNL     1       2.099   8.506  18.563  0.00  0.00    +0.000 A 
ATOM     22  C   UNL     1       2.089   9.613  17.535  0.00  0.00    +0.000 C 
ENDBRANCH  12  15
ENDBRANCH   6   7
BRANCH   1  26
ATOM     23  C   UNL     1      -4.800  11.748  18.923  0.00  0.00    +0.000 A 
ATOM     24  C   UNL     1      -5.329  12.327  20.087  0.00  0.00    +0.000 A 
ATOM     25  C   UNL     1      -4.535  13.105  20.927  0.00  0.00    +0.000 A 
ATOM     26  C   UNL     1      -3.175  13.282  20.659  0.00  0.00    +0.000 A 
ATOM     27  C   UNL     1      -2.626  12.588  19.566  0.00  0.00    +0.000 A 
ATOM     28  C   UNL     1      -3.422  11.842  18.681  0.00  0.00    +0.000 A 
BRANCH  23  30
ATOM     29  C   UNL     1      -6.811  10.554  18.606  0.00  0.00    +0.000 C 
ATOM     30  O   UNL     1      -5.612  11.088  18.037  0.00  0.00    +0.000 OA
ENDBRANCH  23  30
BRANCH  28  31
ATOM     31  O   UNL     1      -2.688  11.337  17.643  0.00  0.00    +0.000 OA
ATOM     32  C   UNL     1      -2.345   9.960  17.629  0.00  0.00    +0.000 C 
ENDBRANCH  28  31
ENDBRANCH   1  26
TORSDOF 5
ENDMDL
MODEL 8
REMARK VINA RESULT:      -8.3      1.029      1.608
REMARK  Name = 
REMARK  8 active torsions:
REMARK  status: ('A' for Active; 'I' for Inactive)
REMARK    1  A    between atoms: C_1  and  O_2
REMARK    2  A    between atoms: O_2  and  C_3
REMARK    3  A    between atoms: C_6  and  C_7
REMARK    4  A    between atoms: C_12  and  C_13
REMARK    5  A    between atoms: N_18  and  C_19
REMARK    6  A    between atoms: C_25  and  C_26
REMARK    7  A    between atoms: C_30  and  O_31
REMARK    8  A    between atoms: O_31  and  C_32
REMARK                            x       y       z     vdW  Elec       q    Type
REMARK                         _______ _______ _______ _____ _____    ______ ____
ROOT
ATOM      1  C   UNL     1       3.027   3.965  18.803  0.00  0.00    +0.000 C 
ATOM      2  O   UNL     1       3.318   3.638  20.168  0.00  0.00    +0.000 OA
ATOM      3  C   UNL     1       2.437   4.264  20.989  0.00  0.00    +0.000 C 
ATOM      4  O   UNL     1       2.437   4.146  22.202  0.00  0.00    +0.000 OA
ATOM      5  C   UNL     1       1.503   5.133  20.213  0.00  0.00    +0.000 C 
ATOM      6  C   UNL     1       2.138   5.184  18.840  0.00  0.00    +0.000 C 
ENDROOT
BRANCH   6   7
ATOM      7  C   UNL     1       2.660   6.568  18.461  0.00  0.00    +0.000 C 
ATOM      8  O   UNL     1       3.383   6.622  17.457  0.00  0.00    +0.000 OA
ATOM      9  N   UNL     1       2.285   7.729  19.097  0.00  0.00    +0.000 N 
ATOM     10  C   UNL     1       2.515   9.015  18.417  0.00  0.00    +0.000 C 
ATOM     11  C   UNL     1       1.174   9.753  18.217  0.00  0.00    +0.000 C 
ATOM     12  N   UNL     1       0.448   9.925  19.501  0.00  0.00    +0.000 N 
ATOM     13  C   UNL     1       0.303   8.675  20.280  0.00  0.00    +0.000 C 
ATOM     14  C   UNL     1       1.639   7.911  20.398  0.00  0.00    +0.000 C 
BRANCH  12  15
ATOM     15  C   UNL     1       0.385  11.168  20.128  0.00  0.00    +0.000 A 
ATOM     16  C   UNL     1      -0.420  11.345  21.275  0.00  0.00    +0.000 A 
ATOM     17  C   UNL     1      -0.458  12.545  21.988  0.00  0.00    +0.000 A 
ATOM     18 CL   UNL     1      -1.443  12.675  23.394  0.00  0.00    +0.000 Cl
ATOM     19  C   UNL     1       0.298  13.628  21.577  0.00  0.00    +0.000 A 
ATOM     20  C   UNL     1       1.091  13.503  20.443  0.00  0.00    +0.000 A 
ATOM     21  C   UNL     1       1.156  12.289  19.719  0.00  0.00    +0.000 A 
ATOM     22  C   UNL     1       2.127  12.264  18.562  0.00  0.00    +0.000 C 
ENDBRANCH  12  15
ENDBRANCH   6   7
BRANCH   1  26
ATOM     23  C   UNL     1       6.514   4.448  16.305  0.00  0.00    +0.000 A 
ATOM     24  C   UNL     1       5.294   4.040  15.745  0.00  0.00    +0.000 A 
ATOM     25  C   UNL     1       4.173   3.823  16.546  0.00  0.00    +0.000 A 
ATOM     26  C   UNL     1       4.254   3.954  17.934  0.00  0.00    +0.000 A 
ATOM     27  C   UNL     1       5.514   4.231  18.495  0.00  0.00    +0.000 A 
ATOM     28  C   UNL     1       6.640   4.503  17.700  0.00  0.00    +0.000 A 
BRANCH  23  30
ATOM     29  C   UNL     1       7.282   4.813  14.103  0.00  0.00    +0.000 C 
ATOM     30  O   UNL     1       7.576   4.780  15.503  0.00  0.00    +0.000 OA
ENDBRANCH  23  30
BRANCH  28  31
ATOM     31  O   UNL     1       7.727   4.839  18.460  0.00  0.00    +0.000 OA
ATOM     32  C   UNL     1       7.859   6.163  18.951  0.00  0.00    +0.000 C 
ENDBRANCH  28  31
ENDBRANCH   1  26
TORSDOF 5
ENDMDL
MODEL 9
REMARK VINA RESULT:      -8.2      4.498      9.149
REMARK  Name = 
REMARK  8 active torsions:
REMARK  status: ('A' for Active; 'I' for Inactive)
REMARK    1  A    between atoms: C_1  and  O_2
REMARK    2  A    between atoms: O_2  and  C_3
REMARK    3  A    between atoms: C_6  and  C_7
REMARK    4  A    between atoms: C_12  and  C_13
REMARK    5  A    between atoms: N_18  and  C_19
REMARK    6  A    between atoms: C_25  and  C_26
REMARK    7  A    between atoms: C_30  and  O_31
REMARK    8  A    between atoms: O_31  and  C_32
REMARK                            x       y       z     vdW  Elec       q    Type
REMARK                         _______ _______ _______ _____ _____    ______ ____
ROOT
ATOM      1  C   UNL     1       0.309  12.741  21.562  0.00  0.00    +0.000 C 
ATOM      2  O   UNL     1      -0.973  13.065  22.113  0.00  0.00    +0.000 OA
ATOM      3  C   UNL     1      -1.571  11.940  22.582  0.00  0.00    +0.000 C 
ATOM      4  O   UNL     1      -2.662  11.927  23.124  0.00  0.00    +0.000 OA
ATOM      5  C   UNL     1      -0.733  10.734  22.312  0.00  0.00    +0.000 C 
ATOM      6  C   UNL     1       0.310  11.247  21.343  0.00  0.00    +0.000 C 
ENDROOT
BRANCH   6   7
ATOM      7  C   UNL     1       0.194  10.642  19.946  0.00  0.00    +0.000 C 
ATOM      8  O   UNL     1      -0.209  11.402  19.054  0.00  0.00    +0.000 OA
ATOM      9  N   UNL     1       0.609   9.371  19.624  0.00  0.00    +0.000 N 
ATOM     10  C   UNL     1       0.829   9.034  18.207  0.00  0.00    +0.000 C 
ATOM     11  C   UNL     1       2.294   8.598  17.991  0.00  0.00    +0.000 C 
ATOM     12  N   UNL     1       2.670   7.479  18.894  0.00  0.00    +0.000 N 
ATOM     13  C   UNL     1       2.350   7.724  20.318  0.00  0.00    +0.000 C 
ATOM     14  C   UNL     1       0.907   8.239  20.504  0.00  0.00    +0.000 C 
BRANCH  12  15
ATOM     15  C   UNL     1       2.809   6.181  18.406  0.00  0.00    +0.000 A 
ATOM     16  C   UNL     1       1.852   5.194  18.731  0.00  0.00    +0.000 A 
ATOM     17  C   UNL     1       1.900   3.901  18.206  0.00  0.00    +0.000 A 
ATOM     18 CL   UNL     1       0.681   2.761  18.627  0.00  0.00    +0.000 Cl
ATOM     19  C   UNL     1       2.916   3.532  17.342  0.00  0.00    +0.000 A 
ATOM     20  C   UNL     1       3.887   4.468  17.009  0.00  0.00    +0.000 A 
ATOM     21  C   UNL     1       3.845   5.788  17.517  0.00  0.00    +0.000 A 
ATOM     22  C   UNL     1       4.911   6.726  17.001  0.00  0.00    +0.000 C 
ENDBRANCH  12  15
ENDBRANCH   6   7
BRANCH   1  26
ATOM     23  C   UNL     1       1.548  15.746  18.722  0.00  0.00    +0.000 A 
ATOM     24  C   UNL     1       0.185  15.465  18.906  0.00  0.00    +0.000 A 
ATOM     25  C   UNL     1      -0.229  14.458  19.776  0.00  0.00    +0.000 A 
ATOM     26  C   UNL     1       0.707  13.666  20.445  0.00  0.00    +0.000 A 
ATOM     27  C   UNL     1       2.067  13.866  20.150  0.00  0.00    +0.000 A 
ATOM     28  C   UNL     1       2.503  14.910  19.316  0.00  0.00    +0.000 A 
BRANCH  23  30
ATOM     29  C   UNL     1       0.949  17.827  17.783  0.00  0.00    +0.000 C 
ATOM     30  O   UNL     1       1.946  16.817  17.962  0.00  0.00    +0.000 OA
ENDBRANCH  23  30
BRANCH  28  31
ATOM     31  O   UNL     1       3.868  14.970  19.252  0.00  0.00    +0.000 OA
ATOM     32  C   UNL     1       4.632  14.874  20.444  0.00  0.00    +0.000 C 
ENDBRANCH  28  31
ENDBRANCH   1  26
TORSDOF 5
ENDMDL
