MODEL 1
REMARK VINA RESULT:      -7.7      0.000      0.000
REMARK  Name = 
REMARK  4 active torsions:
REMARK  status: ('A' for Active; 'I' for Inactive)
REMARK    1  A    between atoms: C_2  and  C_3
REMARK    2  A    between atoms: C_3  and  C_4
REMARK    3  A    between atoms: C_17  and  C_18
REMARK    4  A    between atoms: C_18  and  N_19
REMARK                            x       y       z     vdW  Elec       q    Type
REMARK                         _______ _______ _______ _____ _____    ______ ____
ROOT
ATOM      1  O   UNL     1       5.025   2.215  19.971  0.00  0.00    +0.000 OA
ATOM      2  C   UNL     1       4.438   3.294  19.843  0.00  0.00    +0.000 C 
ATOM      3  N   UNL     1       3.053   3.374  19.895  0.00  0.00    +0.000 N 
ATOM      4  C   UNL     1       2.279   2.160  20.108  0.00  0.00    +0.000 C 
ATOM      5  C   UNL     1       1.190   2.236  19.058  0.00  0.00    +0.000 C 
ATOM      6  C   UNL     1       0.858   3.721  19.039  0.00  0.00    +0.000 C 
ATOM      7  C   UNL     1       2.205   4.432  19.302  0.00  0.00    +0.000 C 
ENDROOT
BRANCH   2   8
ATOM      8  C   UNL     1       5.246   4.568  19.694  0.00  0.00    +0.000 C 
BRANCH   8   9
ATOM      9  C   UNL     1       5.770   4.888  18.316  0.00  0.00    +0.000 A 
ATOM     10  C   UNL     1       6.810   5.841  18.186  0.00  0.00    +0.000 A 
ATOM     11  C   UNL     1       7.393   6.117  16.948  0.00  0.00    +0.000 A 
ATOM     12  C   UNL     1       6.937   5.417  15.852  0.00  0.00    +0.000 A 
ATOM     13  C   UNL     1       5.923   4.481  15.955  0.00  0.00    +0.000 A 
ATOM     14  C   UNL     1       5.329   4.195  17.175  0.00  0.00    +0.000 A 
ATOM     15  C   UNL     1       5.615   3.951  14.608  0.00  0.00    +0.000 C 
ATOM     16  C   UNL     1       6.860   4.442  13.868  0.00  0.00    +0.000 C 
ATOM     17  O   UNL     1       7.418   5.574  14.578  0.00  0.00    +0.000 OA
ENDBRANCH   8   9
ENDBRANCH   2   8
BRANCH   7  18
ATOM     18  C   UNL     1       2.007   5.655  20.209  0.00  0.00    +0.000 C 
BRANCH  18  19
ATOM     19  N   UNL     1       2.083   6.916  19.494  0.00  0.00    +0.000 N 
ATOM     20  C   UNL     1       2.619   7.126  18.256  0.00  0.00    +0.000 A 
ATOM     21  C   UNL     1       2.429   8.461  17.983  0.00  0.00    +0.000 A 
ATOM     22  C   UNL     1       1.761   8.967  19.113  0.00  0.00    +0.000 A 
ATOM     23  N   UNL     1       1.542   8.023  20.034  0.00  0.00    +0.000 NA
ENDBRANCH  18  19
ENDBRANCH   7  18
TORSDOF 4
ENDMDL
MODEL 2
REMARK VINA RESULT:      -7.6      2.947      6.104
REMARK  Name = 
REMARK  4 active torsions:
REMARK  status: ('A' for Active; 'I' for Inactive)
REMARK    1  A    between atoms: C_2  and  C_3
REMARK    2  A    between atoms: C_3  and  C_4
REMARK    3  A    between atoms: C_17  and  C_18
REMARK    4  A    between atoms: C_18  and  N_19
REMARK                            x       y       z     vdW  Elec       q    Type
REMARK                         _______ _______ _______ _____ _____    ______ ____
ROOT
ATOM      1  O   UNL     1       0.967   4.728  20.674  0.00  0.00    +0.000 OA
ATOM      2  C   UNL     1       1.929   4.852  19.910  0.00  0.00    +0.000 C 
ATOM      3  N   UNL     1       2.175   3.930  18.902  0.00  0.00    +0.000 N 
ATOM      4  C   UNL     1       1.277   2.795  18.743  0.00  0.00    +0.000 C 
ATOM      5  C   UNL     1       2.212   1.611  18.608  0.00  0.00    +0.000 C 
ATOM      6  C   UNL     1       3.354   2.188  17.784  0.00  0.00    +0.000 C 
ATOM      7  C   UNL     1       3.475   3.657  18.251  0.00  0.00    +0.000 C 
ENDROOT
BRANCH   2   8
ATOM      8  C   UNL     1       2.822   6.072  20.028  0.00  0.00    +0.000 C 
BRANCH   8   9
ATOM      9  C   UNL     1       2.213   7.403  19.661  0.00  0.00    +0.000 A 
ATOM     10  C   UNL     1       2.307   7.849  18.320  0.00  0.00    +0.000 A 
ATOM     11  C   UNL     1       1.692   9.030  17.901  0.00  0.00    +0.000 A 
ATOM     12  C   UNL     1       0.970   9.744  18.833  0.00  0.00    +0.000 A 
ATOM     13  C   UNL     1       0.863   9.327  20.148  0.00  0.00    +0.000 A 
ATOM     14  C   UNL     1       1.470   8.159  20.585  0.00  0.00    +0.000 A 
ATOM     15  C   UNL     1       0.085  10.328  20.912  0.00  0.00    +0.000 C 
ATOM     16  C   UNL     1      -0.522  11.101  19.740  0.00  0.00    +0.000 C 
ATOM     17  O   UNL     1       0.307  10.913  18.568  0.00  0.00    +0.000 OA
ENDBRANCH   8   9
ENDBRANCH   2   8
BRANCH   7  18
ATOM     18  C   UNL     1       3.786   4.581  17.064  0.00  0.00    +0.000 C 
BRANCH  18  19
ATOM     19  N   UNL     1       5.181   4.551  16.666  0.00  0.00    +0.000 N 
ATOM     20  C   UNL     1       5.670   4.554  15.391  0.00  0.00    +0.000 A 
ATOM     21  C   UNL     1       7.040   4.558  15.511  0.00  0.00    +0.000 A 
ATOM     22  C   UNL     1       7.279   4.567  16.898  0.00  0.00    +0.000 A 
ATOM     23  N   UNL     1       6.144   4.570  17.605  0.00  0.00    +0.000 NA
ENDBRANCH  18  19
ENDBRANCH   7  18
TORSDOF 4
ENDMDL
MODEL 3
REMARK VINA RESULT:      -7.6      2.979      5.937
REMARK  Name = 
REMARK  4 active torsions:
REMARK  status: ('A' for Active; 'I' for Inactive)
REMARK    1  A    between atoms: C_2  and  C_3
REMARK    2  A    between atoms: C_3  and  C_4
REMARK    3  A    between atoms: C_17  and  C_18
REMARK    4  A    between atoms: C_18  and  N_19
REMARK                            x       y       z     vdW  Elec       q    Type
REMARK                         _______ _______ _______ _____ _____    ______ ____
ROOT
ATOM      1  O   UNL     1       0.935   4.651  20.442  0.00  0.00    +0.000 OA
ATOM      2  C   UNL     1       1.977   4.876  19.819  0.00  0.00    +0.000 C 
ATOM      3  N   UNL     1       2.394   4.050  18.785  0.00  0.00    +0.000 N 
ATOM      4  C   UNL     1       1.582   2.896  18.428  0.00  0.00    +0.000 C 
ATOM      5  C   UNL     1       2.587   1.766  18.325  0.00  0.00    +0.000 C 
ATOM      6  C   UNL     1       3.791   2.454  17.700  0.00  0.00    +0.000 C 
ATOM      7  C   UNL     1       3.778   3.884  18.287  0.00  0.00    +0.000 C 
ENDROOT
BRANCH   2   8
ATOM      8  C   UNL     1       2.785   6.119  20.143  0.00  0.00    +0.000 C 
BRANCH   8   9
ATOM      9  C   UNL     1       2.186   7.445  19.745  0.00  0.00    +0.000 A 
ATOM     10  C   UNL     1       2.327   7.883  18.406  0.00  0.00    +0.000 A 
ATOM     11  C   UNL     1       1.724   9.060  17.957  0.00  0.00    +0.000 A 
ATOM     12  C   UNL     1       0.967   9.777  18.858  0.00  0.00    +0.000 A 
ATOM     13  C   UNL     1       0.814   9.368  20.172  0.00  0.00    +0.000 A 
ATOM     14  C   UNL     1       1.408   8.205  20.637  0.00  0.00    +0.000 A 
ATOM     15  C   UNL     1       0.007  10.372  20.900  0.00  0.00    +0.000 C 
ATOM     16  C   UNL     1      -0.560  11.136  19.702  0.00  0.00    +0.000 C 
ATOM     17  O   UNL     1       0.311  10.943  18.562  0.00  0.00    +0.000 OA
ENDBRANCH   8   9
ENDBRANCH   2   8
BRANCH   7  18
ATOM     18  C   UNL     1       4.186   4.913  17.224  0.00  0.00    +0.000 C 
BRANCH  18  19
ATOM     19  N   UNL     1       5.427   5.598  17.536  0.00  0.00    +0.000 N 
ATOM     20  C   UNL     1       6.358   5.227  18.463  0.00  0.00    +0.000 A 
ATOM     21  C   UNL     1       7.371   6.153  18.375  0.00  0.00    +0.000 A 
ATOM     22  C   UNL     1       6.961   7.036  17.358  0.00  0.00    +0.000 A 
ATOM     23  N   UNL     1       5.778   6.695  16.840  0.00  0.00    +0.000 NA
ENDBRANCH  18  19
ENDBRANCH   7  18
TORSDOF 4
ENDMDL
MODEL 4
REMARK VINA RESULT:      -7.5      2.920      6.359
REMARK  Name = 
REMARK  4 active torsions:
REMARK  status: ('A' for Active; 'I' for Inactive)
REMARK    1  A    between atoms: C_2  and  C_3
REMARK    2  A    between atoms: C_3  and  C_4
REMARK    3  A    between atoms: C_17  and  C_18
REMARK    4  A    between atoms: C_18  and  N_19
REMARK                            x       y       z     vdW  Elec       q    Type
REMARK                         _______ _______ _______ _____ _____    ______ ____
ROOT
ATOM      1  O   UNL     1       5.036   3.685  19.317  0.00  0.00    +0.000 OA
ATOM      2  C   UNL     1       4.825   4.575  18.487  0.00  0.00    +0.000 C 
ATOM      3  N   UNL     1       5.867   5.298  17.922  0.00  0.00    +0.000 N 
ATOM      4  C   UNL     1       7.235   4.997  18.316  0.00  0.00    +0.000 C 
ATOM      5  C   UNL     1       7.840   6.359  18.590  0.00  0.00    +0.000 C 
ATOM      6  C   UNL     1       7.209   7.221  17.507  0.00  0.00    +0.000 C 
ATOM      7  C   UNL     1       5.784   6.650  17.326  0.00  0.00    +0.000 C 
ENDROOT
BRANCH   2   8
ATOM      8  C   UNL     1       3.406   4.839  18.023  0.00  0.00    +0.000 C 
BRANCH   8   9
ATOM      9  C   UNL     1       2.691   6.014  18.642  0.00  0.00    +0.000 A 
ATOM     10  C   UNL     1       2.370   5.967  20.021  0.00  0.00    +0.000 A 
ATOM     11  C   UNL     1       1.786   7.057  20.669  0.00  0.00    +0.000 A 
ATOM     12  C   UNL     1       1.546   8.193  19.927  0.00  0.00    +0.000 A 
ATOM     13  C   UNL     1       1.853   8.263  18.579  0.00  0.00    +0.000 A 
ATOM     14  C   UNL     1       2.430   7.189  17.917  0.00  0.00    +0.000 A 
ATOM     15  C   UNL     1       1.422   9.576  18.052  0.00  0.00    +0.000 C 
ATOM     16  C   UNL     1       1.221  10.311  19.379  0.00  0.00    +0.000 C 
ATOM     17  O   UNL     1       0.987   9.340  20.427  0.00  0.00    +0.000 OA
ENDBRANCH   8   9
ENDBRANCH   2   8
BRANCH   7  18
ATOM     18  C   UNL     1       5.380   6.655  15.845  0.00  0.00    +0.000 C 
BRANCH  18  19
ATOM     19  N   UNL     1       5.919   5.533  15.100  0.00  0.00    +0.000 N 
ATOM     20  C   UNL     1       5.244   4.418  14.693  0.00  0.00    +0.000 A 
ATOM     21  C   UNL     1       6.153   3.659  13.994  0.00  0.00    +0.000 A 
ATOM     22  C   UNL     1       7.345   4.406  14.027  0.00  0.00    +0.000 A 
ATOM     23  N   UNL     1       7.202   5.554  14.696  0.00  0.00    +0.000 NA
ENDBRANCH  18  19
ENDBRANCH   7  18
TORSDOF 4
ENDMDL
MODEL 5
REMARK VINA RESULT:      -7.5      1.490      2.350
REMARK  Name = 
REMARK  4 active torsions:
REMARK  status: ('A' for Active; 'I' for Inactive)
REMARK    1  A    between atoms: C_2  and  C_3
REMARK    2  A    between atoms: C_3  and  C_4
REMARK    3  A    between atoms: C_17  and  C_18
REMARK    4  A    between atoms: C_18  and  N_19
REMARK                            x       y       z     vdW  Elec       q    Type
REMARK                         _______ _______ _______ _____ _____    ______ ____
ROOT
ATOM      1  O   UNL     1       3.428   1.528  18.242  0.00  0.00    +0.000 OA
ATOM      2  C   UNL     1       3.254   2.749  18.313  0.00  0.00    +0.000 C 
ATOM      3  N   UNL     1       2.950   3.366  19.519  0.00  0.00    +0.000 N 
ATOM      4  C   UNL     1       2.838   2.556  20.723  0.00  0.00    +0.000 C 
ATOM      5  C   UNL     1       1.551   3.038  21.362  0.00  0.00    +0.000 C 
ATOM      6  C   UNL     1       1.587   4.533  21.085  0.00  0.00    +0.000 C 
ATOM      7  C   UNL     1       2.259   4.662  19.699  0.00  0.00    +0.000 C 
ENDROOT
BRANCH   2   8
ATOM      8  C   UNL     1       3.444   3.601  17.073  0.00  0.00    +0.000 C 
BRANCH   8   9
ATOM      9  C   UNL     1       4.659   4.494  17.037  0.00  0.00    +0.000 A 
ATOM     10  C   UNL     1       4.849   5.342  15.919  0.00  0.00    +0.000 A 
ATOM     11  C   UNL     1       5.908   6.251  15.866  0.00  0.00    +0.000 A 
ATOM     12  C   UNL     1       6.758   6.310  16.949  0.00  0.00    +0.000 A 
ATOM     13  C   UNL     1       6.592   5.492  18.053  0.00  0.00    +0.000 A 
ATOM     14  C   UNL     1       5.548   4.581  18.122  0.00  0.00    +0.000 A 
ATOM     15  C   UNL     1       7.690   5.744  19.012  0.00  0.00    +0.000 C 
ATOM     16  C   UNL     1       8.208   7.065  18.439  0.00  0.00    +0.000 C 
ATOM     17  O   UNL     1       7.832   7.155  17.043  0.00  0.00    +0.000 OA
ENDBRANCH   8   9
ENDBRANCH   2   8
BRANCH   7  18
ATOM     18  C   UNL     1       3.195   5.879  19.659  0.00  0.00    +0.000 C 
BRANCH  18  19
ATOM     19  N   UNL     1       2.539   7.091  19.203  0.00  0.00    +0.000 N 
ATOM     20  C   UNL     1       2.468   7.554  17.921  0.00  0.00    +0.000 A 
ATOM     21  C   UNL     1       1.720   8.706  17.974  0.00  0.00    +0.000 A 
ATOM     22  C   UNL     1       1.377   8.849  19.331  0.00  0.00    +0.000 A 
ATOM     23  N   UNL     1       1.871   7.860  20.083  0.00  0.00    +0.000 NA
ENDBRANCH  18  19
ENDBRANCH   7  18
TORSDOF 4
ENDMDL
MODEL 6
REMARK VINA RESULT:      -7.4      3.104      6.619
REMARK  Name = 
REMARK  4 active torsions:
REMARK  status: ('A' for Active; 'I' for Inactive)
REMARK    1  A    between atoms: C_2  and  C_3
REMARK    2  A    between atoms: C_3  and  C_4
REMARK    3  A    between atoms: C_17  and  C_18
REMARK    4  A    between atoms: C_18  and  N_19
REMARK                            x       y       z     vdW  Elec       q    Type
REMARK                         _______ _______ _______ _____ _____    ______ ____
ROOT
ATOM      1  O   UNL     1       4.114   4.077  19.473  0.00  0.00    +0.000 OA
ATOM      2  C   UNL     1       4.154   4.949  18.599  0.00  0.00    +0.000 C 
ATOM      3  N   UNL     1       5.360   5.380  18.064  0.00  0.00    +0.000 N 
ATOM      4  C   UNL     1       6.600   4.789  18.541  0.00  0.00    +0.000 C 
ATOM      5  C   UNL     1       7.496   5.985  18.796  0.00  0.00    +0.000 C 
ATOM      6  C   UNL     1       7.133   6.915  17.648  0.00  0.00    +0.000 C 
ATOM      7  C   UNL     1       5.623   6.683  17.413  0.00  0.00    +0.000 C 
ENDROOT
BRANCH   2   8
ATOM      8  C   UNL     1       2.858   5.513  18.050  0.00  0.00    +0.000 C 
BRANCH   8   9
ATOM      9  C   UNL     1       2.392   6.833  18.615  0.00  0.00    +0.000 A 
ATOM     10  C   UNL     1       2.130   7.901  17.723  0.00  0.00    +0.000 A 
ATOM     11  C   UNL     1       1.617   9.118  18.176  0.00  0.00    +0.000 A 
ATOM     12  C   UNL     1       1.355   9.243  19.523  0.00  0.00    +0.000 A 
ATOM     13  C   UNL     1       1.602   8.212  20.413  0.00  0.00    +0.000 A 
ATOM     14  C   UNL     1       2.115   6.997  19.983  0.00  0.00    +0.000 A 
ATOM     15  C   UNL     1       1.282   8.669  21.784  0.00  0.00    +0.000 C 
ATOM     16  C   UNL     1       0.472   9.919  21.435  0.00  0.00    +0.000 C 
ATOM     17  O   UNL     1       0.845  10.371  20.111  0.00  0.00    +0.000 OA
ENDBRANCH   8   9
ENDBRANCH   2   8
BRANCH   7  18
ATOM     18  C   UNL     1       5.295   6.709  15.913  0.00  0.00    +0.000 C 
BRANCH  18  19
ATOM     19  N   UNL     1       5.849   5.582  15.186  0.00  0.00    +0.000 N 
ATOM     20  C   UNL     1       5.187   4.456  14.788  0.00  0.00    +0.000 A 
ATOM     21  C   UNL     1       6.108   3.696  14.106  0.00  0.00    +0.000 A 
ATOM     22  C   UNL     1       7.293   4.454  14.139  0.00  0.00    +0.000 A 
ATOM     23  N   UNL     1       7.135   5.609  14.792  0.00  0.00    +0.000 NA
ENDBRANCH  18  19
ENDBRANCH   7  18
TORSDOF 4
ENDMDL
MODEL 7
REMARK VINA RESULT:      -7.4      2.395      5.662
REMARK  Name = 
REMARK  4 active torsions:
REMARK  status: ('A' for Active; 'I' for Inactive)
REMARK    1  A    between atoms: C_2  and  C_3
REMARK    2  A    between atoms: C_3  and  C_4
REMARK    3  A    between atoms: C_17  and  C_18
REMARK    4  A    between atoms: C_18  and  N_19
REMARK                            x       y       z     vdW  Elec       q    Type
REMARK                         _______ _______ _______ _____ _____    ______ ____
ROOT
ATOM      1  O   UNL     1       6.315   5.641  19.662  0.00  0.00    +0.000 OA
ATOM      2  C   UNL     1       5.439   5.009  19.063  0.00  0.00    +0.000 C 
ATOM      3  N   UNL     1       5.692   4.406  17.838  0.00  0.00    +0.000 N 
ATOM      4  C   UNL     1       7.019   4.521  17.251  0.00  0.00    +0.000 C 
ATOM      5  C   UNL     1       6.745   4.908  15.812  0.00  0.00    +0.000 C 
ATOM      6  C   UNL     1       5.503   4.094  15.485  0.00  0.00    +0.000 C 
ATOM      7  C   UNL     1       4.695   4.056  16.802  0.00  0.00    +0.000 C 
ENDROOT
BRANCH   2   8
ATOM      8  C   UNL     1       4.078   4.828  19.708  0.00  0.00    +0.000 C 
BRANCH   8   9
ATOM      9  C   UNL     1       3.132   6.002  19.649  0.00  0.00    +0.000 A 
ATOM     10  C   UNL     1       2.285   6.251  20.756  0.00  0.00    +0.000 A 
ATOM     11  C   UNL     1       1.450   7.369  20.796  0.00  0.00    +0.000 A 
ATOM     12  C   UNL     1       1.488   8.238  19.727  0.00  0.00    +0.000 A 
ATOM     13  C   UNL     1       2.309   8.016  18.635  0.00  0.00    +0.000 A 
ATOM     14  C   UNL     1       3.143   6.910  18.575  0.00  0.00    +0.000 A 
ATOM     15  C   UNL     1       2.079   9.081  17.633  0.00  0.00    +0.000 C 
ATOM     16  C   UNL     1       1.335  10.083  18.517  0.00  0.00    +0.000 C 
ATOM     17  O   UNL     1       0.734   9.378  19.630  0.00  0.00    +0.000 OA
ENDBRANCH   8   9
ENDBRANCH   2   8
BRANCH   7  18
ATOM     18  C   UNL     1       4.044   2.680  17.002  0.00  0.00    +0.000 C 
BRANCH  18  19
ATOM     19  N   UNL     1       2.774   2.744  17.701  0.00  0.00    +0.000 N 
ATOM     20  C   UNL     1       2.385   1.984  18.767  0.00  0.00    +0.000 A 
ATOM     21  C   UNL     1       1.128   2.426  19.108  0.00  0.00    +0.000 A 
ATOM     22  C   UNL     1       0.851   3.459  18.194  0.00  0.00    +0.000 A 
ATOM     23  N   UNL     1       1.858   3.660  17.339  0.00  0.00    +0.000 NA
ENDBRANCH  18  19
ENDBRANCH   7  18
TORSDOF 4
ENDMDL
MODEL 8
REMARK VINA RESULT:      -7.4      3.000      6.152
REMARK  Name = 
REMARK  4 active torsions:
REMARK  status: ('A' for Active; 'I' for Inactive)
REMARK    1  A    between atoms: C_2  and  C_3
REMARK    2  A    between atoms: C_3  and  C_4
REMARK    3  A    between atoms: C_17  and  C_18
REMARK    4  A    between atoms: C_18  and  N_19
REMARK                            x       y       z     vdW  Elec       q    Type
REMARK                         _______ _______ _______ _____ _____    ______ ____
ROOT
ATOM      1  O   UNL     1       1.128   5.011  17.677  0.00  0.00    +0.000 OA
ATOM      2  C   UNL     1       2.359   5.037  17.773  0.00  0.00    +0.000 C 
ATOM      3  N   UNL     1       3.104   3.867  17.825  0.00  0.00    +0.000 N 
ATOM      4  C   UNL     1       2.418   2.585  17.764  0.00  0.00    +0.000 C 
ATOM      5  C   UNL     1       3.043   1.786  18.889  0.00  0.00    +0.000 C 
ATOM      6  C   UNL     1       4.500   2.218  18.827  0.00  0.00    +0.000 C 
ATOM      7  C   UNL     1       4.456   3.705  18.406  0.00  0.00    +0.000 C 
ENDROOT
BRANCH   2   8
ATOM      8  C   UNL     1       3.079   6.372  17.764  0.00  0.00    +0.000 C 
BRANCH   8   9
ATOM      9  C   UNL     1       2.411   7.514  18.490  0.00  0.00    +0.000 A 
ATOM     10  C   UNL     1       2.016   8.654  17.749  0.00  0.00    +0.000 A 
ATOM     11  C   UNL     1       1.318   9.705  18.348  0.00  0.00    +0.000 A 
ATOM     12  C   UNL     1       1.008   9.590  19.685  0.00  0.00    +0.000 A 
ATOM     13  C   UNL     1       1.382   8.485  20.429  0.00  0.00    +0.000 A 
ATOM     14  C   UNL     1       2.079   7.433  19.853  0.00  0.00    +0.000 A 
ATOM     15  C   UNL     1       0.965   8.684  21.835  0.00  0.00    +0.000 C 
ATOM     16  C   UNL     1      -0.012   9.843  21.632  0.00  0.00    +0.000 C 
ATOM     17  O   UNL     1       0.323  10.535  20.404  0.00  0.00    +0.000 OA
ENDBRANCH   8   9
ENDBRANCH   2   8
BRANCH   7  18
ATOM     18  C   UNL     1       5.597   4.030  17.432  0.00  0.00    +0.000 C 
BRANCH  18  19
ATOM     19  N   UNL     1       6.524   5.020  17.947  0.00  0.00    +0.000 N 
ATOM     20  C   UNL     1       6.871   6.203  17.360  0.00  0.00    +0.000 A 
ATOM     21  C   UNL     1       7.742   6.817  18.229  0.00  0.00    +0.000 A 
ATOM     22  C   UNL     1       7.851   5.928  19.314  0.00  0.00    +0.000 A 
ATOM     23  N   UNL     1       7.102   4.833  19.147  0.00  0.00    +0.000 NA
ENDBRANCH  18  19
ENDBRANCH   7  18
TORSDOF 4
ENDMDL
MODEL 9
REMARK VINA RESULT:      -7.3      3.047      5.926
REMARK  Name = 
REMARK  4 active torsions:
REMARK  status: ('A' for Active; 'I' for Inactive)
REMARK    1  A    between atoms: C_2  and  C_3
REMARK    2  A    between atoms: C_3  and  C_4
REMARK    3  A    between atoms: C_17  and  C_18
REMARK    4  A    between atoms: C_18  and  N_19
REMARK                            x       y       z     vdW  Elec       q    Type
REMARK                         _______ _______ _______ _____ _____    ______ ____
ROOT
ATOM      1  O   UNL     1       0.820   4.261  20.294  0.00  0.00    +0.000 OA
ATOM      2  C   UNL     1       1.872   4.705  19.822  0.00  0.00    +0.000 C 
ATOM      3  N   UNL     1       2.433   4.165  18.673  0.00  0.00    +0.000 N 
ATOM      4  C   UNL     1       1.765   3.054  18.012  0.00  0.00    +0.000 C 
ATOM      5  C   UNL     1       2.882   2.063  17.753  0.00  0.00    +0.000 C 
ATOM      6  C   UNL     1       4.047   2.971  17.392  0.00  0.00    +0.000 C 
ATOM      7  C   UNL     1       3.855   4.230  18.268  0.00  0.00    +0.000 C 
ENDROOT
BRANCH   2   8
ATOM      8  C   UNL     1       2.529   5.909  20.469  0.00  0.00    +0.000 C 
BRANCH   8   9
ATOM      9  C   UNL     1       1.851   7.243  20.278  0.00  0.00    +0.000 A 
ATOM     10  C   UNL     1       1.065   7.766  21.333  0.00  0.00    +0.000 A 
ATOM     11  C   UNL     1       0.482   9.033  21.248  0.00  0.00    +0.000 A 
ATOM     12  C   UNL     1       0.712   9.770  20.107  0.00  0.00    +0.000 A 
ATOM     13  C   UNL     1       1.477   9.280  19.063  0.00  0.00    +0.000 A 
ATOM     14  C   UNL     1       2.061   8.023  19.127  0.00  0.00    +0.000 A 
ATOM     15  C   UNL     1       1.485  10.270  17.963  0.00  0.00    +0.000 C 
ATOM     16  C   UNL     1       0.960  11.483  18.731  0.00  0.00    +0.000 C 
ATOM     17  O   UNL     1       0.214  11.027  19.885  0.00  0.00    +0.000 OA
ENDBRANCH   8   9
ENDBRANCH   2   8
BRANCH   7  18
ATOM     18  C   UNL     1       4.223   5.499  17.486  0.00  0.00    +0.000 C 
BRANCH  18  19
ATOM     19  N   UNL     1       5.578   5.954  17.739  0.00  0.00    +0.000 N 
ATOM     20  C   UNL     1       6.428   5.504  18.709  0.00  0.00    +0.000 A 
ATOM     21  C   UNL     1       7.602   6.197  18.536  0.00  0.00    +0.000 A 
ATOM     22  C   UNL     1       7.365   7.035  17.430  0.00  0.00    +0.000 A 
ATOM     23  N   UNL     1       6.131   6.882  16.938  0.00  0.00    +0.000 NA
ENDBRANCH  18  19
ENDBRANCH   7  18
TORSDOF 4
ENDMDL
