MODEL 1
REMARK VINA RESULT:      -8.5      0.000      0.000
REMARK  Name = 
REMARK  4 active torsions:
REMARK  status: ('A' for Active; 'I' for Inactive)
REMARK    1  A    between atoms: O_1  and  C_2
REMARK    2  A    between atoms: C_14  and  N_15
REMARK    3  A    between atoms: N_15  and  C_16
REMARK    4  A    between atoms: C_16  and  C_17
REMARK                            x       y       z     vdW  Elec       q    Type
REMARK                         _______ _______ _______ _____ _____    ______ ____
ROOT
ATOM      1  C   UNL     1       1.733   4.821  20.246  0.00  0.00    +0.000 C 
ATOM      2  C   UNL     1       0.779   3.635  20.423  0.00  0.00    +0.000 C 
ATOM      3  C   UNL     1       1.529   2.319  20.262  0.00  0.00    +0.000 C 
ATOM      4  C   UNL     1       2.109   2.228  18.858  0.00  0.00    +0.000 C 
ATOM      5  C   UNL     1       2.820   3.477  18.409  0.00  0.00    +0.000 A 
ATOM      6  N   UNL     1       3.596   3.319  17.314  0.00  0.00    +0.000 NA
ATOM      7  C   UNL     1       4.260   4.372  16.830  0.00  0.00    +0.000 A 
ATOM      8  C   UNL     1       5.077   4.131  15.733  0.00  0.00    +0.000 A 
ATOM      9  C   UNL     1       5.850   5.131  15.148  0.00  0.00    +0.000 A 
ATOM     10  C   UNL     1       5.828   6.401  15.691  0.00  0.00    +0.000 A 
ATOM     11  C   UNL     1       5.019   6.660  16.798  0.00  0.00    +0.000 A 
ATOM     12  C   UNL     1       4.173   5.672  17.380  0.00  0.00    +0.000 A 
ATOM     13  C   UNL     1       3.262   5.853  18.474  0.00  0.00    +0.000 A 
ATOM     14  C   UNL     1       2.618   4.714  19.023  0.00  0.00    +0.000 A 
ENDROOT
BRANCH   1  15
ATOM     15  O   UNL     1       2.578   4.905  21.398  0.00  0.00    +0.000 OA
ATOM     16  H   UNL     1       2.066   4.561  22.149  0.00  0.00    +0.000 HD
ENDBRANCH   1  15
BRANCH  13  17
ATOM     17  N   UNL     1       2.996   7.079  19.121  0.00  0.00    +0.000 N 
ATOM     18  H   UNL     1       3.870   7.481  19.465  0.00  0.00    +0.000 HD
BRANCH  17  19
ATOM     19  C   UNL     1       2.106   8.077  18.548  0.00  0.00    +0.000 C 
BRANCH  19  20
ATOM     20  C   UNL     1       1.342   8.809  19.620  0.00  0.00    +0.000 A 
ATOM     21  C   UNL     1       1.385   8.393  20.958  0.00  0.00    +0.000 A 
ATOM     22  C   UNL     1       0.572   9.004  21.917  0.00  0.00    +0.000 A 
ATOM     23  C   UNL     1      -0.290  10.037  21.551  0.00  0.00    +0.000 A 
ATOM     24  C   UNL     1      -0.335  10.466  20.226  0.00  0.00    +0.000 A 
ATOM     25  C   UNL     1       0.475   9.851  19.276  0.00  0.00    +0.000 A 
ATOM     26  F   UNL     1       0.389  10.259  18.001  0.00  0.00    +0.000 F 
ENDBRANCH  19  20
ENDBRANCH  17  19
ENDBRANCH  13  17
TORSDOF 4
ENDMDL
MODEL 2
REMARK VINA RESULT:      -8.4      1.584      4.024
REMARK  Name = 
REMARK  4 active torsions:
REMARK  status: ('A' for Active; 'I' for Inactive)
REMARK    1  A    between atoms: O_1  and  C_2
REMARK    2  A    between atoms: C_14  and  N_15
REMARK    3  A    between atoms: N_15  and  C_16
REMARK    4  A    between atoms: C_16  and  C_17
REMARK                            x       y       z     vdW  Elec       q    Type
REMARK                         _______ _______ _______ _____ _____    ______ ____
ROOT
ATOM      1  C   UNL     1       5.652   6.363  16.619  0.00  0.00    +0.000 C 
ATOM      2  C   UNL     1       6.966   5.853  16.018  0.00  0.00    +0.000 C 
ATOM      3  C   UNL     1       6.696   4.732  15.022  0.00  0.00    +0.000 C 
ATOM      4  C   UNL     1       6.039   3.559  15.735  0.00  0.00    +0.000 C 
ATOM      5  C   UNL     1       4.901   3.955  16.639  0.00  0.00    +0.000 A 
ATOM      6  N   UNL     1       4.115   2.930  17.035  0.00  0.00    +0.000 NA
ATOM      7  C   UNL     1       3.086   3.176  17.849  0.00  0.00    +0.000 A 
ATOM      8  C   UNL     1       2.290   2.087  18.179  0.00  0.00    +0.000 A 
ATOM      9  C   UNL     1       1.165   2.207  18.993  0.00  0.00    +0.000 A 
ATOM     10  C   UNL     1       0.810   3.454  19.467  0.00  0.00    +0.000 A 
ATOM     11  C   UNL     1       1.595   4.562  19.141  0.00  0.00    +0.000 A 
ATOM     12  C   UNL     1       2.782   4.459  18.360  0.00  0.00    +0.000 A 
ATOM     13  C   UNL     1       3.686   5.521  18.022  0.00  0.00    +0.000 A 
ATOM     14  C   UNL     1       4.734   5.261  17.101  0.00  0.00    +0.000 A 
ENDROOT
BRANCH   1  15
ATOM     15  O   UNL     1       4.954   7.116  15.621  0.00  0.00    +0.000 OA
ATOM     16  H   UNL     1       4.927   6.566  14.821  0.00  0.00    +0.000 HD
ENDBRANCH   1  15
BRANCH  13  17
ATOM     17  N   UNL     1       3.585   6.855  18.475  0.00  0.00    +0.000 N 
ATOM     18  H   UNL     1       4.514   7.280  18.495  0.00  0.00    +0.000 HD
BRANCH  17  19
ATOM     19  C   UNL     1       2.564   7.763  17.977  0.00  0.00    +0.000 C 
BRANCH  19  20
ATOM     20  C   UNL     1       1.802   8.403  19.109  0.00  0.00    +0.000 A 
ATOM     21  C   UNL     1       1.813   7.851  20.398  0.00  0.00    +0.000 A 
ATOM     22  C   UNL     1       1.002   8.383  21.404  0.00  0.00    +0.000 A 
ATOM     23  C   UNL     1       0.173   9.472  21.134  0.00  0.00    +0.000 A 
ATOM     24  C   UNL     1       0.161  10.036  19.860  0.00  0.00    +0.000 A 
ATOM     25  C   UNL     1       0.969   9.498  18.862  0.00  0.00    +0.000 A 
ATOM     26  F   UNL     1       0.914  10.037  17.635  0.00  0.00    +0.000 F 
ENDBRANCH  19  20
ENDBRANCH  17  19
ENDBRANCH  13  17
TORSDOF 4
ENDMDL
MODEL 3
REMARK VINA RESULT:      -8.2      2.072      4.373
REMARK  Name = 
REMARK  4 active torsions:
REMARK  status: ('A' for Active; 'I' for Inactive)
REMARK    1  A    between atoms: O_1  and  C_2
REMARK    2  A    between atoms: C_14  and  N_15
REMARK    3  A    between atoms: N_15  and  C_16
REMARK    4  A    between atoms: C_16  and  C_17
REMARK                            x       y       z     vdW  Elec       q    Type
REMARK                         _______ _______ _______ _____ _____    ______ ____
ROOT
ATOM      1  C   UNL     1       5.305   6.701  17.033  0.00  0.00    +0.000 C 
ATOM      2  C   UNL     1       6.831   6.799  17.131  0.00  0.00    +0.000 C 
ATOM      3  C   UNL     1       7.454   5.409  17.127  0.00  0.00    +0.000 C 
ATOM      4  C   UNL     1       6.971   4.627  18.340  0.00  0.00    +0.000 C 
ATOM      5  C   UNL     1       5.484   4.705  18.565  0.00  0.00    +0.000 A 
ATOM      6  N   UNL     1       4.998   3.789  19.430  0.00  0.00    +0.000 NA
ATOM      7  C   UNL     1       3.691   3.784  19.705  0.00  0.00    +0.000 A 
ATOM      8  C   UNL     1       3.248   2.787  20.564  0.00  0.00    +0.000 A 
ATOM      9  C   UNL     1       1.907   2.645  20.911  0.00  0.00    +0.000 A 
ATOM     10  C   UNL     1       0.977   3.507  20.362  0.00  0.00    +0.000 A 
ATOM     11  C   UNL     1       1.403   4.511  19.491  0.00  0.00    +0.000 A 
ATOM     12  C   UNL     1       2.775   4.716  19.166  0.00  0.00    +0.000 A 
ATOM     13  C   UNL     1       3.318   5.752  18.335  0.00  0.00    +0.000 A 
ATOM     14  C   UNL     1       4.694   5.704  17.994  0.00  0.00    +0.000 A 
ENDROOT
BRANCH   1  15
ATOM     15  O   UNL     1       4.956   6.305  15.702  0.00  0.00    +0.000 OA
ATOM     16  H   UNL     1       5.659   5.710  15.392  0.00  0.00    +0.000 HD
ENDBRANCH   1  15
BRANCH  13  17
ATOM     17  N   UNL     1       2.578   6.801  17.748  0.00  0.00    +0.000 N 
ATOM     18  H   UNL     1       1.586   6.556  17.739  0.00  0.00    +0.000 HD
BRANCH  17  19
ATOM     19  C   UNL     1       2.809   8.196  18.092  0.00  0.00    +0.000 C 
BRANCH  19  20
ATOM     20  C   UNL     1       1.594   8.809  18.739  0.00  0.00    +0.000 A 
ATOM     21  C   UNL     1       0.775   9.709  18.043  0.00  0.00    +0.000 A 
ATOM     22  C   UNL     1      -0.273  10.364  18.695  0.00  0.00    +0.000 A 
ATOM     23  C   UNL     1      -0.514  10.127  20.049  0.00  0.00    +0.000 A 
ATOM     24  C   UNL     1       0.287   9.227  20.749  0.00  0.00    +0.000 A 
ATOM     25  C   UNL     1       1.331   8.581  20.093  0.00  0.00    +0.000 A 
ATOM     26  F   UNL     1       2.109   7.746  20.797  0.00  0.00    +0.000 F 
ENDBRANCH  19  20
ENDBRANCH  17  19
ENDBRANCH  13  17
TORSDOF 4
ENDMDL
MODEL 4
REMARK VINA RESULT:      -8.2      1.087      1.504
REMARK  Name = 
REMARK  4 active torsions:
REMARK  status: ('A' for Active; 'I' for Inactive)
REMARK    1  A    between atoms: O_1  and  C_2
REMARK    2  A    between atoms: C_14  and  N_15
REMARK    3  A    between atoms: N_15  and  C_16
REMARK    4  A    between atoms: C_16  and  C_17
REMARK                            x       y       z     vdW  Elec       q    Type
REMARK                         _______ _______ _______ _____ _____    ______ ____
ROOT
ATOM      1  C   UNL     1       1.691   4.987  20.175  0.00  0.00    +0.000 C 
ATOM      2  C   UNL     1       0.847   3.756  20.525  0.00  0.00    +0.000 C 
ATOM      3  C   UNL     1       1.725   2.513  20.603  0.00  0.00    +0.000 C 
ATOM      4  C   UNL     1       2.365   2.252  19.246  0.00  0.00    +0.000 C 
ATOM      5  C   UNL     1       2.972   3.476  18.612  0.00  0.00    +0.000 A 
ATOM      6  N   UNL     1       3.802   3.219  17.577  0.00  0.00    +0.000 NA
ATOM      7  C   UNL     1       4.382   4.239  16.941  0.00  0.00    +0.000 A 
ATOM      8  C   UNL     1       5.261   3.905  15.919  0.00  0.00    +0.000 A 
ATOM      9  C   UNL     1       5.958   4.868  15.193  0.00  0.00    +0.000 A 
ATOM     10  C   UNL     1       5.795   6.201  15.516  0.00  0.00    +0.000 A 
ATOM     11  C   UNL     1       4.921   6.556  16.545  0.00  0.00    +0.000 A 
ATOM     12  C   UNL     1       4.151   5.596  17.264  0.00  0.00    +0.000 A 
ATOM     13  C   UNL     1       3.185   5.862  18.291  0.00  0.00    +0.000 A 
ATOM     14  C   UNL     1       2.630   4.770  19.007  0.00  0.00    +0.000 A 
ENDROOT
BRANCH   1  15
ATOM     15  O   UNL     1       2.479   5.342  21.316  0.00  0.00    +0.000 OA
ATOM     16  H   UNL     1       3.081   4.598  21.485  0.00  0.00    +0.000 HD
ENDBRANCH   1  15
BRANCH  13  17
ATOM     17  N   UNL     1       2.778   7.145  18.719  0.00  0.00    +0.000 N 
ATOM     18  H   UNL     1       3.596   7.683  19.010  0.00  0.00    +0.000 HD
BRANCH  17  19
ATOM     19  C   UNL     1       1.821   7.942  17.967  0.00  0.00    +0.000 C 
BRANCH  19  20
ATOM     20  C   UNL     1       1.494   9.225  18.684  0.00  0.00    +0.000 A 
ATOM     21  C   UNL     1       1.771  10.473  18.106  0.00  0.00    +0.000 A 
ATOM     22  C   UNL     1       1.578  11.650  18.835  0.00  0.00    +0.000 A 
ATOM     23  C   UNL     1       1.108  11.594  20.147  0.00  0.00    +0.000 A 
ATOM     24  C   UNL     1       0.821  10.361  20.729  0.00  0.00    +0.000 A 
ATOM     25  C   UNL     1       1.018   9.193  19.998  0.00  0.00    +0.000 A 
ATOM     26  F   UNL     1       0.766   8.017  20.591  0.00  0.00    +0.000 F 
ENDBRANCH  19  20
ENDBRANCH  17  19
ENDBRANCH  13  17
TORSDOF 4
ENDMDL
MODEL 5
REMARK VINA RESULT:      -8.2      2.094      5.986
REMARK  Name = 
REMARK  4 active torsions:
REMARK  status: ('A' for Active; 'I' for Inactive)
REMARK    1  A    between atoms: O_1  and  C_2
REMARK    2  A    between atoms: C_14  and  N_15
REMARK    3  A    between atoms: N_15  and  C_16
REMARK    4  A    between atoms: C_16  and  C_17
REMARK                            x       y       z     vdW  Elec       q    Type
REMARK                         _______ _______ _______ _____ _____    ______ ____
ROOT
ATOM      1  C   UNL     1       4.863   5.098  18.534  0.00  0.00    +0.000 C 
ATOM      2  C   UNL     1       5.457   4.663  17.190  0.00  0.00    +0.000 C 
ATOM      3  C   UNL     1       5.983   5.871  16.425  0.00  0.00    +0.000 C 
ATOM      4  C   UNL     1       4.837   6.827  16.126  0.00  0.00    +0.000 C 
ATOM      5  C   UNL     1       3.949   7.105  17.310  0.00  0.00    +0.000 A 
ATOM      6  N   UNL     1       3.128   8.168  17.160  0.00  0.00    +0.000 NA
ATOM      7  C   UNL     1       2.292   8.489  18.150  0.00  0.00    +0.000 A 
ATOM      8  C   UNL     1       1.511   9.620  17.952  0.00  0.00    +0.000 A 
ATOM      9  C   UNL     1       0.620  10.087  18.916  0.00  0.00    +0.000 A 
ATOM     10  C   UNL     1       0.528   9.422  20.122  0.00  0.00    +0.000 A 
ATOM     11  C   UNL     1       1.310   8.288  20.343  0.00  0.00    +0.000 A 
ATOM     12  C   UNL     1       2.185   7.754  19.353  0.00  0.00    +0.000 A 
ATOM     13  C   UNL     1       2.982   6.565  19.458  0.00  0.00    +0.000 A 
ATOM     14  C   UNL     1       3.916   6.274  18.431  0.00  0.00    +0.000 A 
ENDROOT
BRANCH   1  15
ATOM     15  O   UNL     1       5.933   5.466  19.410  0.00  0.00    +0.000 OA
ATOM     16  H   UNL     1       5.650   6.269  19.878  0.00  0.00    +0.000 HD
ENDBRANCH   1  15
BRANCH  13  17
ATOM     17  N   UNL     1       2.977   5.671  20.552  0.00  0.00    +0.000 N 
ATOM     18  H   UNL     1       3.062   6.198  21.423  0.00  0.00    +0.000 HD
BRANCH  17  19
ATOM     19  C   UNL     1       2.025   4.575  20.649  0.00  0.00    +0.000 C 
BRANCH  19  20
ATOM     20  C   UNL     1       2.471   3.388  19.835  0.00  0.00    +0.000 A 
ATOM     21  C   UNL     1       3.506   2.551  20.277  0.00  0.00    +0.000 A 
ATOM     22  C   UNL     1       3.993   1.532  19.454  0.00  0.00    +0.000 A 
ATOM     23  C   UNL     1       3.451   1.337  18.183  0.00  0.00    +0.000 A 
ATOM     24  C   UNL     1       2.416   2.156  17.738  0.00  0.00    +0.000 A 
ATOM     25  C   UNL     1       1.939   3.171  18.562  0.00  0.00    +0.000 A 
ATOM     26  F   UNL     1       0.965   3.968  18.096  0.00  0.00    +0.000 F 
ENDBRANCH  19  20
ENDBRANCH  17  19
ENDBRANCH  13  17
TORSDOF 4
ENDMDL
MODEL 6
REMARK VINA RESULT:      -8.2      2.304      5.286
REMARK  Name = 
REMARK  4 active torsions:
REMARK  status: ('A' for Active; 'I' for Inactive)
REMARK    1  A    between atoms: O_1  and  C_2
REMARK    2  A    between atoms: C_14  and  N_15
REMARK    3  A    between atoms: N_15  and  C_16
REMARK    4  A    between atoms: C_16  and  C_17
REMARK                            x       y       z     vdW  Elec       q    Type
REMARK                         _______ _______ _______ _____ _____    ______ ____
ROOT
ATOM      1  C   UNL     1       3.183   2.917  19.032  0.00  0.00    +0.000 C 
ATOM      2  C   UNL     1       3.281   2.108  20.330  0.00  0.00    +0.000 C 
ATOM      3  C   UNL     1       2.062   2.361  21.208  0.00  0.00    +0.000 C 
ATOM      4  C   UNL     1       2.005   3.832  21.594  0.00  0.00    +0.000 C 
ATOM      5  C   UNL     1       2.220   4.775  20.441  0.00  0.00    +0.000 A 
ATOM      6  N   UNL     1       1.873   6.057  20.690  0.00  0.00    +0.000 NA
ATOM      7  C   UNL     1       2.037   6.973  19.733  0.00  0.00    +0.000 A 
ATOM      8  C   UNL     1       1.616   8.261  20.037  0.00  0.00    +0.000 A 
ATOM      9  C   UNL     1       1.698   9.307  19.121  0.00  0.00    +0.000 A 
ATOM     10  C   UNL     1       2.190   9.053  17.855  0.00  0.00    +0.000 A 
ATOM     11  C   UNL     1       2.613   7.763  17.529  0.00  0.00    +0.000 A 
ATOM     12  C   UNL     1       2.594   6.689  18.465  0.00  0.00    +0.000 A 
ATOM     13  C   UNL     1       3.061   5.350  18.249  0.00  0.00    +0.000 A 
ATOM     14  C   UNL     1       2.817   4.370  19.246  0.00  0.00    +0.000 A 
ENDROOT
BRANCH   1  15
ATOM     15  O   UNL     1       2.182   2.326  18.198  0.00  0.00    +0.000 OA
ATOM     16  H   UNL     1       1.661   3.055  17.823  0.00  0.00    +0.000 HD
ENDBRANCH   1  15
BRANCH  13  17
ATOM     17  N   UNL     1       3.692   4.884  17.074  0.00  0.00    +0.000 N 
ATOM     18  H   UNL     1       3.606   5.587  16.338  0.00  0.00    +0.000 HD
BRANCH  17  19
ATOM     19  C   UNL     1       5.005   4.256  17.101  0.00  0.00    +0.000 C 
BRANCH  19  20
ATOM     20  C   UNL     1       6.076   5.243  17.486  0.00  0.00    +0.000 A 
ATOM     21  C   UNL     1       6.907   5.020  18.594  0.00  0.00    +0.000 A 
ATOM     22  C   UNL     1       7.809   6.002  19.012  0.00  0.00    +0.000 A 
ATOM     23  C   UNL     1       7.892   7.215  18.329  0.00  0.00    +0.000 A 
ATOM     24  C   UNL     1       7.078   7.444  17.222  0.00  0.00    +0.000 A 
ATOM     25  C   UNL     1       6.180   6.463  16.813  0.00  0.00    +0.000 A 
ATOM     26  F   UNL     1       5.384   6.721  15.764  0.00  0.00    +0.000 F 
ENDBRANCH  19  20
ENDBRANCH  17  19
ENDBRANCH  13  17
TORSDOF 4
ENDMDL
MODEL 7
REMARK VINA RESULT:      -8.1      1.845      4.139
REMARK  Name = 
REMARK  4 active torsions:
REMARK  status: ('A' for Active; 'I' for Inactive)
REMARK    1  A    between atoms: O_1  and  C_2
REMARK    2  A    between atoms: C_14  and  N_15
REMARK    3  A    between atoms: N_15  and  C_16
REMARK    4  A    between atoms: C_16  and  C_17
REMARK                            x       y       z     vdW  Elec       q    Type
REMARK                         _______ _______ _______ _____ _____    ______ ____
ROOT
ATOM      1  C   UNL     1       5.220   6.795  17.120  0.00  0.00    +0.000 C 
ATOM      2  C   UNL     1       6.743   6.933  17.224  0.00  0.00    +0.000 C 
ATOM      3  C   UNL     1       7.407   5.563  17.174  0.00  0.00    +0.000 C 
ATOM      4  C   UNL     1       6.946   4.728  18.361  0.00  0.00    +0.000 C 
ATOM      5  C   UNL     1       5.457   4.756  18.586  0.00  0.00    +0.000 A 
ATOM      6  N   UNL     1       4.997   3.798  19.420  0.00  0.00    +0.000 NA
ATOM      7  C   UNL     1       3.691   3.746  19.693  0.00  0.00    +0.000 A 
ATOM      8  C   UNL     1       3.277   2.709  20.518  0.00  0.00    +0.000 A 
ATOM      9  C   UNL     1       1.940   2.517  20.859  0.00  0.00    +0.000 A 
ATOM     10  C   UNL     1       0.986   3.369  20.337  0.00  0.00    +0.000 A 
ATOM     11  C   UNL     1       1.383   4.413  19.500  0.00  0.00    +0.000 A 
ATOM     12  C   UNL     1       2.748   4.668  19.184  0.00  0.00    +0.000 A 
ATOM     13  C   UNL     1       3.262   5.746  18.388  0.00  0.00    +0.000 A 
ATOM     14  C   UNL     1       4.639   5.750  18.047  0.00  0.00    +0.000 A 
ENDROOT
BRANCH   1  15
ATOM     15  O   UNL     1       4.884   6.433  15.777  0.00  0.00    +0.000 OA
ATOM     16  H   UNL     1       4.122   5.833  15.830  0.00  0.00    +0.000 HD
ENDBRANCH   1  15
BRANCH  13  17
ATOM     17  N   UNL     1       2.492   6.793  17.835  0.00  0.00    +0.000 N 
ATOM     18  H   UNL     1       1.504   6.530  17.840  0.00  0.00    +0.000 HD
BRANCH  17  19
ATOM     19  C   UNL     1       2.704   8.185  18.202  0.00  0.00    +0.000 C 
BRANCH  19  20
ATOM     20  C   UNL     1       1.738   8.621  19.273  0.00  0.00    +0.000 A 
ATOM     21  C   UNL     1       1.680   7.967  20.512  0.00  0.00    +0.000 A 
ATOM     22  C   UNL     1       0.695   8.302  21.445  0.00  0.00    +0.000 A 
ATOM     23  C   UNL     1      -0.241   9.294  21.151  0.00  0.00    +0.000 A 
ATOM     24  C   UNL     1      -0.188   9.957  19.928  0.00  0.00    +0.000 A 
ATOM     25  C   UNL     1       0.794   9.616  19.002  0.00  0.00    +0.000 A 
ATOM     26  F   UNL     1       0.804  10.246  17.818  0.00  0.00    +0.000 F 
ENDBRANCH  19  20
ENDBRANCH  17  19
ENDBRANCH  13  17
TORSDOF 4
ENDMDL
MODEL 8
REMARK VINA RESULT:      -8.1      1.645      2.000
REMARK  Name = 
REMARK  4 active torsions:
REMARK  status: ('A' for Active; 'I' for Inactive)
REMARK    1  A    between atoms: O_1  and  C_2
REMARK    2  A    between atoms: C_14  and  N_15
REMARK    3  A    between atoms: N_15  and  C_16
REMARK    4  A    between atoms: C_16  and  C_17
REMARK                            x       y       z     vdW  Elec       q    Type
REMARK                         _______ _______ _______ _____ _____    ______ ____
ROOT
ATOM      1  C   UNL     1       1.489   4.648  19.851  0.00  0.00    +0.000 C 
ATOM      2  C   UNL     1       1.070   3.262  20.352  0.00  0.00    +0.000 C 
ATOM      3  C   UNL     1       2.134   2.688  21.281  0.00  0.00    +0.000 C 
ATOM      4  C   UNL     1       3.441   2.520  20.520  0.00  0.00    +0.000 C 
ATOM      5  C   UNL     1       3.830   3.722  19.700  0.00  0.00    +0.000 A 
ATOM      6  N   UNL     1       5.111   3.719  19.272  0.00  0.00    +0.000 NA
ATOM      7  C   UNL     1       5.550   4.737  18.526  0.00  0.00    +0.000 A 
ATOM      8  C   UNL     1       6.889   4.697  18.161  0.00  0.00    +0.000 A 
ATOM      9  C   UNL     1       7.486   5.709  17.411  0.00  0.00    +0.000 A 
ATOM     10  C   UNL     1       6.730   6.804  17.041  0.00  0.00    +0.000 A 
ATOM     11  C   UNL     1       5.384   6.865  17.406  0.00  0.00    +0.000 A 
ATOM     12  C   UNL     1       4.734   5.817  18.120  0.00  0.00    +0.000 A 
ATOM     13  C   UNL     1       3.348   5.756  18.487  0.00  0.00    +0.000 A 
ATOM     14  C   UNL     1       2.911   4.707  19.337  0.00  0.00    +0.000 A 
ENDROOT
BRANCH   1  15
ATOM     15  O   UNL     1       1.368   5.581  20.930  0.00  0.00    +0.000 OA
ATOM     16  H   UNL     1       1.758   5.158  21.712  0.00  0.00    +0.000 HD
ENDBRANCH   1  15
BRANCH  13  17
ATOM     17  N   UNL     1       2.366   6.707  18.133  0.00  0.00    +0.000 N 
ATOM     18  H   UNL     1       1.466   6.433  18.533  0.00  0.00    +0.000 HD
BRANCH  17  19
ATOM     19  C   UNL     1       2.609   8.138  18.224  0.00  0.00    +0.000 C 
BRANCH  19  20
ATOM     20  C   UNL     1       1.392   8.869  18.727  0.00  0.00    +0.000 A 
ATOM     21  C   UNL     1       0.536   9.550  17.849  0.00  0.00    +0.000 A 
ATOM     22  C   UNL     1      -0.515  10.327  18.342  0.00  0.00    +0.000 A 
ATOM     23  C   UNL     1      -0.724  10.432  19.718  0.00  0.00    +0.000 A 
ATOM     24  C   UNL     1       0.113   9.753  20.600  0.00  0.00    +0.000 A 
ATOM     25  C   UNL     1       1.160   8.983  20.101  0.00  0.00    +0.000 A 
ATOM     26  F   UNL     1       1.973   8.366  20.972  0.00  0.00    +0.000 F 
ENDBRANCH  19  20
ENDBRANCH  17  19
ENDBRANCH  13  17
TORSDOF 4
ENDMDL
MODEL 9
REMARK VINA RESULT:      -8.0      2.638      5.561
REMARK  Name = 
REMARK  4 active torsions:
REMARK  status: ('A' for Active; 'I' for Inactive)
REMARK    1  A    between atoms: O_1  and  C_2
REMARK    2  A    between atoms: C_14  and  N_15
REMARK    3  A    between atoms: N_15  and  C_16
REMARK    4  A    between atoms: C_16  and  C_17
REMARK                            x       y       z     vdW  Elec       q    Type
REMARK                         _______ _______ _______ _____ _____    ______ ____
ROOT
ATOM      1  C   UNL     1       3.383   3.367  18.847  0.00  0.00    +0.000 C 
ATOM      2  C   UNL     1       3.532   2.488  20.094  0.00  0.00    +0.000 C 
ATOM      3  C   UNL     1       2.293   2.599  20.974  0.00  0.00    +0.000 C 
ATOM      4  C   UNL     1       2.129   4.036  21.449  0.00  0.00    +0.000 C 
ATOM      5  C   UNL     1       2.282   5.061  20.357  0.00  0.00    +0.000 A 
ATOM      6  N   UNL     1       1.842   6.297  20.681  0.00  0.00    +0.000 NA
ATOM      7  C   UNL     1       1.945   7.280  19.783  0.00  0.00    +0.000 A 
ATOM      8  C   UNL     1       1.430   8.513  20.161  0.00  0.00    +0.000 A 
ATOM      9  C   UNL     1       1.442   9.616  19.310  0.00  0.00    +0.000 A 
ATOM     10  C   UNL     1       1.958   9.476  18.037  0.00  0.00    +0.000 A 
ATOM     11  C   UNL     1       2.473   8.242  17.637  0.00  0.00    +0.000 A 
ATOM     12  C   UNL     1       2.527   7.114  18.505  0.00  0.00    +0.000 A 
ATOM     13  C   UNL     1       3.090   5.827  18.212  0.00  0.00    +0.000 A 
ATOM     14  C   UNL     1       2.912   4.773  19.145  0.00  0.00    +0.000 A 
ENDROOT
BRANCH   1  15
ATOM     15  O   UNL     1       2.431   2.757  17.969  0.00  0.00    +0.000 OA
ATOM     16  H   UNL     1       1.550   2.962  18.323  0.00  0.00    +0.000 HD
ENDBRANCH   1  15
BRANCH  13  17
ATOM     17  N   UNL     1       3.759   5.481  17.018  0.00  0.00    +0.000 N 
ATOM     18  H   UNL     1       3.698   6.255  16.355  0.00  0.00    +0.000 HD
BRANCH  17  19
ATOM     19  C   UNL     1       5.070   4.848  17.023  0.00  0.00    +0.000 C 
BRANCH  19  20
ATOM     20  C   UNL     1       6.117   5.763  17.602  0.00  0.00    +0.000 A 
ATOM     21  C   UNL     1       6.504   6.937  16.940  0.00  0.00    +0.000 A 
ATOM     22  C   UNL     1       7.564   7.708  17.426  0.00  0.00    +0.000 A 
ATOM     23  C   UNL     1       8.247   7.315  18.578  0.00  0.00    +0.000 A 
ATOM     24  C   UNL     1       7.865   6.156  19.249  0.00  0.00    +0.000 A 
ATOM     25  C   UNL     1       6.811   5.392  18.757  0.00  0.00    +0.000 A 
ATOM     26  F   UNL     1       6.484   4.262  19.402  0.00  0.00    +0.000 F 
ENDBRANCH  19  20
ENDBRANCH  17  19
ENDBRANCH  13  17
TORSDOF 4
ENDMDL
