MODEL 1
REMARK VINA RESULT:      -6.8      0.000      0.000
REMARK  Name = 
REMARK  12 active torsions:
REMARK  status: ('A' for Active; 'I' for Inactive)
REMARK    1  A    between atoms: C_1  and  C_2
REMARK    2  A    between atoms: C_2  and  C_3
REMARK    3  A    between atoms: C_2  and  C_6
REMARK    4  A    between atoms: C_3  and  C_4
REMARK    5  A    between atoms: C_4  and  O_5
REMARK    6  A    between atoms: C_6  and  N_7
REMARK    7  A    between atoms: N_7  and  C_8
REMARK    8  A    between atoms: C_8  and  C_9
REMARK    9  A    between atoms: C_14  and  C_15
REMARK   10  A    between atoms: C_18  and  O_19
REMARK   11  A    between atoms: O_19  and  C_20
REMARK   12  A    between atoms: C_20  and  C_21
REMARK                            x       y       z     vdW  Elec       q    Type
REMARK                         _______ _______ _______ _____ _____    ______ ____
ROOT
ATOM      1  C   UNL     1       2.377   5.747  20.210  0.00  0.00    +0.000 A 
ATOM      2  C   UNL     1       1.772   7.002  20.186  0.00  0.00    +0.000 A 
ATOM      3  C   UNL     1       2.093   7.880  19.158  0.00  0.00    +0.000 A 
ATOM      4  C   UNL     1       3.015   7.486  18.199  0.00  0.00    +0.000 A 
ATOM      5  F   UNL     1       3.299   8.335  17.200  0.00  0.00    +0.000 F 
ATOM      6  C   UNL     1       3.602   6.222  18.272  0.00  0.00    +0.000 A 
ATOM      7  N   UNL     1       3.277   5.350  19.270  0.00  0.00    +0.000 NA
ENDROOT
BRANCH   6   8
ATOM      8  C   UNL     1       4.593   5.730  17.303  0.00  0.00    +0.000 A 
ATOM      9  C   UNL     1       5.781   6.426  17.037  0.00  0.00    +0.000 A 
ATOM     10  C   UNL     1       6.698   5.948  16.098  0.00  0.00    +0.000 A 
ATOM     11  C   UNL     1       6.411   4.767  15.430  0.00  0.00    +0.000 A 
ATOM     12  N   UNL     1       5.281   4.072  15.647  0.00  0.00    +0.000 NA
ATOM     13  C   UNL     1       4.410   4.562  16.566  0.00  0.00    +0.000 A 
BRANCH  11  14
ATOM     14  O   UNL     1       7.187   4.237  14.441  0.00  0.00    +0.000 OA
BRANCH  14  15
ATOM     15  C   UNL     1       6.878   4.674  13.116  0.00  0.00    +0.000 C 
BRANCH  15  16
ATOM     16  C   UNL     1       6.451   3.502  12.234  0.00  0.00    +0.000 C 
ATOM     17  F   UNL     1       7.408   3.101  11.373  0.00  0.00    +0.000 F 
ATOM     18  F   UNL     1       6.122   2.432  12.999  0.00  0.00    +0.000 F 
ATOM     19  F   UNL     1       5.354   3.820  11.507  0.00  0.00    +0.000 F 
ENDBRANCH  15  16
ENDBRANCH  14  15
ENDBRANCH  11  14
ENDBRANCH   6   8
BRANCH   1  20
ATOM     20  C   UNL     1       2.002   4.745  21.281  0.00  0.00    +0.000 C 
BRANCH  20  21
ATOM     21  N   UNL     1       1.070   3.698  20.825  0.00  0.00    +0.000 NA
ATOM     22  H   UNL     1       0.302   3.663  21.492  0.00  0.00    +0.000 HD
BRANCH  21  23
ATOM     23  C   UNL     1       1.723   2.387  20.755  0.00  0.00    +0.000 C 
BRANCH  23  25
ATOM     24  C   UNL     1       1.048   2.810  18.372  0.00  0.00    +0.000 C 
ATOM     25  C   UNL     1       1.863   1.897  19.297  0.00  0.00    +0.000 C 
BRANCH  25  26
ATOM     26  C   UNL     1       3.319   1.764  18.812  0.00  0.00    +0.000 C 
BRANCH  26  27
ATOM     27  C   UNL     1       4.377   1.977  19.889  0.00  0.00    +0.000 C 
BRANCH  27  28
ATOM     28  O   UNL     1       5.274   3.001  19.484  0.00  0.00    +0.000 OA
ATOM     29  H   UNL     1       4.899   3.853  19.767  0.00  0.00    +0.000 HD
ENDBRANCH  27  28
ENDBRANCH  26  27
ENDBRANCH  25  26
ENDBRANCH  23  25
ENDBRANCH  21  23
ENDBRANCH  20  21
ENDBRANCH   1  20
TORSDOF 11
ENDMDL
MODEL 2
REMARK VINA RESULT:      -6.6      4.082      7.504
REMARK  Name = 
REMARK  12 active torsions:
REMARK  status: ('A' for Active; 'I' for Inactive)
REMARK    1  A    between atoms: C_1  and  C_2
REMARK    2  A    between atoms: C_2  and  C_3
REMARK    3  A    between atoms: C_2  and  C_6
REMARK    4  A    between atoms: C_3  and  C_4
REMARK    5  A    between atoms: C_4  and  O_5
REMARK    6  A    between atoms: C_6  and  N_7
REMARK    7  A    between atoms: N_7  and  C_8
REMARK    8  A    between atoms: C_8  and  C_9
REMARK    9  A    between atoms: C_14  and  C_15
REMARK   10  A    between atoms: C_18  and  O_19
REMARK   11  A    between atoms: O_19  and  C_20
REMARK   12  A    between atoms: C_20  and  C_21
REMARK                            x       y       z     vdW  Elec       q    Type
REMARK                         _______ _______ _______ _____ _____    ______ ____
ROOT
ATOM      1  C   UNL     1       4.055   3.721  17.365  0.00  0.00    +0.000 A 
ATOM      2  C   UNL     1       3.387   2.552  17.729  0.00  0.00    +0.000 A 
ATOM      3  C   UNL     1       2.264   2.648  18.540  0.00  0.00    +0.000 A 
ATOM      4  C   UNL     1       1.851   3.899  18.974  0.00  0.00    +0.000 A 
ATOM      5  F   UNL     1       0.751   3.980  19.738  0.00  0.00    +0.000 F 
ATOM      6  C   UNL     1       2.558   5.040  18.591  0.00  0.00    +0.000 A 
ATOM      7  N   UNL     1       3.652   4.952  17.780  0.00  0.00    +0.000 NA
ENDROOT
BRANCH   6   8
ATOM      8  C   UNL     1       2.193   6.401  19.012  0.00  0.00    +0.000 A 
ATOM      9  C   UNL     1       1.827   6.697  20.333  0.00  0.00    +0.000 A 
ATOM     10  C   UNL     1       1.466   7.994  20.705  0.00  0.00    +0.000 A 
ATOM     11  C   UNL     1       1.476   8.990  19.740  0.00  0.00    +0.000 A 
ATOM     12  N   UNL     1       1.813   8.750  18.460  0.00  0.00    +0.000 NA
ATOM     13  C   UNL     1       2.159   7.479  18.130  0.00  0.00    +0.000 A 
BRANCH  11  14
ATOM     14  O   UNL     1       1.075  10.275  19.958  0.00  0.00    +0.000 OA
BRANCH  14  15
ATOM     15  C   UNL     1       0.638  10.988  18.800  0.00  0.00    +0.000 C 
BRANCH  15  16
ATOM     16  C   UNL     1      -0.887  10.998  18.702  0.00  0.00    +0.000 C 
ATOM     17  F   UNL     1      -1.396   9.880  18.146  0.00  0.00    +0.000 F 
ATOM     18  F   UNL     1      -1.438  11.126  19.934  0.00  0.00    +0.000 F 
ATOM     19  F   UNL     1      -1.315  12.052  17.966  0.00  0.00    +0.000 F 
ENDBRANCH  15  16
ENDBRANCH  14  15
ENDBRANCH  11  14
ENDBRANCH   6   8
BRANCH   1  20
ATOM     20  C   UNL     1       5.245   3.655  16.433  0.00  0.00    +0.000 C 
BRANCH  20  21
ATOM     21  N   UNL     1       5.753   4.974  16.013  0.00  0.00    +0.000 NA
ATOM     22  H   UNL     1       5.739   4.995  14.996  0.00  0.00    +0.000 HD
BRANCH  21  23
ATOM     23  C   UNL     1       7.120   5.203  16.493  0.00  0.00    +0.000 C 
BRANCH  23  25
ATOM     24  C   UNL     1       5.912   7.306  17.146  0.00  0.00    +0.000 C 
ATOM     25  C   UNL     1       7.270   6.594  17.144  0.00  0.00    +0.000 C 
BRANCH  25  26
ATOM     26  C   UNL     1       7.890   6.568  18.554  0.00  0.00    +0.000 C 
BRANCH  26  27
ATOM     27  C   UNL     1       7.287   5.537  19.502  0.00  0.00    +0.000 C 
BRANCH  27  28
ATOM     28  O   UNL     1       8.100   5.417  20.661  0.00  0.00    +0.000 OA
ATOM     29  H   UNL     1       7.916   6.183  21.232  0.00  0.00    +0.000 HD
ENDBRANCH  27  28
ENDBRANCH  26  27
ENDBRANCH  25  26
ENDBRANCH  23  25
ENDBRANCH  21  23
ENDBRANCH  20  21
ENDBRANCH   1  20
TORSDOF 11
ENDMDL
MODEL 3
REMARK VINA RESULT:      -6.6      3.806      7.676
REMARK  Name = 
REMARK  12 active torsions:
REMARK  status: ('A' for Active; 'I' for Inactive)
REMARK    1  A    between atoms: C_1  and  C_2
REMARK    2  A    between atoms: C_2  and  C_3
REMARK    3  A    between atoms: C_2  and  C_6
REMARK    4  A    between atoms: C_3  and  C_4
REMARK    5  A    between atoms: C_4  and  O_5
REMARK    6  A    between atoms: C_6  and  N_7
REMARK    7  A    between atoms: N_7  and  C_8
REMARK    8  A    between atoms: C_8  and  C_9
REMARK    9  A    between atoms: C_14  and  C_15
REMARK   10  A    between atoms: C_18  and  O_19
REMARK   11  A    between atoms: O_19  and  C_20
REMARK   12  A    between atoms: C_20  and  C_21
REMARK                            x       y       z     vdW  Elec       q    Type
REMARK                         _______ _______ _______ _____ _____    ______ ____
ROOT
ATOM      1  C   UNL     1       5.204   4.790  19.324  0.00  0.00    +0.000 A 
ATOM      2  C   UNL     1       4.623   3.523  19.310  0.00  0.00    +0.000 A 
ATOM      3  C   UNL     1       3.241   3.422  19.207  0.00  0.00    +0.000 A 
ATOM      4  C   UNL     1       2.484   4.582  19.137  0.00  0.00    +0.000 A 
ATOM      5  F   UNL     1       1.153   4.470  19.014  0.00  0.00    +0.000 F 
ATOM      6  C   UNL     1       3.112   5.829  19.164  0.00  0.00    +0.000 A 
ATOM      7  N   UNL     1       4.470   5.933  19.247  0.00  0.00    +0.000 NA
ENDROOT
BRANCH   6   8
ATOM      8  C   UNL     1       2.384   7.106  19.102  0.00  0.00    +0.000 A 
ATOM      9  C   UNL     1       2.244   7.823  17.905  0.00  0.00    +0.000 A 
ATOM     10  C   UNL     1       1.564   9.043  17.875  0.00  0.00    +0.000 A 
ATOM     11  C   UNL     1       1.028   9.535  19.056  0.00  0.00    +0.000 A 
ATOM     12  N   UNL     1       1.146   8.885  20.227  0.00  0.00    +0.000 NA
ATOM     13  C   UNL     1       1.811   7.701  20.223  0.00  0.00    +0.000 A 
BRANCH  11  14
ATOM     14  O   UNL     1       0.409  10.745  19.173  0.00  0.00    +0.000 OA
BRANCH  14  15
ATOM     15  C   UNL     1      -1.014  10.700  19.291  0.00  0.00    +0.000 C 
BRANCH  15  16
ATOM     16  C   UNL     1      -1.686  11.506  18.181  0.00  0.00    +0.000 C 
ATOM     17  F   UNL     1      -1.935  10.786  17.069  0.00  0.00    +0.000 F 
ATOM     18  F   UNL     1      -2.870  12.006  18.612  0.00  0.00    +0.000 F 
ATOM     19  F   UNL     1      -0.918  12.563  17.821  0.00  0.00    +0.000 F 
ENDBRANCH  15  16
ENDBRANCH  14  15
ENDBRANCH  11  14
ENDBRANCH   6   8
BRANCH   1  20
ATOM     20  C   UNL     1       6.710   4.933  19.372  0.00  0.00    +0.000 C 
BRANCH  20  21
ATOM     21  N   UNL     1       7.394   4.513  18.136  0.00  0.00    +0.000 NA
ATOM     22  H   UNL     1       8.392   4.490  18.333  0.00  0.00    +0.000 HD
BRANCH  21  23
ATOM     23  C   UNL     1       7.130   5.440  17.031  0.00  0.00    +0.000 C 
BRANCH  23  25
ATOM     24  C   UNL     1       5.144   6.053  15.620  0.00  0.00    +0.000 C 
ATOM     25  C   UNL     1       6.041   4.898  16.079  0.00  0.00    +0.000 C 
BRANCH  25  26
ATOM     26  C   UNL     1       6.589   4.103  14.879  0.00  0.00    +0.000 C 
BRANCH  26  27
ATOM     27  C   UNL     1       6.823   4.927  13.617  0.00  0.00    +0.000 C 
BRANCH  27  28
ATOM     28  O   UNL     1       8.118   5.512  13.659  0.00  0.00    +0.000 OA
ATOM     29  H   UNL     1       8.025   6.409  14.023  0.00  0.00    +0.000 HD
ENDBRANCH  27  28
ENDBRANCH  26  27
ENDBRANCH  25  26
ENDBRANCH  23  25
ENDBRANCH  21  23
ENDBRANCH  20  21
ENDBRANCH   1  20
TORSDOF 11
ENDMDL
MODEL 4
REMARK VINA RESULT:      -6.6      4.312      7.650
REMARK  Name = 
REMARK  12 active torsions:
REMARK  status: ('A' for Active; 'I' for Inactive)
REMARK    1  A    between atoms: C_1  and  C_2
REMARK    2  A    between atoms: C_2  and  C_3
REMARK    3  A    between atoms: C_2  and  C_6
REMARK    4  A    between atoms: C_3  and  C_4
REMARK    5  A    between atoms: C_4  and  O_5
REMARK    6  A    between atoms: C_6  and  N_7
REMARK    7  A    between atoms: N_7  and  C_8
REMARK    8  A    between atoms: C_8  and  C_9
REMARK    9  A    between atoms: C_14  and  C_15
REMARK   10  A    between atoms: C_18  and  O_19
REMARK   11  A    between atoms: O_19  and  C_20
REMARK   12  A    between atoms: C_20  and  C_21
REMARK                            x       y       z     vdW  Elec       q    Type
REMARK                         _______ _______ _______ _____ _____    ______ ____
ROOT
ATOM      1  C   UNL     1       4.400   4.414  19.570  0.00  0.00    +0.000 A 
ATOM      2  C   UNL     1       3.668   3.364  20.122  0.00  0.00    +0.000 A 
ATOM      3  C   UNL     1       2.346   3.588  20.483  0.00  0.00    +0.000 A 
ATOM      4  C   UNL     1       1.801   4.850  20.298  0.00  0.00    +0.000 A 
ATOM      5  F   UNL     1       0.516   5.046  20.630  0.00  0.00    +0.000 F 
ATOM      6  C   UNL     1       2.577   5.872  19.750  0.00  0.00    +0.000 A 
ATOM      7  N   UNL     1       3.871   5.653  19.377  0.00  0.00    +0.000 NA
ENDROOT
BRANCH   6   8
ATOM      8  C   UNL     1       2.080   7.239  19.528  0.00  0.00    +0.000 A 
ATOM      9  C   UNL     1       1.505   7.996  20.558  0.00  0.00    +0.000 A 
ATOM     10  C   UNL     1       1.023   9.286  20.318  0.00  0.00    +0.000 A 
ATOM     11  C   UNL     1       1.124   9.805  19.037  0.00  0.00    +0.000 A 
ATOM     12  N   UNL     1       1.660   9.111  18.017  0.00  0.00    +0.000 NA
ATOM     13  C   UNL     1       2.120   7.862  18.282  0.00  0.00    +0.000 A 
BRANCH  11  14
ATOM     14  O   UNL     1       0.625  11.017  18.658  0.00  0.00    +0.000 OA
BRANCH  14  15
ATOM     15  C   UNL     1      -0.649  11.358  19.207  0.00  0.00    +0.000 C 
BRANCH  15  16
ATOM     16  C   UNL     1      -1.785  10.874  18.308  0.00  0.00    +0.000 C 
ATOM     17  F   UNL     1      -2.865  11.680  18.326  0.00  0.00    +0.000 F 
ATOM     18  F   UNL     1      -1.364  10.790  17.021  0.00  0.00    +0.000 F 
ATOM     19  F   UNL     1      -2.193   9.634  18.671  0.00  0.00    +0.000 F 
ENDBRANCH  15  16
ENDBRANCH  14  15
ENDBRANCH  11  14
ENDBRANCH   6   8
BRANCH   1  20
ATOM     20  C   UNL     1       5.824   4.186  19.108  0.00  0.00    +0.000 C 
BRANCH  20  21
ATOM     21  N   UNL     1       6.787   5.182  19.613  0.00  0.00    +0.000 NA
ATOM     22  H   UNL     1       6.251   5.935  20.037  0.00  0.00    +0.000 HD
BRANCH  21  23
ATOM     23  C   UNL     1       7.625   5.717  18.536  0.00  0.00    +0.000 C 
BRANCH  23  25
ATOM     24  C   UNL     1       7.777   8.017  17.536  0.00  0.00    +0.000 C 
ATOM     25  C   UNL     1       6.878   6.786  17.710  0.00  0.00    +0.000 C 
BRANCH  25  26
ATOM     26  C   UNL     1       6.350   6.283  16.353  0.00  0.00    +0.000 C 
BRANCH  26  27
ATOM     27  C   UNL     1       7.076   5.063  15.794  0.00  0.00    +0.000 C 
BRANCH  27  28
ATOM     28  O   UNL     1       7.669   5.389  14.545  0.00  0.00    +0.000 OA
ATOM     29  H   UNL     1       7.140   4.966  13.847  0.00  0.00    +0.000 HD
ENDBRANCH  27  28
ENDBRANCH  26  27
ENDBRANCH  25  26
ENDBRANCH  23  25
ENDBRANCH  21  23
ENDBRANCH  20  21
ENDBRANCH   1  20
TORSDOF 11
ENDMDL
MODEL 5
REMARK VINA RESULT:      -6.5      4.361      7.841
REMARK  Name = 
REMARK  12 active torsions:
REMARK  status: ('A' for Active; 'I' for Inactive)
REMARK    1  A    between atoms: C_1  and  C_2
REMARK    2  A    between atoms: C_2  and  C_3
REMARK    3  A    between atoms: C_2  and  C_6
REMARK    4  A    between atoms: C_3  and  C_4
REMARK    5  A    between atoms: C_4  and  O_5
REMARK    6  A    between atoms: C_6  and  N_7
REMARK    7  A    between atoms: N_7  and  C_8
REMARK    8  A    between atoms: C_8  and  C_9
REMARK    9  A    between atoms: C_14  and  C_15
REMARK   10  A    between atoms: C_18  and  O_19
REMARK   11  A    between atoms: O_19  and  C_20
REMARK   12  A    between atoms: C_20  and  C_21
REMARK                            x       y       z     vdW  Elec       q    Type
REMARK                         _______ _______ _______ _____ _____    ______ ____
ROOT
ATOM      1  C   UNL     1       3.945   4.368  17.881  0.00  0.00    +0.000 A 
ATOM      2  C   UNL     1       3.715   3.446  18.900  0.00  0.00    +0.000 A 
ATOM      3  C   UNL     1       2.935   3.827  19.984  0.00  0.00    +0.000 A 
ATOM      4  C   UNL     1       2.422   5.115  20.025  0.00  0.00    +0.000 A 
ATOM      5  F   UNL     1       1.650   5.462  21.066  0.00  0.00    +0.000 F 
ATOM      6  C   UNL     1       2.687   6.006  18.984  0.00  0.00    +0.000 A 
ATOM      7  N   UNL     1       3.439   5.631  17.909  0.00  0.00    +0.000 NA
ENDROOT
BRANCH   6   8
ATOM      8  C   UNL     1       2.189   7.390  18.953  0.00  0.00    +0.000 A 
ATOM      9  C   UNL     1       2.277   8.185  17.801  0.00  0.00    +0.000 A 
ATOM     10  C   UNL     1       1.814   9.503  17.802  0.00  0.00    +0.000 A 
ATOM     11  C   UNL     1       1.264  10.014  18.967  0.00  0.00    +0.000 A 
ATOM     12  N   UNL     1       1.168   9.290  20.097  0.00  0.00    +0.000 NA
ATOM     13  C   UNL     1       1.625   8.012  20.064  0.00  0.00    +0.000 A 
BRANCH  11  14
ATOM     14  O   UNL     1       0.846  11.303  19.118  0.00  0.00    +0.000 OA
BRANCH  14  15
ATOM     15  C   UNL     1      -0.262  11.492  20.000  0.00  0.00    +0.000 C 
BRANCH  15  16
ATOM     16  C   UNL     1      -1.533  11.835  19.225  0.00  0.00    +0.000 C 
ATOM     17  F   UNL     1      -2.424  12.549  19.942  0.00  0.00    +0.000 F 
ATOM     18  F   UNL     1      -1.230  12.559  18.120  0.00  0.00    +0.000 F 
ATOM     19  F   UNL     1      -2.157  10.710  18.801  0.00  0.00    +0.000 F 
ENDBRANCH  15  16
ENDBRANCH  14  15
ENDBRANCH  11  14
ENDBRANCH   6   8
BRANCH   1  20
ATOM     20  C   UNL     1       4.740   3.964  16.657  0.00  0.00    +0.000 C 
BRANCH  20  21
ATOM     21  N   UNL     1       5.620   5.025  16.134  0.00  0.00    +0.000 NA
ATOM     22  H   UNL     1       5.739   4.857  15.138  0.00  0.00    +0.000 HD
BRANCH  21  23
ATOM     23  C   UNL     1       6.928   5.017  16.797  0.00  0.00    +0.000 C 
BRANCH  23  25
ATOM     24  C   UNL     1       6.177   7.400  17.055  0.00  0.00    +0.000 C 
ATOM     25  C   UNL     1       7.355   6.435  17.233  0.00  0.00    +0.000 C 
BRANCH  25  26
ATOM     26  C   UNL     1       7.931   6.511  18.660  0.00  0.00    +0.000 C 
BRANCH  26  27
ATOM     27  C   UNL     1       7.341   5.508  19.645  0.00  0.00    +0.000 C 
BRANCH  27  28
ATOM     28  O   UNL     1       8.204   5.372  20.766  0.00  0.00    +0.000 OA
ATOM     29  H   UNL     1       8.288   4.423  20.961  0.00  0.00    +0.000 HD
ENDBRANCH  27  28
ENDBRANCH  26  27
ENDBRANCH  25  26
ENDBRANCH  23  25
ENDBRANCH  21  23
ENDBRANCH  20  21
ENDBRANCH   1  20
TORSDOF 11
ENDMDL
MODEL 6
REMARK VINA RESULT:      -6.5      4.068      8.059
REMARK  Name = 
REMARK  12 active torsions:
REMARK  status: ('A' for Active; 'I' for Inactive)
REMARK    1  A    between atoms: C_1  and  C_2
REMARK    2  A    between atoms: C_2  and  C_3
REMARK    3  A    between atoms: C_2  and  C_6
REMARK    4  A    between atoms: C_3  and  C_4
REMARK    5  A    between atoms: C_4  and  O_5
REMARK    6  A    between atoms: C_6  and  N_7
REMARK    7  A    between atoms: N_7  and  C_8
REMARK    8  A    between atoms: C_8  and  C_9
REMARK    9  A    between atoms: C_14  and  C_15
REMARK   10  A    between atoms: C_18  and  O_19
REMARK   11  A    between atoms: O_19  and  C_20
REMARK   12  A    between atoms: C_20  and  C_21
REMARK                            x       y       z     vdW  Elec       q    Type
REMARK                         _______ _______ _______ _____ _____    ______ ____
ROOT
ATOM      1  C   UNL     1       3.992   3.716  17.106  0.00  0.00    +0.000 A 
ATOM      2  C   UNL     1       3.706   2.496  17.716  0.00  0.00    +0.000 A 
ATOM      3  C   UNL     1       2.916   2.489  18.859  0.00  0.00    +0.000 A 
ATOM      4  C   UNL     1       2.450   3.694  19.364  0.00  0.00    +0.000 A 
ATOM      5  F   UNL     1       1.669   3.670  20.454  0.00  0.00    +0.000 F 
ATOM      6  C   UNL     1       2.772   4.891  18.722  0.00  0.00    +0.000 A 
ATOM      7  N   UNL     1       3.533   4.902  17.590  0.00  0.00    +0.000 NA
ENDROOT
BRANCH   6   8
ATOM      8  C   UNL     1       2.326   6.211  19.195  0.00  0.00    +0.000 A 
ATOM      9  C   UNL     1       2.337   7.340  18.364  0.00  0.00    +0.000 A 
ATOM     10  C   UNL     1       1.926   8.587  18.842  0.00  0.00    +0.000 A 
ATOM     11  C   UNL     1       1.507   8.689  20.159  0.00  0.00    +0.000 A 
ATOM     12  N   UNL     1       1.489   7.635  20.994  0.00  0.00    +0.000 NA
ATOM     13  C   UNL     1       1.893   6.436  20.500  0.00  0.00    +0.000 A 
BRANCH  11  14
ATOM     14  O   UNL     1       1.155   9.860  20.764  0.00  0.00    +0.000 OA
BRANCH  14  15
ATOM     15  C   UNL     1      -0.209   9.951  21.180  0.00  0.00    +0.000 C 
BRANCH  15  16
ATOM     16  C   UNL     1      -0.325   9.911  22.703  0.00  0.00    +0.000 C 
ATOM     17  F   UNL     1      -1.193   8.982  23.151  0.00  0.00    +0.000 F 
ATOM     18  F   UNL     1       0.880   9.641  23.261  0.00  0.00    +0.000 F 
ATOM     19  F   UNL     1      -0.725  11.111  23.188  0.00  0.00    +0.000 F 
ENDBRANCH  15  16
ENDBRANCH  14  15
ENDBRANCH  11  14
ENDBRANCH   6   8
BRANCH   1  20
ATOM     20  C   UNL     1       4.798   3.753  15.825  0.00  0.00    +0.000 C 
BRANCH  20  21
ATOM     21  N   UNL     1       6.255   3.827  16.033  0.00  0.00    +0.000 NA
ATOM     22  H   UNL     1       6.434   3.611  17.011  0.00  0.00    +0.000 HD
BRANCH  21  23
ATOM     23  C   UNL     1       6.778   5.161  15.718  0.00  0.00    +0.000 C 
BRANCH  23  25
ATOM     24  C   UNL     1       6.548   7.097  17.303  0.00  0.00    +0.000 C 
ATOM     25  C   UNL     1       7.373   5.849  16.965  0.00  0.00    +0.000 C 
BRANCH  25  26
ATOM     26  C   UNL     1       7.517   4.925  18.189  0.00  0.00    +0.000 C 
BRANCH  26  27
ATOM     27  C   UNL     1       6.970   5.498  19.494  0.00  0.00    +0.000 C 
BRANCH  27  28
ATOM     28  O   UNL     1       8.009   5.561  20.462  0.00  0.00    +0.000 OA
ATOM     29  H   UNL     1       7.757   6.230  21.122  0.00  0.00    +0.000 HD
ENDBRANCH  27  28
ENDBRANCH  26  27
ENDBRANCH  25  26
ENDBRANCH  23  25
ENDBRANCH  21  23
ENDBRANCH  20  21
ENDBRANCH   1  20
TORSDOF 11
ENDMDL
MODEL 7
REMARK VINA RESULT:      -6.4      3.849      8.524
REMARK  Name = 
REMARK  12 active torsions:
REMARK  status: ('A' for Active; 'I' for Inactive)
REMARK    1  A    between atoms: C_1  and  C_2
REMARK    2  A    between atoms: C_2  and  C_3
REMARK    3  A    between atoms: C_2  and  C_6
REMARK    4  A    between atoms: C_3  and  C_4
REMARK    5  A    between atoms: C_4  and  O_5
REMARK    6  A    between atoms: C_6  and  N_7
REMARK    7  A    between atoms: N_7  and  C_8
REMARK    8  A    between atoms: C_8  and  C_9
REMARK    9  A    between atoms: C_14  and  C_15
REMARK   10  A    between atoms: C_18  and  O_19
REMARK   11  A    between atoms: O_19  and  C_20
REMARK   12  A    between atoms: C_20  and  C_21
REMARK                            x       y       z     vdW  Elec       q    Type
REMARK                         _______ _______ _______ _____ _____    ______ ____
ROOT
ATOM      1  C   UNL     1       4.871   4.445  16.962  0.00  0.00    +0.000 A 
ATOM      2  C   UNL     1       4.245   3.209  16.810  0.00  0.00    +0.000 A 
ATOM      3  C   UNL     1       2.952   3.050  17.293  0.00  0.00    +0.000 A 
ATOM      4  C   UNL     1       2.333   4.118  17.924  0.00  0.00    +0.000 A 
ATOM      5  F   UNL     1       1.076   3.958  18.366  0.00  0.00    +0.000 F 
ATOM      6  C   UNL     1       3.005   5.334  18.061  0.00  0.00    +0.000 A 
ATOM      7  N   UNL     1       4.268   5.501  17.573  0.00  0.00    +0.000 NA
ENDROOT
BRANCH   6   8
ATOM      8  C   UNL     1       2.424   6.513  18.723  0.00  0.00    +0.000 A 
ATOM      9  C   UNL     1       2.241   7.728  18.048  0.00  0.00    +0.000 A 
ATOM     10  C   UNL     1       1.705   8.839  18.704  0.00  0.00    +0.000 A 
ATOM     11  C   UNL     1       1.356   8.719  20.040  0.00  0.00    +0.000 A 
ATOM     12  N   UNL     1       1.522   7.575  20.729  0.00  0.00    +0.000 NA
ATOM     13  C   UNL     1       2.045   6.513  20.064  0.00  0.00    +0.000 A 
BRANCH  11  14
ATOM     14  O   UNL     1       0.894   9.746  20.809  0.00  0.00    +0.000 OA
BRANCH  14  15
ATOM     15  C   UNL     1       1.215   9.667  22.199  0.00  0.00    +0.000 C 
BRANCH  15  16
ATOM     16  C   UNL     1      -0.050   9.629  23.056  0.00  0.00    +0.000 C 
ATOM     17  F   UNL     1       0.188   9.345  24.352  0.00  0.00    +0.000 F 
ATOM     18  F   UNL     1      -0.684  10.827  23.013  0.00  0.00    +0.000 F 
ATOM     19  F   UNL     1      -0.921   8.704  22.587  0.00  0.00    +0.000 F 
ENDBRANCH  15  16
ENDBRANCH  14  15
ENDBRANCH  11  14
ENDBRANCH   6   8
BRANCH   1  20
ATOM     20  C   UNL     1       6.255   4.669  16.392  0.00  0.00    +0.000 C 
BRANCH  20  21
ATOM     21  N   UNL     1       6.260   5.197  15.015  0.00  0.00    +0.000 NA
ATOM     22  H   UNL     1       5.524   5.897  14.955  0.00  0.00    +0.000 HD
BRANCH  21  23
ATOM     23  C   UNL     1       6.015   4.137  14.031  0.00  0.00    +0.000 C 
BRANCH  23  25
ATOM     24  C   UNL     1       7.994   5.204  12.909  0.00  0.00    +0.000 C 
ATOM     25  C   UNL     1       6.675   4.457  12.672  0.00  0.00    +0.000 C 
BRANCH  25  26
ATOM     26  C   UNL     1       6.882   3.230  11.765  0.00  0.00    +0.000 C 
BRANCH  26  27
ATOM     27  C   UNL     1       5.667   2.315  11.635  0.00  0.00    +0.000 C 
BRANCH  27  28
ATOM     28  O   UNL     1       6.095   0.973  11.454  0.00  0.00    +0.000 OA
ATOM     29  H   UNL     1       5.388   0.497  10.985  0.00  0.00    +0.000 HD
ENDBRANCH  27  28
ENDBRANCH  26  27
ENDBRANCH  25  26
ENDBRANCH  23  25
ENDBRANCH  21  23
ENDBRANCH  20  21
ENDBRANCH   1  20
TORSDOF 11
ENDMDL
MODEL 8
REMARK VINA RESULT:      -6.4      0.970      1.418
REMARK  Name = 
REMARK  12 active torsions:
REMARK  status: ('A' for Active; 'I' for Inactive)
REMARK    1  A    between atoms: C_1  and  C_2
REMARK    2  A    between atoms: C_2  and  C_3
REMARK    3  A    between atoms: C_2  and  C_6
REMARK    4  A    between atoms: C_3  and  C_4
REMARK    5  A    between atoms: C_4  and  O_5
REMARK    6  A    between atoms: C_6  and  N_7
REMARK    7  A    between atoms: N_7  and  C_8
REMARK    8  A    between atoms: C_8  and  C_9
REMARK    9  A    between atoms: C_14  and  C_15
REMARK   10  A    between atoms: C_18  and  O_19
REMARK   11  A    between atoms: O_19  and  C_20
REMARK   12  A    between atoms: C_20  and  C_21
REMARK                            x       y       z     vdW  Elec       q    Type
REMARK                         _______ _______ _______ _____ _____    ______ ____
ROOT
ATOM      1  C   UNL     1       2.502   5.599  20.455  0.00  0.00    +0.000 A 
ATOM      2  C   UNL     1       1.852   6.818  20.635  0.00  0.00    +0.000 A 
ATOM      3  C   UNL     1       1.958   7.786  19.644  0.00  0.00    +0.000 A 
ATOM      4  C   UNL     1       2.717   7.515  18.516  0.00  0.00    +0.000 A 
ATOM      5  F   UNL     1       2.791   8.449  17.556  0.00  0.00    +0.000 F 
ATOM      6  C   UNL     1       3.357   6.281  18.385  0.00  0.00    +0.000 A 
ATOM      7  N   UNL     1       3.243   5.321  19.347  0.00  0.00    +0.000 NA
ENDROOT
BRANCH   6   8
ATOM      8  C   UNL     1       4.186   5.916  17.226  0.00  0.00    +0.000 A 
ATOM      9  C   UNL     1       4.404   4.580  16.860  0.00  0.00    +0.000 A 
ATOM     10  C   UNL     1       5.212   4.258  15.766  0.00  0.00    +0.000 A 
ATOM     11  C   UNL     1       5.797   5.288  15.045  0.00  0.00    +0.000 A 
ATOM     12  N   UNL     1       5.622   6.582  15.366  0.00  0.00    +0.000 NA
ATOM     13  C   UNL     1       4.832   6.863  16.433  0.00  0.00    +0.000 A 
BRANCH  11  14
ATOM     14  O   UNL     1       6.662   5.103  14.007  0.00  0.00    +0.000 OA
BRANCH  14  15
ATOM     15  C   UNL     1       6.808   3.754  13.560  0.00  0.00    +0.000 C 
BRANCH  15  16
ATOM     16  C   UNL     1       6.652   3.655  12.044  0.00  0.00    +0.000 C 
ATOM     17  F   UNL     1       5.369   3.683  11.633  0.00  0.00    +0.000 F 
ATOM     18  F   UNL     1       7.294   4.684  11.436  0.00  0.00    +0.000 F 
ATOM     19  F   UNL     1       7.207   2.512  11.576  0.00  0.00    +0.000 F 
ENDBRANCH  15  16
ENDBRANCH  14  15
ENDBRANCH  11  14
ENDBRANCH   6   8
BRANCH   1  20
ATOM     20  C   UNL     1       2.356   4.501  21.487  0.00  0.00    +0.000 C 
BRANCH  20  21
ATOM     21  N   UNL     1       1.321   3.503  21.161  0.00  0.00    +0.000 NA
ATOM     22  H   UNL     1       1.719   2.584  21.337  0.00  0.00    +0.000 HD
BRANCH  21  23
ATOM     23  C   UNL     1       0.902   3.599  19.759  0.00  0.00    +0.000 C 
BRANCH  23  25
ATOM     24  C   UNL     1       1.666   2.806  17.502  0.00  0.00    +0.000 C 
ATOM     25  C   UNL     1       1.361   2.373  18.941  0.00  0.00    +0.000 C 
BRANCH  25  26
ATOM     26  C   UNL     1       2.547   1.609  19.559  0.00  0.00    +0.000 C 
BRANCH  26  27
ATOM     27  C   UNL     1       3.868   1.758  18.811  0.00  0.00    +0.000 C 
BRANCH  27  28
ATOM     28  O   UNL     1       4.805   2.447  19.627  0.00  0.00    +0.000 OA
ATOM     29  H   UNL     1       4.983   3.308  19.211  0.00  0.00    +0.000 HD
ENDBRANCH  27  28
ENDBRANCH  26  27
ENDBRANCH  25  26
ENDBRANCH  23  25
ENDBRANCH  21  23
ENDBRANCH  20  21
ENDBRANCH   1  20
TORSDOF 11
ENDMDL
MODEL 9
REMARK VINA RESULT:      -6.4      4.286      8.227
REMARK  Name = 
REMARK  12 active torsions:
REMARK  status: ('A' for Active; 'I' for Inactive)
REMARK    1  A    between atoms: C_1  and  C_2
REMARK    2  A    between atoms: C_2  and  C_3
REMARK    3  A    between atoms: C_2  and  C_6
REMARK    4  A    between atoms: C_3  and  C_4
REMARK    5  A    between atoms: C_4  and  O_5
REMARK    6  A    between atoms: C_6  and  N_7
REMARK    7  A    between atoms: N_7  and  C_8
REMARK    8  A    between atoms: C_8  and  C_9
REMARK    9  A    between atoms: C_14  and  C_15
REMARK   10  A    between atoms: C_18  and  O_19
REMARK   11  A    between atoms: O_19  and  C_20
REMARK   12  A    between atoms: C_20  and  C_21
REMARK                            x       y       z     vdW  Elec       q    Type
REMARK                         _______ _______ _______ _____ _____    ______ ____
ROOT
ATOM      1  C   UNL     1       4.303   4.279  19.368  0.00  0.00    +0.000 A 
ATOM      2  C   UNL     1       3.578   3.208  19.888  0.00  0.00    +0.000 A 
ATOM      3  C   UNL     1       2.278   3.427  20.323  0.00  0.00    +0.000 A 
ATOM      4  C   UNL     1       1.747   4.706  20.240  0.00  0.00    +0.000 A 
ATOM      5  F   UNL     1       0.482   4.900  20.642  0.00  0.00    +0.000 F 
ATOM      6  C   UNL     1       2.515   5.749  19.720  0.00  0.00    +0.000 A 
ATOM      7  N   UNL     1       3.787   5.535  19.276  0.00  0.00    +0.000 NA
ENDROOT
BRANCH   6   8
ATOM      8  C   UNL     1       2.032   7.134  19.604  0.00  0.00    +0.000 A 
ATOM      9  C   UNL     1       2.103   7.846  18.399  0.00  0.00    +0.000 A 
ATOM     10  C   UNL     1       1.654   9.168  18.319  0.00  0.00    +0.000 A 
ATOM     11  C   UNL     1       1.136   9.764  19.458  0.00  0.00    +0.000 A 
ATOM     12  N   UNL     1       1.058   9.121  20.637  0.00  0.00    +0.000 NA
ATOM     13  C   UNL     1       1.500   7.839  20.682  0.00  0.00    +0.000 A 
BRANCH  11  14
ATOM     14  O   UNL     1       0.736  11.066  19.528  0.00  0.00    +0.000 OA
BRANCH  14  15
ATOM     15  C   UNL     1       1.123  11.766  20.712  0.00  0.00    +0.000 C 
BRANCH  15  16
ATOM     16  C   UNL     1      -0.099  12.239  21.498  0.00  0.00    +0.000 C 
ATOM     17  F   UNL     1      -0.327  11.525  22.618  0.00  0.00    +0.000 F 
ATOM     18  F   UNL     1       0.051  13.534  21.868  0.00  0.00    +0.000 F 
ATOM     19  F   UNL     1      -1.217  12.172  20.736  0.00  0.00    +0.000 F 
ENDBRANCH  15  16
ENDBRANCH  14  15
ENDBRANCH  11  14
ENDBRANCH   6   8
BRANCH   1  20
ATOM     20  C   UNL     1       5.700   4.059  18.829  0.00  0.00    +0.000 C 
BRANCH  20  21
ATOM     21  N   UNL     1       6.705   4.998  19.361  0.00  0.00    +0.000 NA
ATOM     22  H   UNL     1       6.203   5.729  19.859  0.00  0.00    +0.000 HD
BRANCH  21  23
ATOM     23  C   UNL     1       7.509   5.593  18.289  0.00  0.00    +0.000 C 
BRANCH  23  25
ATOM     24  C   UNL     1       7.724   7.975  17.520  0.00  0.00    +0.000 C 
ATOM     25  C   UNL     1       6.776   6.772  17.613  0.00  0.00    +0.000 C 
BRANCH  25  26
ATOM     26  C   UNL     1       6.164   6.434  16.241  0.00  0.00    +0.000 C 
BRANCH  26  27
ATOM     27  C   UNL     1       6.689   5.152  15.602  0.00  0.00    +0.000 C 
BRANCH  27  28
ATOM     28  O   UNL     1       7.806   5.451  14.776  0.00  0.00    +0.000 OA
ATOM     29  H   UNL     1       7.525   5.350  13.850  0.00  0.00    +0.000 HD
ENDBRANCH  27  28
ENDBRANCH  26  27
ENDBRANCH  25  26
ENDBRANCH  23  25
ENDBRANCH  21  23
ENDBRANCH  20  21
ENDBRANCH   1  20
TORSDOF 11
ENDMDL
