MODEL 1
REMARK VINA RESULT:      -7.1      0.000      0.000
REMARK  Name = 
REMARK  9 active torsions:
REMARK  status: ('A' for Active; 'I' for Inactive)
REMARK    1  A    between atoms: C_1  and  C_2
REMARK    2  A    between atoms: C_2  and  O_3
REMARK    3  A    between atoms: O_3  and  C_4
REMARK    4  A    between atoms: C_4  and  C_6
REMARK    5  A    between atoms: C_7  and  C_8
REMARK    6  A    between atoms: N_9  and  C_10
REMARK    7  A    between atoms: C_18  and  C_19
REMARK    8  A    between atoms: C_19  and  C_20
REMARK    9  A    between atoms: C_20  and  O_22
REMARK                            x       y       z     vdW  Elec       q    Type
REMARK                         _______ _______ _______ _____ _____    ______ ____
ROOT
ATOM      1  C   UNL     1       5.355   4.691  16.562  0.00  0.00    +0.000 C 
ATOM      2  C   UNL     1       4.534   3.827  17.174  0.00  0.00    +0.000 C 
ATOM      3  C   UNL     1       4.182   2.420  16.798  0.00  0.00    +0.000 C 
ATOM      4  N   UNL     1       3.915   4.457  18.234  0.00  0.00    +0.000 N 
ATOM      5  C   UNL     1       4.369   5.770  18.370  0.00  0.00    +0.000 C 
ATOM      6  O   UNL     1       4.138   6.573  19.268  0.00  0.00    +0.000 OA
ATOM      7  C   UNL     1       5.373   6.028  17.260  0.00  0.00    +0.000 C 
ENDROOT
BRANCH   4   8
ATOM      8  C   UNL     1       3.009   3.904  19.159  0.00  0.00    +0.000 A 
ATOM      9  C   UNL     1       1.637   4.074  18.953  0.00  0.00    +0.000 A 
ATOM     10  C   UNL     1       0.723   3.539  19.859  0.00  0.00    +0.000 A 
ATOM     11  C   UNL     1       1.179   2.870  20.994  0.00  0.00    +0.000 A 
ATOM     12  C   UNL     1       2.548   2.715  21.212  0.00  0.00    +0.000 A 
ATOM     13  C   UNL     1       3.465   3.217  20.288  0.00  0.00    +0.000 A 
ENDBRANCH   4   8
BRANCH   1  14
ATOM     14  C   UNL     1       6.166   4.421  15.367  0.00  0.00    +0.000 C 
ATOM     15  O   UNL     1       7.383   4.426  15.328  0.00  0.00    +0.000 OA
BRANCH  14  16
ATOM     16  O   UNL     1       5.334   4.235  14.310  0.00  0.00    +0.000 OA
BRANCH  16  18
ATOM     17  C   UNL     1       4.876   3.421  12.113  0.00  0.00    +0.000 C 
ATOM     18  C   UNL     1       5.961   3.682  13.144  0.00  0.00    +0.000 C 
ENDBRANCH  16  18
ENDBRANCH  14  16
ENDBRANCH   1  14
BRANCH   7  19
ATOM     19  C   UNL     1       6.690   6.487  17.881  0.00  0.00    +0.000 C 
BRANCH  19  20
ATOM     20  C   UNL     1       7.302   5.450  18.789  0.00  0.00    +0.000 C 
ATOM     21  O   UNL     1       7.181   5.469  20.006  0.00  0.00    +0.000 OA
BRANCH  20  22
ATOM     22  O   UNL     1       8.031   4.516  18.146  0.00  0.00    +0.000 OA
ATOM     23  H   UNL     1       8.600   3.956  18.717  0.00  0.00    +0.000 HD
ENDBRANCH  20  22
ENDBRANCH  19  20
ENDBRANCH   7  19
TORSDOF 7
ENDMDL
MODEL 2
REMARK VINA RESULT:      -7.1      0.058      1.033
REMARK  Name = 
REMARK  9 active torsions:
REMARK  status: ('A' for Active; 'I' for Inactive)
REMARK    1  A    between atoms: C_1  and  C_2
REMARK    2  A    between atoms: C_2  and  O_3
REMARK    3  A    between atoms: O_3  and  C_4
REMARK    4  A    between atoms: C_4  and  C_6
REMARK    5  A    between atoms: C_7  and  C_8
REMARK    6  A    between atoms: N_9  and  C_10
REMARK    7  A    between atoms: C_18  and  C_19
REMARK    8  A    between atoms: C_19  and  C_20
REMARK    9  A    between atoms: C_20  and  O_22
REMARK                            x       y       z     vdW  Elec       q    Type
REMARK                         _______ _______ _______ _____ _____    ______ ____
ROOT
ATOM      1  C   UNL     1       5.337   4.664  16.600  0.00  0.00    +0.000 C 
ATOM      2  C   UNL     1       4.508   3.817  17.226  0.00  0.00    +0.000 C 
ATOM      3  C   UNL     1       4.151   2.404  16.878  0.00  0.00    +0.000 C 
ATOM      4  N   UNL     1       3.888   4.472  18.268  0.00  0.00    +0.000 N 
ATOM      5  C   UNL     1       4.348   5.786  18.379  0.00  0.00    +0.000 C 
ATOM      6  O   UNL     1       4.116   6.609  19.258  0.00  0.00    +0.000 OA
ATOM      7  C   UNL     1       5.359   6.015  17.269  0.00  0.00    +0.000 C 
ENDROOT
BRANCH   4   8
ATOM      8  C   UNL     1       2.974   3.944  19.200  0.00  0.00    +0.000 A 
ATOM      9  C   UNL     1       3.460   3.244  20.308  0.00  0.00    +0.000 A 
ATOM     10  C   UNL     1       2.573   2.709  21.241  0.00  0.00    +0.000 A 
ATOM     11  C   UNL     1       1.198   2.837  21.046  0.00  0.00    +0.000 A 
ATOM     12  C   UNL     1       0.710   3.519  19.932  0.00  0.00    +0.000 A 
ATOM     13  C   UNL     1       1.595   4.088  19.016  0.00  0.00    +0.000 A 
ENDBRANCH   4   8
BRANCH   1  14
ATOM     14  C   UNL     1       6.153   4.363  15.415  0.00  0.00    +0.000 C 
ATOM     15  O   UNL     1       7.370   4.385  15.377  0.00  0.00    +0.000 OA
BRANCH  14  16
ATOM     16  O   UNL     1       5.325   4.127  14.365  0.00  0.00    +0.000 OA
BRANCH  16  18
ATOM     17  C   UNL     1       4.919   3.457  12.111  0.00  0.00    +0.000 C 
ATOM     18  C   UNL     1       5.981   3.665  13.176  0.00  0.00    +0.000 C 
ENDBRANCH  16  18
ENDBRANCH  14  16
ENDBRANCH   1  14
BRANCH   7  19
ATOM     19  C   UNL     1       6.674   6.481  17.887  0.00  0.00    +0.000 C 
BRANCH  19  20
ATOM     20  C   UNL     1       7.287   5.451  18.804  0.00  0.00    +0.000 C 
ATOM     21  O   UNL     1       7.152   5.472  20.020  0.00  0.00    +0.000 OA
BRANCH  20  22
ATOM     22  O   UNL     1       8.033   4.524  18.172  0.00  0.00    +0.000 OA
ATOM     23  H   UNL     1       8.983   4.506  18.417  0.00  0.00    +0.000 HD
ENDBRANCH  20  22
ENDBRANCH  19  20
ENDBRANCH   7  19
TORSDOF 7
ENDMDL
MODEL 3
REMARK VINA RESULT:      -7.0      1.600      3.647
REMARK  Name = 
REMARK  9 active torsions:
REMARK  status: ('A' for Active; 'I' for Inactive)
REMARK    1  A    between atoms: C_1  and  C_2
REMARK    2  A    between atoms: C_2  and  O_3
REMARK    3  A    between atoms: O_3  and  C_4
REMARK    4  A    between atoms: C_4  and  C_6
REMARK    5  A    between atoms: C_7  and  C_8
REMARK    6  A    between atoms: N_9  and  C_10
REMARK    7  A    between atoms: C_18  and  C_19
REMARK    8  A    between atoms: C_19  and  C_20
REMARK    9  A    between atoms: C_20  and  O_22
REMARK                            x       y       z     vdW  Elec       q    Type
REMARK                         _______ _______ _______ _____ _____    ______ ____
ROOT
ATOM      1  C   UNL     1       4.852   5.676  17.048  0.00  0.00    +0.000 C 
ATOM      2  C   UNL     1       3.890   5.612  17.979  0.00  0.00    +0.000 C 
ATOM      3  C   UNL     1       3.149   6.723  18.658  0.00  0.00    +0.000 C 
ATOM      4  N   UNL     1       3.701   4.298  18.351  0.00  0.00    +0.000 N 
ATOM      5  C   UNL     1       4.525   3.445  17.615  0.00  0.00    +0.000 C 
ATOM      6  O   UNL     1       4.532   2.219  17.587  0.00  0.00    +0.000 OA
ATOM      7  C   UNL     1       5.359   4.304  16.680  0.00  0.00    +0.000 C 
ENDROOT
BRANCH   4   8
ATOM      8  C   UNL     1       2.765   3.786  19.270  0.00  0.00    +0.000 A 
ATOM      9  C   UNL     1       1.486   3.445  18.821  0.00  0.00    +0.000 A 
ATOM     10  C   UNL     1       0.543   2.940  19.715  0.00  0.00    +0.000 A 
ATOM     11  C   UNL     1       0.863   2.815  21.066  0.00  0.00    +0.000 A 
ATOM     12  C   UNL     1       2.132   3.172  21.521  0.00  0.00    +0.000 A 
ATOM     13  C   UNL     1       3.091   3.642  20.622  0.00  0.00    +0.000 A 
ENDBRANCH   4   8
BRANCH   1  14
ATOM     14  C   UNL     1       5.376   6.898  16.423  0.00  0.00    +0.000 C 
ATOM     15  O   UNL     1       5.192   7.229  15.265  0.00  0.00    +0.000 OA
BRANCH  14  16
ATOM     16  O   UNL     1       6.149   7.553  17.327  0.00  0.00    +0.000 OA
BRANCH  16  18
ATOM     17  C   UNL     1       7.856   6.518  18.635  0.00  0.00    +0.000 C 
ATOM     18  C   UNL     1       7.535   7.185  17.309  0.00  0.00    +0.000 C 
ENDBRANCH  16  18
ENDBRANCH  14  16
ENDBRANCH   1  14
BRANCH   7  19
ATOM     19  C   UNL     1       5.144   3.828  15.246  0.00  0.00    +0.000 C 
BRANCH  19  20
ATOM     20  C   UNL     1       6.382   3.960  14.393  0.00  0.00    +0.000 C 
ATOM     21  O   UNL     1       7.331   4.671  14.695  0.00  0.00    +0.000 OA
BRANCH  20  22
ATOM     22  O   UNL     1       6.337   3.256  13.246  0.00  0.00    +0.000 OA
ATOM     23  H   UNL     1       5.444   2.966  12.961  0.00  0.00    +0.000 HD
ENDBRANCH  20  22
ENDBRANCH  19  20
ENDBRANCH   7  19
TORSDOF 7
ENDMDL
MODEL 4
REMARK VINA RESULT:      -6.9      1.552      3.795
REMARK  Name = 
REMARK  9 active torsions:
REMARK  status: ('A' for Active; 'I' for Inactive)
REMARK    1  A    between atoms: C_1  and  C_2
REMARK    2  A    between atoms: C_2  and  O_3
REMARK    3  A    between atoms: O_3  and  C_4
REMARK    4  A    between atoms: C_4  and  C_6
REMARK    5  A    between atoms: C_7  and  C_8
REMARK    6  A    between atoms: N_9  and  C_10
REMARK    7  A    between atoms: C_18  and  C_19
REMARK    8  A    between atoms: C_19  and  C_20
REMARK    9  A    between atoms: C_20  and  O_22
REMARK                            x       y       z     vdW  Elec       q    Type
REMARK                         _______ _______ _______ _____ _____    ______ ____
ROOT
ATOM      1  C   UNL     1       4.860   5.670  17.049  0.00  0.00    +0.000 C 
ATOM      2  C   UNL     1       3.897   5.625  17.981  0.00  0.00    +0.000 C 
ATOM      3  C   UNL     1       3.173   6.749  18.656  0.00  0.00    +0.000 C 
ATOM      4  N   UNL     1       3.688   4.315  18.358  0.00  0.00    +0.000 N 
ATOM      5  C   UNL     1       4.498   3.446  17.623  0.00  0.00    +0.000 C 
ATOM      6  O   UNL     1       4.486   2.221  17.600  0.00  0.00    +0.000 OA
ATOM      7  C   UNL     1       5.346   4.289  16.686  0.00  0.00    +0.000 C 
ENDROOT
BRANCH   4   8
ATOM      8  C   UNL     1       2.745   3.820  19.278  0.00  0.00    +0.000 A 
ATOM      9  C   UNL     1       3.135   3.605  20.604  0.00  0.00    +0.000 A 
ATOM     10  C   UNL     1       2.218   3.111  21.531  0.00  0.00    +0.000 A 
ATOM     11  C   UNL     1       0.923   2.792  21.125  0.00  0.00    +0.000 A 
ATOM     12  C   UNL     1       0.536   2.988  19.800  0.00  0.00    +0.000 A 
ATOM     13  C   UNL     1       1.440   3.517  18.877  0.00  0.00    +0.000 A 
ENDBRANCH   4   8
BRANCH   1  14
ATOM     14  C   UNL     1       5.403   6.882  16.420  0.00  0.00    +0.000 C 
ATOM     15  O   UNL     1       5.257   7.192  15.251  0.00  0.00    +0.000 OA
BRANCH  14  16
ATOM     16  O   UNL     1       6.143   7.555  17.338  0.00  0.00    +0.000 OA
BRANCH  16  18
ATOM     17  C   UNL     1       7.849   6.498  18.630  0.00  0.00    +0.000 C 
ATOM     18  C   UNL     1       7.541   7.230  17.335  0.00  0.00    +0.000 C 
ENDBRANCH  16  18
ENDBRANCH  14  16
ENDBRANCH   1  14
BRANCH   7  19
ATOM     19  C   UNL     1       5.123   3.812  15.254  0.00  0.00    +0.000 C 
BRANCH  19  20
ATOM     20  C   UNL     1       6.329   4.023  14.372  0.00  0.00    +0.000 C 
ATOM     21  O   UNL     1       6.388   3.634  13.213  0.00  0.00    +0.000 OA
BRANCH  20  22
ATOM     22  O   UNL     1       7.356   4.644  14.984  0.00  0.00    +0.000 OA
ATOM     23  H   UNL     1       8.244   4.262  14.813  0.00  0.00    +0.000 HD
ENDBRANCH  20  22
ENDBRANCH  19  20
ENDBRANCH   7  19
TORSDOF 7
ENDMDL
MODEL 5
REMARK VINA RESULT:      -6.8      1.095      1.588
REMARK  Name = 
REMARK  9 active torsions:
REMARK  status: ('A' for Active; 'I' for Inactive)
REMARK    1  A    between atoms: C_1  and  C_2
REMARK    2  A    between atoms: C_2  and  O_3
REMARK    3  A    between atoms: O_3  and  C_4
REMARK    4  A    between atoms: C_4  and  C_6
REMARK    5  A    between atoms: C_7  and  C_8
REMARK    6  A    between atoms: N_9  and  C_10
REMARK    7  A    between atoms: C_18  and  C_19
REMARK    8  A    between atoms: C_19  and  C_20
REMARK    9  A    between atoms: C_20  and  O_22
REMARK                            x       y       z     vdW  Elec       q    Type
REMARK                         _______ _______ _______ _____ _____    ______ ____
ROOT
ATOM      1  C   UNL     1       5.070   5.024  16.653  0.00  0.00    +0.000 C 
ATOM      2  C   UNL     1       4.028   4.353  17.165  0.00  0.00    +0.000 C 
ATOM      3  C   UNL     1       2.950   3.589  16.459  0.00  0.00    +0.000 C 
ATOM      4  N   UNL     1       3.995   4.534  18.531  0.00  0.00    +0.000 N 
ATOM      5  C   UNL     1       5.074   5.310  18.960  0.00  0.00    +0.000 C 
ATOM      6  O   UNL     1       5.431   5.561  20.106  0.00  0.00    +0.000 OA
ATOM      7  C   UNL     1       5.880   5.697  17.732  0.00  0.00    +0.000 C 
ENDROOT
BRANCH   4   8
ATOM      8  C   UNL     1       3.091   3.977  19.456  0.00  0.00    +0.000 A 
ATOM      9  C   UNL     1       3.474   2.848  20.186  0.00  0.00    +0.000 A 
ATOM     10  C   UNL     1       2.593   2.278  21.104  0.00  0.00    +0.000 A 
ATOM     11  C   UNL     1       1.314   2.809  21.262  0.00  0.00    +0.000 A 
ATOM     12  C   UNL     1       0.922   3.924  20.521  0.00  0.00    +0.000 A 
ATOM     13  C   UNL     1       1.815   4.521  19.629  0.00  0.00    +0.000 A 
ENDBRANCH   4   8
BRANCH   1  14
ATOM     14  C   UNL     1       5.428   5.118  15.231  0.00  0.00    +0.000 C 
ATOM     15  O   UNL     1       5.382   6.134  14.561  0.00  0.00    +0.000 OA
BRANCH  14  16
ATOM     16  O   UNL     1       5.750   3.878  14.780  0.00  0.00    +0.000 OA
BRANCH  16  18
ATOM     17  C   UNL     1       5.521   3.334  12.468  0.00  0.00    +0.000 C 
ATOM     18  C   UNL     1       6.464   3.859  13.536  0.00  0.00    +0.000 C 
ENDBRANCH  16  18
ENDBRANCH  14  16
ENDBRANCH   1  14
BRANCH   7  19
ATOM     19  C   UNL     1       7.324   5.240  17.924  0.00  0.00    +0.000 C 
BRANCH  19  20
ATOM     20  C   UNL     1       8.080   6.089  18.917  0.00  0.00    +0.000 C 
ATOM     21  O   UNL     1       8.369   7.260  18.714  0.00  0.00    +0.000 OA
BRANCH  20  22
ATOM     22  O   UNL     1       8.446   5.434  20.036  0.00  0.00    +0.000 OA
ATOM     23  H   UNL     1       7.739   5.313  20.706  0.00  0.00    +0.000 HD
ENDBRANCH  20  22
ENDBRANCH  19  20
ENDBRANCH   7  19
TORSDOF 7
ENDMDL
MODEL 6
REMARK VINA RESULT:      -6.8      1.661      3.765
REMARK  Name = 
REMARK  9 active torsions:
REMARK  status: ('A' for Active; 'I' for Inactive)
REMARK    1  A    between atoms: C_1  and  C_2
REMARK    2  A    between atoms: C_2  and  O_3
REMARK    3  A    between atoms: O_3  and  C_4
REMARK    4  A    between atoms: C_4  and  C_6
REMARK    5  A    between atoms: C_7  and  C_8
REMARK    6  A    between atoms: N_9  and  C_10
REMARK    7  A    between atoms: C_18  and  C_19
REMARK    8  A    between atoms: C_19  and  C_20
REMARK    9  A    between atoms: C_20  and  O_22
REMARK                            x       y       z     vdW  Elec       q    Type
REMARK                         _______ _______ _______ _____ _____    ______ ____
ROOT
ATOM      1  C   UNL     1       6.165   4.390  17.319  0.00  0.00    +0.000 C 
ATOM      2  C   UNL     1       5.448   4.493  18.447  0.00  0.00    +0.000 C 
ATOM      3  C   UNL     1       5.862   5.005  19.793  0.00  0.00    +0.000 C 
ATOM      4  N   UNL     1       4.201   3.939  18.249  0.00  0.00    +0.000 N 
ATOM      5  C   UNL     1       4.054   3.493  16.933  0.00  0.00    +0.000 C 
ATOM      6  O   UNL     1       3.048   3.072  16.374  0.00  0.00    +0.000 OA
ATOM      7  C   UNL     1       5.360   3.764  16.207  0.00  0.00    +0.000 C 
ENDROOT
BRANCH   4   8
ATOM      8  C   UNL     1       3.130   3.872  19.159  0.00  0.00    +0.000 A 
ATOM      9  C   UNL     1       2.905   2.683  19.859  0.00  0.00    +0.000 A 
ATOM     10  C   UNL     1       1.846   2.593  20.762  0.00  0.00    +0.000 A 
ATOM     11  C   UNL     1       0.987   3.677  20.936  0.00  0.00    +0.000 A 
ATOM     12  C   UNL     1       1.198   4.859  20.226  0.00  0.00    +0.000 A 
ATOM     13  C   UNL     1       2.278   4.965  19.349  0.00  0.00    +0.000 A 
ENDBRANCH   4   8
BRANCH   1  14
ATOM     14  C   UNL     1       7.556   4.824  17.131  0.00  0.00    +0.000 C 
ATOM     15  O   UNL     1       8.536   4.245  17.563  0.00  0.00    +0.000 OA
BRANCH  14  16
ATOM     16  O   UNL     1       7.557   6.004  16.459  0.00  0.00    +0.000 OA
BRANCH  16  18
ATOM     17  C   UNL     1       7.986   7.798  17.973  0.00  0.00    +0.000 C 
ATOM     18  C   UNL     1       6.924   7.089  17.152  0.00  0.00    +0.000 C 
ENDBRANCH  16  18
ENDBRANCH  14  16
ENDBRANCH   1  14
BRANCH   7  19
ATOM     19  C   UNL     1       5.072   4.616  14.973  0.00  0.00    +0.000 C 
BRANCH  19  20
ATOM     20  C   UNL     1       6.028   4.343  13.837  0.00  0.00    +0.000 C 
ATOM     21  O   UNL     1       5.871   3.433  13.034  0.00  0.00    +0.000 OA
BRANCH  20  22
ATOM     22  O   UNL     1       7.094   5.165  13.805  0.00  0.00    +0.000 OA
ATOM     23  H   UNL     1       7.753   5.033  14.521  0.00  0.00    +0.000 HD
ENDBRANCH  20  22
ENDBRANCH  19  20
ENDBRANCH   7  19
TORSDOF 7
ENDMDL
MODEL 7
REMARK VINA RESULT:      -6.7      1.658      3.674
REMARK  Name = 
REMARK  9 active torsions:
REMARK  status: ('A' for Active; 'I' for Inactive)
REMARK    1  A    between atoms: C_1  and  C_2
REMARK    2  A    between atoms: C_2  and  O_3
REMARK    3  A    between atoms: O_3  and  C_4
REMARK    4  A    between atoms: C_4  and  C_6
REMARK    5  A    between atoms: C_7  and  C_8
REMARK    6  A    between atoms: N_9  and  C_10
REMARK    7  A    between atoms: C_18  and  C_19
REMARK    8  A    between atoms: C_19  and  C_20
REMARK    9  A    between atoms: C_20  and  O_22
REMARK                            x       y       z     vdW  Elec       q    Type
REMARK                         _______ _______ _______ _____ _____    ______ ____
ROOT
ATOM      1  C   UNL     1       6.166   4.376  17.312  0.00  0.00    +0.000 C 
ATOM      2  C   UNL     1       5.440   4.467  18.435  0.00  0.00    +0.000 C 
ATOM      3  C   UNL     1       5.840   4.975  19.786  0.00  0.00    +0.000 C 
ATOM      4  N   UNL     1       4.200   3.903  18.225  0.00  0.00    +0.000 N 
ATOM      5  C   UNL     1       4.066   3.463  16.906  0.00  0.00    +0.000 C 
ATOM      6  O   UNL     1       3.068   3.036  16.337  0.00  0.00    +0.000 OA
ATOM      7  C   UNL     1       5.375   3.749  16.191  0.00  0.00    +0.000 C 
ENDROOT
BRANCH   4   8
ATOM      8  C   UNL     1       3.122   3.822  19.127  0.00  0.00    +0.000 A 
ATOM      9  C   UNL     1       2.285   4.930  19.289  0.00  0.00    +0.000 A 
ATOM     10  C   UNL     1       1.215   4.873  20.180  0.00  0.00    +0.000 A 
ATOM     11  C   UNL     1       1.005   3.724  20.942  0.00  0.00    +0.000 A 
ATOM     12  C   UNL     1       1.850   2.624  20.797  0.00  0.00    +0.000 A 
ATOM     13  C   UNL     1       2.900   2.664  19.878  0.00  0.00    +0.000 A 
ENDBRANCH   4   8
BRANCH   1  14
ATOM     14  C   UNL     1       7.555   4.823  17.136  0.00  0.00    +0.000 C 
ATOM     15  O   UNL     1       8.537   4.251  17.573  0.00  0.00    +0.000 OA
BRANCH  14  16
ATOM     16  O   UNL     1       7.551   6.006  16.470  0.00  0.00    +0.000 OA
BRANCH  16  18
ATOM     17  C   UNL     1       7.957   7.875  17.897  0.00  0.00    +0.000 C 
ATOM     18  C   UNL     1       6.895   7.080  17.159  0.00  0.00    +0.000 C 
ENDBRANCH  16  18
ENDBRANCH  14  16
ENDBRANCH   1  14
BRANCH   7  19
ATOM     19  C   UNL     1       5.089   4.605  14.959  0.00  0.00    +0.000 C 
BRANCH  19  20
ATOM     20  C   UNL     1       6.051   4.341  13.827  0.00  0.00    +0.000 C 
ATOM     21  O   UNL     1       5.895   3.442  13.011  0.00  0.00    +0.000 OA
BRANCH  20  22
ATOM     22  O   UNL     1       7.122   5.157  13.812  0.00  0.00    +0.000 OA
ATOM     23  H   UNL     1       7.231   5.699  13.000  0.00  0.00    +0.000 HD
ENDBRANCH  20  22
ENDBRANCH  19  20
ENDBRANCH   7  19
TORSDOF 7
ENDMDL
MODEL 8
REMARK VINA RESULT:      -6.7      2.918      4.577
REMARK  Name = 
REMARK  9 active torsions:
REMARK  status: ('A' for Active; 'I' for Inactive)
REMARK    1  A    between atoms: C_1  and  C_2
REMARK    2  A    between atoms: C_2  and  O_3
REMARK    3  A    between atoms: O_3  and  C_4
REMARK    4  A    between atoms: C_4  and  C_6
REMARK    5  A    between atoms: C_7  and  C_8
REMARK    6  A    between atoms: N_9  and  C_10
REMARK    7  A    between atoms: C_18  and  C_19
REMARK    8  A    between atoms: C_19  and  C_20
REMARK    9  A    between atoms: C_20  and  O_22
REMARK                            x       y       z     vdW  Elec       q    Type
REMARK                         _______ _______ _______ _____ _____    ______ ____
ROOT
ATOM      1  C   UNL     1       3.965   4.491  18.913  0.00  0.00    +0.000 C 
ATOM      2  C   UNL     1       2.988   5.288  19.367  0.00  0.00    +0.000 C 
ATOM      3  C   UNL     1       1.868   4.976  20.312  0.00  0.00    +0.000 C 
ATOM      4  N   UNL     1       3.071   6.515  18.742  0.00  0.00    +0.000 N 
ATOM      5  C   UNL     1       4.167   6.564  17.878  0.00  0.00    +0.000 C 
ATOM      6  O   UNL     1       4.618   7.524  17.264  0.00  0.00    +0.000 OA
ATOM      7  C   UNL     1       4.854   5.210  17.928  0.00  0.00    +0.000 C 
ENDROOT
BRANCH   4   8
ATOM      8  C   UNL     1       2.264   7.649  18.952  0.00  0.00    +0.000 A 
ATOM      9  C   UNL     1       1.901   8.439  17.857  0.00  0.00    +0.000 A 
ATOM     10  C   UNL     1       1.107   9.569  18.044  0.00  0.00    +0.000 A 
ATOM     11  C   UNL     1       0.709   9.935  19.329  0.00  0.00    +0.000 A 
ATOM     12  C   UNL     1       1.085   9.160  20.426  0.00  0.00    +0.000 A 
ATOM     13  C   UNL     1       1.849   8.007  20.239  0.00  0.00    +0.000 A 
ENDBRANCH   4   8
BRANCH   1  14
ATOM     14  C   UNL     1       4.195   3.093  19.300  0.00  0.00    +0.000 C 
ATOM     15  O   UNL     1       4.983   2.720  20.151  0.00  0.00    +0.000 OA
BRANCH  14  16
ATOM     16  O   UNL     1       3.439   2.292  18.507  0.00  0.00    +0.000 OA
BRANCH  16  18
ATOM     17  C   UNL     1       1.057   2.158  18.573  0.00  0.00    +0.000 C 
ATOM     18  C   UNL     1       2.350   1.640  19.177  0.00  0.00    +0.000 C 
ENDBRANCH  16  18
ENDBRANCH  14  16
ENDBRANCH   1  14
BRANCH   7  19
ATOM     19  C   UNL     1       6.318   5.412  18.309  0.00  0.00    +0.000 C 
BRANCH  19  20
ATOM     20  C   UNL     1       7.260   5.180  17.154  0.00  0.00    +0.000 C 
ATOM     21  O   UNL     1       7.276   5.880  16.150  0.00  0.00    +0.000 OA
BRANCH  20  22
ATOM     22  O   UNL     1       8.062   4.108  17.304  0.00  0.00    +0.000 OA
ATOM     23  H   UNL     1       8.626   3.890  16.531  0.00  0.00    +0.000 HD
ENDBRANCH  20  22
ENDBRANCH  19  20
ENDBRANCH   7  19
TORSDOF 7
ENDMDL
MODEL 9
REMARK VINA RESULT:      -6.7      3.126      5.094
REMARK  Name = 
REMARK  9 active torsions:
REMARK  status: ('A' for Active; 'I' for Inactive)
REMARK    1  A    between atoms: C_1  and  C_2
REMARK    2  A    between atoms: C_2  and  O_3
REMARK    3  A    between atoms: O_3  and  C_4
REMARK    4  A    between atoms: C_4  and  C_6
REMARK    5  A    between atoms: C_7  and  C_8
REMARK    6  A    between atoms: N_9  and  C_10
REMARK    7  A    between atoms: C_18  and  C_19
REMARK    8  A    between atoms: C_19  and  C_20
REMARK    9  A    between atoms: C_20  and  O_22
REMARK                            x       y       z     vdW  Elec       q    Type
REMARK                         _______ _______ _______ _____ _____    ______ ____
ROOT
ATOM      1  C   UNL     1       4.116   4.881  18.582  0.00  0.00    +0.000 C 
ATOM      2  C   UNL     1       3.740   6.132  18.285  0.00  0.00    +0.000 C 
ATOM      3  C   UNL     1       4.306   7.080  17.272  0.00  0.00    +0.000 C 
ATOM      4  N   UNL     1       2.745   6.528  19.153  0.00  0.00    +0.000 N 
ATOM      5  C   UNL     1       2.405   5.497  20.030  0.00  0.00    +0.000 C 
ATOM      6  O   UNL     1       1.485   5.449  20.840  0.00  0.00    +0.000 OA
ATOM      7  C   UNL     1       3.298   4.310  19.713  0.00  0.00    +0.000 C 
ENDROOT
BRANCH   4   8
ATOM      8  C   UNL     1       2.045   7.750  19.167  0.00  0.00    +0.000 A 
ATOM      9  C   UNL     1       1.631   8.283  20.391  0.00  0.00    +0.000 A 
ATOM     10  C   UNL     1       0.933   9.489  20.428  0.00  0.00    +0.000 A 
ATOM     11  C   UNL     1       0.612  10.143  19.239  0.00  0.00    +0.000 A 
ATOM     12  C   UNL     1       1.007   9.604  18.015  0.00  0.00    +0.000 A 
ATOM     13  C   UNL     1       1.739   8.416  17.977  0.00  0.00    +0.000 A 
ENDBRANCH   4   8
BRANCH   1  14
ATOM     14  C   UNL     1       5.177   4.112  17.917  0.00  0.00    +0.000 C 
ATOM     15  O   UNL     1       5.036   3.453  16.902  0.00  0.00    +0.000 OA
BRANCH  14  16
ATOM     16  O   UNL     1       6.312   4.205  18.656  0.00  0.00    +0.000 OA
BRANCH  16  18
ATOM     17  C   UNL     1       7.768   6.088  18.828  0.00  0.00    +0.000 C 
ATOM     18  C   UNL     1       7.402   4.868  18.001  0.00  0.00    +0.000 C 
ENDBRANCH  16  18
ENDBRANCH  14  16
ENDBRANCH   1  14
BRANCH   7  19
ATOM     19  C   UNL     1       2.421   3.097  19.412  0.00  0.00    +0.000 C 
BRANCH  19  20
ATOM     20  C   UNL     1       1.897   3.089  17.997  0.00  0.00    +0.000 C 
ATOM     21  O   UNL     1       1.110   3.923  17.569  0.00  0.00    +0.000 OA
BRANCH  20  22
ATOM     22  O   UNL     1       2.340   2.059  17.252  0.00  0.00    +0.000 OA
ATOM     23  H   UNL     1       2.047   1.168  17.542  0.00  0.00    +0.000 HD
ENDBRANCH  20  22
ENDBRANCH  19  20
ENDBRANCH   7  19
TORSDOF 7
ENDMDL
