MODEL 1
REMARK VINA RESULT:      -9.1      0.000      0.000
REMARK  Name = 
REMARK  6 active torsions:
REMARK  status: ('A' for Active; 'I' for Inactive)
REMARK    1  A    between atoms: C_1  and  O_2
REMARK    2  A    between atoms: O_2  and  C_3
REMARK    3  A    between atoms: C_8  and  C_9
REMARK    4  A    between atoms: N_16  and  C_17
REMARK    5  A    between atoms: C_20  and  C_21
REMARK    6  A    between atoms: N_23  and  C_24
REMARK                            x       y       z     vdW  Elec       q    Type
REMARK                         _______ _______ _______ _____ _____    ______ ____
ROOT
ATOM      1  C   UNL     1       4.411   3.881  18.522  0.00  0.00    +0.000 A 
ATOM      2  C   UNL     1       4.383   2.651  19.157  0.00  0.00    +0.000 A 
ATOM      3  S   UNL     1       3.302   2.602  20.475  0.00  0.00    +0.000 S 
ATOM      4  C   UNL     1       2.800   4.211  20.200  0.00  0.00    +0.000 A 
ATOM      5  C   UNL     1       1.891   4.974  20.902  0.00  0.00    +0.000 A 
ATOM      6  N   UNL     1       1.627   6.225  20.487  0.00  0.00    +0.000 NA
ATOM      7  C   UNL     1       2.250   6.717  19.404  0.00  0.00    +0.000 A 
ATOM      8  N   UNL     1       1.939   8.006  18.962  0.00  0.00    +0.000 N 
ATOM      9  N   UNL     1       3.144   6.041  18.677  0.00  0.00    +0.000 NA
ATOM     10  C   UNL     1       3.433   4.777  19.099  0.00  0.00    +0.000 A 
ATOM     11  H   UNL     1       2.377   8.190  18.072  0.00  0.00    +0.000 HD
ENDROOT
BRANCH   8  12
ATOM     12  C   UNL     1       1.363   9.087  19.644  0.00  0.00    +0.000 A 
ATOM     13  C   UNL     1       1.181   9.096  21.032  0.00  0.00    +0.000 A 
ATOM     14  C   UNL     1       0.534  10.150  21.683  0.00  0.00    +0.000 A 
ATOM     15  C   UNL     1       0.035  11.231  20.953  0.00  0.00    +0.000 A 
ATOM     16  C   UNL     1       0.204  11.226  19.568  0.00  0.00    +0.000 A 
ATOM     17  F   UNL     1      -0.256  12.236  18.813  0.00  0.00    +0.000 F 
ATOM     18  C   UNL     1       0.855  10.170  18.917  0.00  0.00    +0.000 A 
BRANCH  15  19
ATOM     19  C   UNL     1      -0.649  12.321  21.703  0.00  0.00    +0.000 C 
ATOM     20  O   UNL     1       0.014  13.139  22.334  0.00  0.00    +0.000 OA
ATOM     21  N   UNL     1      -2.023  12.365  21.645  0.00  0.00    +0.000 N 
ATOM     22  H   UNL     1      -2.503  11.739  21.008  0.00  0.00    +0.000 HD
BRANCH  21  23
ATOM     23  C   UNL     1      -2.783  13.460  22.233  0.00  0.00    +0.000 C 
ATOM     24  C   UNL     1      -3.326  13.054  23.601  0.00  0.00    +0.000 C 
ATOM     25  C   UNL     1      -4.247  14.133  24.149  0.00  0.00    +0.000 C 
ATOM     26  O   UNL     1      -5.298  14.411  23.226  0.00  0.00    +0.000 OA
ATOM     27  C   UNL     1      -4.804  14.919  21.986  0.00  0.00    +0.000 C 
ATOM     28  C   UNL     1      -3.918  13.891  21.302  0.00  0.00    +0.000 C 
ENDBRANCH  21  23
ENDBRANCH  15  19
ENDBRANCH   8  12
BRANCH   1  34
ATOM     29  C   UNL     1       6.654   4.609  17.582  0.00  0.00    +0.000 A 
ATOM     30  C   UNL     1       7.460   4.865  16.462  0.00  0.00    +0.000 A 
ATOM     31  C   UNL     1       6.951   4.734  15.171  0.00  0.00    +0.000 A 
ATOM     32  C   UNL     1       5.640   4.316  14.984  0.00  0.00    +0.000 A 
ATOM     33  C   UNL     1       4.842   4.014  16.088  0.00  0.00    +0.000 A 
ATOM     34  C   UNL     1       5.328   4.155  17.401  0.00  0.00    +0.000 A 
BRANCH  29  36
ATOM     35  C   UNL     1       7.854   5.953  19.125  0.00  0.00    +0.000 C 
ATOM     36  O   UNL     1       7.130   4.754  18.864  0.00  0.00    +0.000 OA
ENDBRANCH  29  36
ENDBRANCH   1  34
TORSDOF 5
ENDMDL
MODEL 2
REMARK VINA RESULT:      -9.0      0.954      1.257
REMARK  Name = 
REMARK  6 active torsions:
REMARK  status: ('A' for Active; 'I' for Inactive)
REMARK    1  A    between atoms: C_1  and  O_2
REMARK    2  A    between atoms: O_2  and  C_3
REMARK    3  A    between atoms: C_8  and  C_9
REMARK    4  A    between atoms: N_16  and  C_17
REMARK    5  A    between atoms: C_20  and  C_21
REMARK    6  A    between atoms: N_23  and  C_24
REMARK                            x       y       z     vdW  Elec       q    Type
REMARK                         _______ _______ _______ _____ _____    ______ ____
ROOT
ATOM      1  C   UNL     1       4.509   3.819  18.375  0.00  0.00    +0.000 A 
ATOM      2  C   UNL     1       4.538   2.592  19.017  0.00  0.00    +0.000 A 
ATOM      3  S   UNL     1       3.501   2.519  20.369  0.00  0.00    +0.000 S 
ATOM      4  C   UNL     1       2.942   4.110  20.101  0.00  0.00    +0.000 A 
ATOM      5  C   UNL     1       2.033   4.850  20.827  0.00  0.00    +0.000 A 
ATOM      6  N   UNL     1       1.719   6.090  20.414  0.00  0.00    +0.000 NA
ATOM      7  C   UNL     1       2.292   6.594  19.310  0.00  0.00    +0.000 A 
ATOM      8  N   UNL     1       1.929   7.871  18.871  0.00  0.00    +0.000 N 
ATOM      9  N   UNL     1       3.184   5.941  18.559  0.00  0.00    +0.000 NA
ATOM     10  C   UNL     1       3.523   4.689  18.978  0.00  0.00    +0.000 A 
ATOM     11  H   UNL     1       2.333   8.062  17.967  0.00  0.00    +0.000 HD
ENDROOT
BRANCH   8  12
ATOM     12  C   UNL     1       1.342   8.938  19.566  0.00  0.00    +0.000 A 
ATOM     13  C   UNL     1       0.990  10.142  18.946  0.00  0.00    +0.000 A 
ATOM     14  C   UNL     1       0.478  11.222  19.672  0.00  0.00    +0.000 A 
ATOM     15  C   UNL     1       0.312  11.127  21.054  0.00  0.00    +0.000 A 
ATOM     16  C   UNL     1       0.669   9.933  21.683  0.00  0.00    +0.000 A 
ATOM     17  F   UNL     1       0.535   9.784  23.010  0.00  0.00    +0.000 F 
ATOM     18  C   UNL     1       1.180   8.852  20.954  0.00  0.00    +0.000 A 
BRANCH  15  19
ATOM     19  C   UNL     1      -0.234  12.312  21.773  0.00  0.00    +0.000 C 
ATOM     20  O   UNL     1       0.495  13.268  22.019  0.00  0.00    +0.000 OA
ATOM     21  N   UNL     1      -1.564  12.282  22.128  0.00  0.00    +0.000 N 
ATOM     22  H   UNL     1      -2.141  11.521  21.786  0.00  0.00    +0.000 HD
BRANCH  21  23
ATOM     23  C   UNL     1      -2.229  13.436  22.716  0.00  0.00    +0.000 C 
ATOM     24  C   UNL     1      -3.303  12.984  23.703  0.00  0.00    +0.000 C 
ATOM     25  C   UNL     1      -4.103  14.176  24.203  0.00  0.00    +0.000 C 
ATOM     26  O   UNL     1      -4.664  14.897  23.107  0.00  0.00    +0.000 OA
ATOM     27  C   UNL     1      -3.660  15.439  22.249  0.00  0.00    +0.000 C 
ATOM     28  C   UNL     1      -2.831  14.327  21.628  0.00  0.00    +0.000 C 
ENDBRANCH  21  23
ENDBRANCH  15  19
ENDBRANCH   8  12
BRANCH   1  34
ATOM     29  C   UNL     1       6.743   4.470  17.360  0.00  0.00    +0.000 A 
ATOM     30  C   UNL     1       7.505   4.754  16.216  0.00  0.00    +0.000 A 
ATOM     31  C   UNL     1       6.921   4.747  14.950  0.00  0.00    +0.000 A 
ATOM     32  C   UNL     1       5.577   4.425  14.810  0.00  0.00    +0.000 A 
ATOM     33  C   UNL     1       4.820   4.097  15.935  0.00  0.00    +0.000 A 
ATOM     34  C   UNL     1       5.382   4.114  17.225  0.00  0.00    +0.000 A 
BRANCH  29  36
ATOM     35  C   UNL     1       7.497   5.787  19.184  0.00  0.00    +0.000 C 
ATOM     36  O   UNL     1       7.294   4.494  18.619  0.00  0.00    +0.000 OA
ENDBRANCH  29  36
ENDBRANCH   1  34
TORSDOF 5
ENDMDL
MODEL 3
REMARK VINA RESULT:      -8.9      0.960      1.128
REMARK  Name = 
REMARK  6 active torsions:
REMARK  status: ('A' for Active; 'I' for Inactive)
REMARK    1  A    between atoms: C_1  and  O_2
REMARK    2  A    between atoms: O_2  and  C_3
REMARK    3  A    between atoms: C_8  and  C_9
REMARK    4  A    between atoms: N_16  and  C_17
REMARK    5  A    between atoms: C_20  and  C_21
REMARK    6  A    between atoms: N_23  and  C_24
REMARK                            x       y       z     vdW  Elec       q    Type
REMARK                         _______ _______ _______ _____ _____    ______ ____
ROOT
ATOM      1  C   UNL     1       4.415   3.995  18.448  0.00  0.00    +0.000 A 
ATOM      2  C   UNL     1       4.370   2.803  19.151  0.00  0.00    +0.000 A 
ATOM      3  S   UNL     1       3.292   2.844  20.471  0.00  0.00    +0.000 S 
ATOM      4  C   UNL     1       2.814   4.443  20.108  0.00  0.00    +0.000 A 
ATOM      5  C   UNL     1       1.919   5.258  20.768  0.00  0.00    +0.000 A 
ATOM      6  N   UNL     1       1.674   6.488  20.285  0.00  0.00    +0.000 NA
ATOM      7  C   UNL     1       2.301   6.910  19.175  0.00  0.00    +0.000 A 
ATOM      8  N   UNL     1       2.010   8.177  18.663  0.00  0.00    +0.000 N 
ATOM      9  N   UNL     1       3.183   6.181  18.486  0.00  0.00    +0.000 NA
ATOM     10  C   UNL     1       3.453   4.938  18.977  0.00  0.00    +0.000 A 
ATOM     11  H   UNL     1       2.448   8.305  17.764  0.00  0.00    +0.000 HD
ENDROOT
BRANCH   8  12
ATOM     12  C   UNL     1       1.452   9.303  19.286  0.00  0.00    +0.000 A 
ATOM     13  C   UNL     1       0.963   9.278  20.597  0.00  0.00    +0.000 A 
ATOM     14  C   UNL     1       0.340  10.390  21.171  0.00  0.00    +0.000 A 
ATOM     15  C   UNL     1       0.178  11.566  20.437  0.00  0.00    +0.000 A 
ATOM     16  C   UNL     1       0.655  11.598  19.126  0.00  0.00    +0.000 A 
ATOM     17  F   UNL     1       0.526  12.699  18.371  0.00  0.00    +0.000 F 
ATOM     18  C   UNL     1       1.281  10.483  18.552  0.00  0.00    +0.000 A 
BRANCH  15  19
ATOM     19  C   UNL     1      -0.497  12.715  21.103  0.00  0.00    +0.000 C 
ATOM     20  O   UNL     1      -0.347  13.851  20.663  0.00  0.00    +0.000 OA
ATOM     21  N   UNL     1      -1.283  12.441  22.199  0.00  0.00    +0.000 N 
ATOM     22  H   UNL     1      -1.466  11.472  22.436  0.00  0.00    +0.000 HD
BRANCH  21  23
ATOM     23  C   UNL     1      -2.088  13.469  22.844  0.00  0.00    +0.000 C 
ATOM     24  C   UNL     1      -1.250  14.238  23.864  0.00  0.00    +0.000 C 
ATOM     25  C   UNL     1      -2.122  15.204  24.649  0.00  0.00    +0.000 C 
ATOM     26  O   UNL     1      -3.204  14.512  25.270  0.00  0.00    +0.000 OA
ATOM     27  C   UNL     1      -4.070  13.900  24.315  0.00  0.00    +0.000 C 
ATOM     28  C   UNL     1      -3.321  12.852  23.508  0.00  0.00    +0.000 C 
ENDBRANCH  21  23
ENDBRANCH  15  19
ENDBRANCH   8  12
BRANCH   1  34
ATOM     29  C   UNL     1       6.694   4.541  17.471  0.00  0.00    +0.000 A 
ATOM     30  C   UNL     1       7.500   4.729  16.338  0.00  0.00    +0.000 A 
ATOM     31  C   UNL     1       6.963   4.635  15.056  0.00  0.00    +0.000 A 
ATOM     32  C   UNL     1       5.620   4.321  14.891  0.00  0.00    +0.000 A 
ATOM     33  C   UNL     1       4.818   4.087  16.008  0.00  0.00    +0.000 A 
ATOM     34  C   UNL     1       5.334   4.193  17.313  0.00  0.00    +0.000 A 
BRANCH  29  36
ATOM     35  C   UNL     1       7.754   5.920  19.085  0.00  0.00    +0.000 C 
ATOM     36  O   UNL     1       7.200   4.652  18.745  0.00  0.00    +0.000 OA
ENDBRANCH  29  36
ENDBRANCH   1  34
TORSDOF 5
ENDMDL
MODEL 4
REMARK VINA RESULT:      -8.9      1.420      1.581
REMARK  Name = 
REMARK  6 active torsions:
REMARK  status: ('A' for Active; 'I' for Inactive)
REMARK    1  A    between atoms: C_1  and  O_2
REMARK    2  A    between atoms: O_2  and  C_3
REMARK    3  A    between atoms: C_8  and  C_9
REMARK    4  A    between atoms: N_16  and  C_17
REMARK    5  A    between atoms: C_20  and  C_21
REMARK    6  A    between atoms: N_23  and  C_24
REMARK                            x       y       z     vdW  Elec       q    Type
REMARK                         _______ _______ _______ _____ _____    ______ ____
ROOT
ATOM      1  C   UNL     1       4.400   3.736  18.506  0.00  0.00    +0.000 A 
ATOM      2  C   UNL     1       4.383   2.448  19.014  0.00  0.00    +0.000 A 
ATOM      3  S   UNL     1       3.302   2.256  20.319  0.00  0.00    +0.000 S 
ATOM      4  C   UNL     1       2.785   3.880  20.207  0.00  0.00    +0.000 A 
ATOM      5  C   UNL     1       1.869   4.560  20.980  0.00  0.00    +0.000 A 
ATOM      6  N   UNL     1       1.593   5.844  20.693  0.00  0.00    +0.000 NA
ATOM      7  C   UNL     1       2.212   6.448  19.666  0.00  0.00    +0.000 A 
ATOM      8  N   UNL     1       1.889   7.773  19.356  0.00  0.00    +0.000 N 
ATOM      9  N   UNL     1       3.113   5.857  18.877  0.00  0.00    +0.000 NA
ATOM     10  C   UNL     1       3.413   4.560  19.169  0.00  0.00    +0.000 A 
ATOM     11  H   UNL     1       2.325   8.049  18.490  0.00  0.00    +0.000 HD
ENDROOT
BRANCH   8  12
ATOM     12  C   UNL     1       1.303   8.773  20.143  0.00  0.00    +0.000 A 
ATOM     13  C   UNL     1       1.313   8.740  21.542  0.00  0.00    +0.000 A 
ATOM     14  C   UNL     1       0.654   9.707  22.307  0.00  0.00    +0.000 A 
ATOM     15  C   UNL     1      -0.049  10.740  21.685  0.00  0.00    +0.000 A 
ATOM     16  C   UNL     1      -0.072  10.777  20.290  0.00  0.00    +0.000 A 
ATOM     17  F   UNL     1      -0.734  11.744  19.636  0.00  0.00    +0.000 F 
ATOM     18  C   UNL     1       0.589   9.808  19.525  0.00  0.00    +0.000 A 
BRANCH  15  19
ATOM     19  C   UNL     1      -0.734  11.738  22.554  0.00  0.00    +0.000 C 
ATOM     20  O   UNL     1      -1.433  11.358  23.488  0.00  0.00    +0.000 OA
ATOM     21  N   UNL     1      -0.539  13.070  22.266  0.00  0.00    +0.000 N 
ATOM     22  H   UNL     1       0.147  13.319  21.561  0.00  0.00    +0.000 HD
BRANCH  21  23
ATOM     23  C   UNL     1      -1.055  14.126  23.125  0.00  0.00    +0.000 C 
ATOM     24  C   UNL     1      -2.505  14.443  22.764  0.00  0.00    +0.000 C 
ATOM     25  C   UNL     1      -2.998  15.647  23.551  0.00  0.00    +0.000 C 
ATOM     26  O   UNL     1      -2.143  16.769  23.337  0.00  0.00    +0.000 OA
ATOM     27  C   UNL     1      -0.813  16.528  23.795  0.00  0.00    +0.000 C 
ATOM     28  C   UNL     1      -0.183  15.378  23.026  0.00  0.00    +0.000 C 
ENDBRANCH  21  23
ENDBRANCH  15  19
ENDBRANCH   8  12
BRANCH   1  34
ATOM     29  C   UNL     1       6.607   4.652  17.650  0.00  0.00    +0.000 A 
ATOM     30  C   UNL     1       7.413   5.021  16.562  0.00  0.00    +0.000 A 
ATOM     31  C   UNL     1       6.932   4.936  15.257  0.00  0.00    +0.000 A 
ATOM     32  C   UNL     1       5.652   4.451  15.022  0.00  0.00    +0.000 A 
ATOM     33  C   UNL     1       4.858   4.038  16.092  0.00  0.00    +0.000 A 
ATOM     34  C   UNL     1       5.314   4.130  17.420  0.00  0.00    +0.000 A 
BRANCH  29  36
ATOM     35  C   UNL     1       7.904   5.859  19.229  0.00  0.00    +0.000 C 
ATOM     36  O   UNL     1       7.055   4.749  18.947  0.00  0.00    +0.000 OA
ENDBRANCH  29  36
ENDBRANCH   1  34
TORSDOF 5
ENDMDL
MODEL 5
REMARK VINA RESULT:      -8.6      1.689      2.010
REMARK  Name = 
REMARK  6 active torsions:
REMARK  status: ('A' for Active; 'I' for Inactive)
REMARK    1  A    between atoms: C_1  and  O_2
REMARK    2  A    between atoms: O_2  and  C_3
REMARK    3  A    between atoms: C_8  and  C_9
REMARK    4  A    between atoms: N_16  and  C_17
REMARK    5  A    between atoms: C_20  and  C_21
REMARK    6  A    between atoms: N_23  and  C_24
REMARK                            x       y       z     vdW  Elec       q    Type
REMARK                         _______ _______ _______ _____ _____    ______ ____
ROOT
ATOM      1  C   UNL     1       4.425   4.119  18.437  0.00  0.00    +0.000 A 
ATOM      2  C   UNL     1       4.395   2.956  19.189  0.00  0.00    +0.000 A 
ATOM      3  S   UNL     1       3.320   3.040  20.510  0.00  0.00    +0.000 S 
ATOM      4  C   UNL     1       2.823   4.617  20.082  0.00  0.00    +0.000 A 
ATOM      5  C   UNL     1       1.920   5.449  20.710  0.00  0.00    +0.000 A 
ATOM      6  N   UNL     1       1.660   6.655  20.176  0.00  0.00    +0.000 NA
ATOM      7  C   UNL     1       2.279   7.037  19.048  0.00  0.00    +0.000 A 
ATOM      8  N   UNL     1       1.972   8.278  18.484  0.00  0.00    +0.000 N 
ATOM      9  N   UNL     1       3.167   6.289  18.387  0.00  0.00    +0.000 NA
ATOM     10  C   UNL     1       3.453   5.072  18.929  0.00  0.00    +0.000 A 
ATOM     11  H   UNL     1       2.406   8.373  17.579  0.00  0.00    +0.000 HD
ENDROOT
BRANCH   8  12
ATOM     12  C   UNL     1       1.403   9.422  19.061  0.00  0.00    +0.000 A 
ATOM     13  C   UNL     1       0.517   9.364  20.144  0.00  0.00    +0.000 A 
ATOM     14  C   UNL     1      -0.099  10.511  20.653  0.00  0.00    +0.000 A 
ATOM     15  C   UNL     1       0.149  11.759  20.080  0.00  0.00    +0.000 A 
ATOM     16  C   UNL     1       1.023  11.826  18.994  0.00  0.00    +0.000 A 
ATOM     17  F   UNL     1       1.298  12.998  18.400  0.00  0.00    +0.000 F 
ATOM     18  C   UNL     1       1.642  10.677  18.486  0.00  0.00    +0.000 A 
BRANCH  15  19
ATOM     19  C   UNL     1      -0.541  12.943  20.664  0.00  0.00    +0.000 C 
ATOM     20  O   UNL     1      -1.637  13.287  20.232  0.00  0.00    +0.000 OA
ATOM     21  N   UNL     1       0.094  13.606  21.690  0.00  0.00    +0.000 N 
ATOM     22  H   UNL     1       0.936  13.199  22.083  0.00  0.00    +0.000 HD
BRANCH  21  23
ATOM     23  C   UNL     1      -0.547  14.693  22.416  0.00  0.00    +0.000 C 
ATOM     24  C   UNL     1       0.463  15.800  22.715  0.00  0.00    +0.000 C 
ATOM     25  C   UNL     1      -0.160  16.863  23.605  0.00  0.00    +0.000 C 
ATOM     26  O   UNL     1      -0.671  16.278  24.802  0.00  0.00    +0.000 OA
ATOM     27  C   UNL     1      -1.711  15.336  24.539  0.00  0.00    +0.000 C 
ATOM     28  C   UNL     1      -1.187  14.178  23.706  0.00  0.00    +0.000 C 
ENDBRANCH  21  23
ENDBRANCH  15  19
ENDBRANCH   8  12
BRANCH   1  34
ATOM     29  C   UNL     1       6.698   4.636  17.431  0.00  0.00    +0.000 A 
ATOM     30  C   UNL     1       7.499   4.787  16.289  0.00  0.00    +0.000 A 
ATOM     31  C   UNL     1       6.956   4.646  15.013  0.00  0.00    +0.000 A 
ATOM     32  C   UNL     1       5.613   4.323  14.865  0.00  0.00    +0.000 A 
ATOM     33  C   UNL     1       4.817   4.126  15.993  0.00  0.00    +0.000 A 
ATOM     34  C   UNL     1       5.338   4.279  17.291  0.00  0.00    +0.000 A 
BRANCH  29  36
ATOM     35  C   UNL     1       7.865   6.032  18.954  0.00  0.00    +0.000 C 
ATOM     36  O   UNL     1       7.208   4.793  18.698  0.00  0.00    +0.000 OA
ENDBRANCH  29  36
ENDBRANCH   1  34
TORSDOF 5
ENDMDL
MODEL 6
REMARK VINA RESULT:      -8.4      1.940      2.470
REMARK  Name = 
REMARK  6 active torsions:
REMARK  status: ('A' for Active; 'I' for Inactive)
REMARK    1  A    between atoms: C_1  and  O_2
REMARK    2  A    between atoms: O_2  and  C_3
REMARK    3  A    between atoms: C_8  and  C_9
REMARK    4  A    between atoms: N_16  and  C_17
REMARK    5  A    between atoms: C_20  and  C_21
REMARK    6  A    between atoms: N_23  and  C_24
REMARK                            x       y       z     vdW  Elec       q    Type
REMARK                         _______ _______ _______ _____ _____    ______ ____
ROOT
ATOM      1  C   UNL     1       4.393   3.937  18.588  0.00  0.00    +0.000 A 
ATOM      2  C   UNL     1       4.379   2.711  19.232  0.00  0.00    +0.000 A 
ATOM      3  S   UNL     1       3.305   2.663  20.556  0.00  0.00    +0.000 S 
ATOM      4  C   UNL     1       2.787   4.265  20.272  0.00  0.00    +0.000 A 
ATOM      5  C   UNL     1       1.875   5.026  20.972  0.00  0.00    +0.000 A 
ATOM      6  N   UNL     1       1.599   6.271  20.549  0.00  0.00    +0.000 NA
ATOM      7  C   UNL     1       2.212   6.761  19.460  0.00  0.00    +0.000 A 
ATOM      8  N   UNL     1       1.888   8.044  19.010  0.00  0.00    +0.000 N 
ATOM      9  N   UNL     1       3.108   6.087  18.734  0.00  0.00    +0.000 NA
ATOM     10  C   UNL     1       3.410   4.829  19.163  0.00  0.00    +0.000 A 
ATOM     11  H   UNL     1       2.319   8.225  18.117  0.00  0.00    +0.000 HD
ENDROOT
BRANCH   8  12
ATOM     12  C   UNL     1       1.306   9.125  19.687  0.00  0.00    +0.000 A 
ATOM     13  C   UNL     1       1.065  10.361  19.076  0.00  0.00    +0.000 A 
ATOM     14  C   UNL     1       0.555  11.449  19.790  0.00  0.00    +0.000 A 
ATOM     15  C   UNL     1       0.280  11.331  21.154  0.00  0.00    +0.000 A 
ATOM     16  C   UNL     1       0.525  10.106  21.774  0.00  0.00    +0.000 A 
ATOM     17  F   UNL     1       0.283   9.933  23.083  0.00  0.00    +0.000 F 
ATOM     18  C   UNL     1       1.034   9.015  21.057  0.00  0.00    +0.000 A 
BRANCH  15  19
ATOM     19  C   UNL     1      -0.257  12.527  21.861  0.00  0.00    +0.000 C 
ATOM     20  O   UNL     1      -0.894  12.388  22.901  0.00  0.00    +0.000 OA
ATOM     21  N   UNL     1      -0.001  13.761  21.307  0.00  0.00    +0.000 N 
ATOM     22  H   UNL     1       0.635  13.817  20.518  0.00  0.00    +0.000 HD
BRANCH  21  23
ATOM     23  C   UNL     1      -0.367  14.998  21.982  0.00  0.00    +0.000 C 
ATOM     24  C   UNL     1      -1.174  15.895  21.045  0.00  0.00    +0.000 C 
ATOM     25  C   UNL     1      -1.425  17.249  21.690  0.00  0.00    +0.000 C 
ATOM     26  O   UNL     1      -0.193  17.858  22.071  0.00  0.00    +0.000 OA
ATOM     27  C   UNL     1       0.507  17.090  23.049  0.00  0.00    +0.000 C 
ATOM     28  C   UNL     1       0.879  15.725  22.491  0.00  0.00    +0.000 C 
ENDBRANCH  21  23
ENDBRANCH  15  19
ENDBRANCH   8  12
BRANCH   1  34
ATOM     29  C   UNL     1       6.659   4.566  17.631  0.00  0.00    +0.000 A 
ATOM     30  C   UNL     1       7.456   4.829  16.507  0.00  0.00    +0.000 A 
ATOM     31  C   UNL     1       6.912   4.803  15.224  0.00  0.00    +0.000 A 
ATOM     32  C   UNL     1       5.572   4.482  15.048  0.00  0.00    +0.000 A 
ATOM     33  C   UNL     1       4.780   4.174  16.155  0.00  0.00    +0.000 A 
ATOM     34  C   UNL     1       5.302   4.211  17.461  0.00  0.00    +0.000 A 
BRANCH  29  36
ATOM     35  C   UNL     1       7.718   5.861  19.314  0.00  0.00    +0.000 C 
ATOM     36  O   UNL     1       7.171   4.610  18.907  0.00  0.00    +0.000 OA
ENDBRANCH  29  36
ENDBRANCH   1  34
TORSDOF 5
ENDMDL
MODEL 7
REMARK VINA RESULT:      -8.3      1.379      1.406
REMARK  Name = 
REMARK  6 active torsions:
REMARK  status: ('A' for Active; 'I' for Inactive)
REMARK    1  A    between atoms: C_1  and  O_2
REMARK    2  A    between atoms: O_2  and  C_3
REMARK    3  A    between atoms: C_8  and  C_9
REMARK    4  A    between atoms: N_16  and  C_17
REMARK    5  A    between atoms: C_20  and  C_21
REMARK    6  A    between atoms: N_23  and  C_24
REMARK                            x       y       z     vdW  Elec       q    Type
REMARK                         _______ _______ _______ _____ _____    ______ ____
ROOT
ATOM      1  C   UNL     1       4.386   3.975  18.539  0.00  0.00    +0.000 A 
ATOM      2  C   UNL     1       4.347   2.779  19.235  0.00  0.00    +0.000 A 
ATOM      3  S   UNL     1       3.268   2.807  20.556  0.00  0.00    +0.000 S 
ATOM      4  C   UNL     1       2.781   4.405  20.200  0.00  0.00    +0.000 A 
ATOM      5  C   UNL     1       1.881   5.212  20.863  0.00  0.00    +0.000 A 
ATOM      6  N   UNL     1       1.629   6.443  20.386  0.00  0.00    +0.000 NA
ATOM      7  C   UNL     1       2.254   6.873  19.278  0.00  0.00    +0.000 A 
ATOM      8  N   UNL     1       1.956   8.142  18.772  0.00  0.00    +0.000 N 
ATOM      9  N   UNL     1       3.141   6.153  18.586  0.00  0.00    +0.000 NA
ATOM     10  C   UNL     1       3.418   4.909  19.071  0.00  0.00    +0.000 A 
ATOM     11  H   UNL     1       2.393   8.275  17.873  0.00  0.00    +0.000 HD
ENDROOT
BRANCH   8  12
ATOM     12  C   UNL     1       1.391   9.261  19.400  0.00  0.00    +0.000 A 
ATOM     13  C   UNL     1       0.887   9.223  20.705  0.00  0.00    +0.000 A 
ATOM     14  C   UNL     1       0.257  10.329  21.283  0.00  0.00    +0.000 A 
ATOM     15  C   UNL     1       0.105  11.513  20.560  0.00  0.00    +0.000 A 
ATOM     16  C   UNL     1       0.597  11.557  19.255  0.00  0.00    +0.000 A 
ATOM     17  F   UNL     1       0.478  12.667  18.509  0.00  0.00    +0.000 F 
ATOM     18  C   UNL     1       1.229  10.449  18.677  0.00  0.00    +0.000 A 
BRANCH  15  19
ATOM     19  C   UNL     1      -0.577  12.655  21.229  0.00  0.00    +0.000 C 
ATOM     20  O   UNL     1      -1.803  12.716  21.235  0.00  0.00    +0.000 OA
ATOM     21  N   UNL     1       0.217  13.606  21.830  0.00  0.00    +0.000 N 
ATOM     22  H   UNL     1       1.214  13.433  21.898  0.00  0.00    +0.000 HD
BRANCH  21  23
ATOM     23  C   UNL     1      -0.347  14.691  22.620  0.00  0.00    +0.000 C 
ATOM     24  C   UNL     1      -1.258  14.135  23.712  0.00  0.00    +0.000 C 
ATOM     25  C   UNL     1      -1.970  15.266  24.438  0.00  0.00    +0.000 C 
ATOM     26  O   UNL     1      -2.691  16.079  23.515  0.00  0.00    +0.000 OA
ATOM     27  C   UNL     1      -1.829  16.711  22.568  0.00  0.00    +0.000 C 
ATOM     28  C   UNL     1      -1.107  15.673  21.725  0.00  0.00    +0.000 C 
ENDBRANCH  21  23
ENDBRANCH  15  19
ENDBRANCH   8  12
BRANCH   1  34
ATOM     29  C   UNL     1       6.662   4.538  17.564  0.00  0.00    +0.000 A 
ATOM     30  C   UNL     1       7.467   4.736  16.433  0.00  0.00    +0.000 A 
ATOM     31  C   UNL     1       6.931   4.645  15.150  0.00  0.00    +0.000 A 
ATOM     32  C   UNL     1       5.590   4.324  14.983  0.00  0.00    +0.000 A 
ATOM     33  C   UNL     1       4.789   4.080  16.099  0.00  0.00    +0.000 A 
ATOM     34  C   UNL     1       5.303   4.183  17.404  0.00  0.00    +0.000 A 
BRANCH  29  36
ATOM     35  C   UNL     1       7.742   5.905  19.175  0.00  0.00    +0.000 C 
ATOM     36  O   UNL     1       7.167   4.645  18.839  0.00  0.00    +0.000 OA
ENDBRANCH  29  36
ENDBRANCH   1  34
TORSDOF 5
ENDMDL
MODEL 8
REMARK VINA RESULT:      -8.3      1.953      2.692
REMARK  Name = 
REMARK  6 active torsions:
REMARK  status: ('A' for Active; 'I' for Inactive)
REMARK    1  A    between atoms: C_1  and  O_2
REMARK    2  A    between atoms: O_2  and  C_3
REMARK    3  A    between atoms: C_8  and  C_9
REMARK    4  A    between atoms: N_16  and  C_17
REMARK    5  A    between atoms: C_20  and  C_21
REMARK    6  A    between atoms: N_23  and  C_24
REMARK                            x       y       z     vdW  Elec       q    Type
REMARK                         _______ _______ _______ _____ _____    ______ ____
ROOT
ATOM      1  C   UNL     1       4.526   4.456  19.127  0.00  0.00    +0.000 A 
ATOM      2  C   UNL     1       4.428   3.091  19.336  0.00  0.00    +0.000 A 
ATOM      3  S   UNL     1       3.005   2.640  20.160  0.00  0.00    +0.000 S 
ATOM      4  C   UNL     1       2.452   4.255  20.213  0.00  0.00    +0.000 A 
ATOM      5  C   UNL     1       1.300   4.766  20.770  0.00  0.00    +0.000 A 
ATOM      6  N   UNL     1       1.052   6.083  20.671  0.00  0.00    +0.000 NA
ATOM      7  C   UNL     1       1.924   6.884  20.039  0.00  0.00    +0.000 A 
ATOM      8  N   UNL     1       1.637   8.246  19.911  0.00  0.00    +0.000 N 
ATOM      9  N   UNL     1       3.062   6.463  19.479  0.00  0.00    +0.000 NA
ATOM     10  C   UNL     1       3.333   5.132  19.589  0.00  0.00    +0.000 A 
ATOM     11  H   UNL     1       2.306   8.693  19.304  0.00  0.00    +0.000 HD
ENDROOT
BRANCH   8  12
ATOM     12  C   UNL     1       0.773   9.065  20.651  0.00  0.00    +0.000 A 
ATOM     13  C   UNL     1       0.019  10.091  20.068  0.00  0.00    +0.000 A 
ATOM     14  C   UNL     1      -0.777  10.947  20.836  0.00  0.00    +0.000 A 
ATOM     15  C   UNL     1      -0.833  10.804  22.223  0.00  0.00    +0.000 A 
ATOM     16  C   UNL     1      -0.078   9.790  22.814  0.00  0.00    +0.000 A 
ATOM     17  F   UNL     1      -0.089   9.605  24.143  0.00  0.00    +0.000 F 
ATOM     18  C   UNL     1       0.718   8.931  22.044  0.00  0.00    +0.000 A 
BRANCH  15  19
ATOM     19  C   UNL     1      -1.695  11.748  22.986  0.00  0.00    +0.000 C 
ATOM     20  O   UNL     1      -2.678  11.328  23.589  0.00  0.00    +0.000 OA
ATOM     21  N   UNL     1      -1.336  13.077  22.986  0.00  0.00    +0.000 N 
ATOM     22  H   UNL     1      -0.447  13.340  22.574  0.00  0.00    +0.000 HD
BRANCH  21  23
ATOM     23  C   UNL     1      -2.032  14.062  23.802  0.00  0.00    +0.000 C 
ATOM     24  C   UNL     1      -3.072  14.805  22.965  0.00  0.00    +0.000 C 
ATOM     25  C   UNL     1      -3.691  15.937  23.768  0.00  0.00    +0.000 C 
ATOM     26  O   UNL     1      -2.680  16.818  24.255  0.00  0.00    +0.000 OA
ATOM     27  C   UNL     1      -1.779  16.161  25.147  0.00  0.00    +0.000 C 
ATOM     28  C   UNL     1      -1.040  15.042  24.431  0.00  0.00    +0.000 C 
ENDBRANCH  21  23
ENDBRANCH  15  19
ENDBRANCH   8  12
BRANCH   1  34
ATOM     29  C   UNL     1       5.935   5.043  17.098  0.00  0.00    +0.000 A 
ATOM     30  C   UNL     1       7.098   5.626  16.572  0.00  0.00    +0.000 A 
ATOM     31  C   UNL     1       8.066   6.172  17.413  0.00  0.00    +0.000 A 
ATOM     32  C   UNL     1       7.868   6.169  18.788  0.00  0.00    +0.000 A 
ATOM     33  C   UNL     1       6.695   5.633  19.320  0.00  0.00    +0.000 A 
ATOM     34  C   UNL     1       5.711   5.062  18.493  0.00  0.00    +0.000 A 
BRANCH  29  36
ATOM     35  C   UNL     1       5.297   4.419  14.899  0.00  0.00    +0.000 C 
ATOM     36  O   UNL     1       4.978   4.479  16.287  0.00  0.00    +0.000 OA
ENDBRANCH  29  36
ENDBRANCH   1  34
TORSDOF 5
ENDMDL
MODEL 9
REMARK VINA RESULT:      -8.3      1.773      1.962
REMARK  Name = 
REMARK  6 active torsions:
REMARK  status: ('A' for Active; 'I' for Inactive)
REMARK    1  A    between atoms: C_1  and  O_2
REMARK    2  A    between atoms: O_2  and  C_3
REMARK    3  A    between atoms: C_8  and  C_9
REMARK    4  A    between atoms: N_16  and  C_17
REMARK    5  A    between atoms: C_20  and  C_21
REMARK    6  A    between atoms: N_23  and  C_24
REMARK                            x       y       z     vdW  Elec       q    Type
REMARK                         _______ _______ _______ _____ _____    ______ ____
ROOT
ATOM      1  C   UNL     1       4.521   4.497  17.932  0.00  0.00    +0.000 A 
ATOM      2  C   UNL     1       4.488   3.402  18.779  0.00  0.00    +0.000 A 
ATOM      3  S   UNL     1       3.458   3.623  20.120  0.00  0.00    +0.000 S 
ATOM      4  C   UNL     1       2.985   5.172  19.577  0.00  0.00    +0.000 A 
ATOM      5  C   UNL     1       2.123   6.076  20.159  0.00  0.00    +0.000 A 
ATOM      6  N   UNL     1       1.874   7.240  19.535  0.00  0.00    +0.000 NA
ATOM      7  C   UNL     1       2.466   7.511  18.361  0.00  0.00    +0.000 A 
ATOM      8  N   UNL     1       2.170   8.710  17.705  0.00  0.00    +0.000 N 
ATOM      9  N   UNL     1       3.315   6.689  17.739  0.00  0.00    +0.000 NA
ATOM     10  C   UNL     1       3.589   5.513  18.371  0.00  0.00    +0.000 A 
ATOM     11  H   UNL     1       2.577   8.717  16.783  0.00  0.00    +0.000 HD
ENDROOT
BRANCH   8  12
ATOM     12  C   UNL     1       1.647   9.912  18.201  0.00  0.00    +0.000 A 
ATOM     13  C   UNL     1       0.361  10.011  18.746  0.00  0.00    +0.000 A 
ATOM     14  C   UNL     1      -0.170  11.235  19.163  0.00  0.00    +0.000 A 
ATOM     15  C   UNL     1       0.576  12.408  19.035  0.00  0.00    +0.000 A 
ATOM     16  C   UNL     1       1.855  12.321  18.484  0.00  0.00    +0.000 A 
ATOM     17  F   UNL     1       2.618  13.414  18.333  0.00  0.00    +0.000 F 
ATOM     18  C   UNL     1       2.387  11.093  18.068  0.00  0.00    +0.000 A 
BRANCH  15  19
ATOM     19  C   UNL     1      -0.046  13.681  19.493  0.00  0.00    +0.000 C 
ATOM     20  O   UNL     1      -0.191  14.610  18.703  0.00  0.00    +0.000 OA
ATOM     21  N   UNL     1      -0.446  13.756  20.808  0.00  0.00    +0.000 N 
ATOM     22  H   UNL     1      -0.413  12.915  21.374  0.00  0.00    +0.000 HD
BRANCH  21  23
ATOM     23  C   UNL     1      -1.179  14.903  21.325  0.00  0.00    +0.000 C 
ATOM     24  C   UNL     1      -0.753  15.202  22.761  0.00  0.00    +0.000 C 
ATOM     25  C   UNL     1      -1.623  16.296  23.358  0.00  0.00    +0.000 C 
ATOM     26  O   UNL     1      -3.002  15.939  23.280  0.00  0.00    +0.000 OA
ATOM     27  C   UNL     1      -3.443  15.788  21.931  0.00  0.00    +0.000 C 
ATOM     28  C   UNL     1      -2.687  14.662  21.244  0.00  0.00    +0.000 C 
ENDBRANCH  21  23
ENDBRANCH  15  19
ENDBRANCH   8  12
BRANCH   1  34
ATOM     29  C   UNL     1       6.767   4.895  16.816  0.00  0.00    +0.000 A 
ATOM     30  C   UNL     1       7.534   4.928  15.642  0.00  0.00    +0.000 A 
ATOM     31  C   UNL     1       6.953   4.670  14.401  0.00  0.00    +0.000 A 
ATOM     32  C   UNL     1       5.605   4.346  14.324  0.00  0.00    +0.000 A 
ATOM     33  C   UNL     1       4.841   4.266  15.488  0.00  0.00    +0.000 A 
ATOM     34  C   UNL     1       5.401   4.538  16.750  0.00  0.00    +0.000 A 
BRANCH  29  36
ATOM     35  C   UNL     1       7.668   6.529  18.281  0.00  0.00    +0.000 C 
ATOM     36  O   UNL     1       7.316   5.169  18.046  0.00  0.00    +0.000 OA
ENDBRANCH  29  36
ENDBRANCH   1  34
TORSDOF 5
ENDMDL
