MODEL 1
REMARK VINA RESULT:      -6.9      0.000      0.000
REMARK  Name = 
REMARK  3 active torsions:
REMARK  status: ('A' for Active; 'I' for Inactive)
REMARK    1  A    between atoms: C_1  and  C_2
REMARK    2  A    between atoms: C_6  and  C_8
REMARK    3  A    between atoms: N_13  and  C_14
REMARK                            x       y       z     vdW  Elec       q    Type
REMARK                         _______ _______ _______ _____ _____    ______ ____
ROOT
ATOM      1  C   UNL     1       7.605   5.059  12.548  0.00  0.00    +0.000 C 
ATOM      2  C   UNL     1       7.021   4.854  13.885  0.00  0.00    +0.000 A 
ATOM      3  C   UNL     1       5.823   4.385  14.365  0.00  0.00    +0.000 A 
ATOM      4  C   UNL     1       5.949   4.457  15.777  0.00  0.00    +0.000 A 
ATOM      5  N   UNL     1       4.964   4.083  16.673  0.00  0.00    +0.000 N 
ATOM      6  C   UNL     1       5.096   4.136  18.047  0.00  0.00    +0.000 C 
ATOM      7  O   UNL     1       6.111   4.488  18.633  0.00  0.00    +0.000 OA
ATOM      8  N   UNL     1       7.147   4.946  16.108  0.00  0.00    +0.000 NA
ATOM      9  O   UNL     1       7.813   5.193  14.932  0.00  0.00    +0.000 OA
ATOM     10  H   UNL     1       4.096   3.755  16.271  0.00  0.00    +0.000 HD
ENDROOT
BRANCH   6  11
ATOM     11  C   UNL     1       3.909   3.747  18.788  0.00  0.00    +0.000 A 
ATOM     12  C   UNL     1       3.326   2.514  19.026  0.00  0.00    +0.000 A 
ATOM     13 CL   UNL     1       3.817   0.963  18.536  0.00  0.00    +0.000 Cl
ATOM     14  C   UNL     1       2.175   2.770  19.786  0.00  0.00    +0.000 A 
ATOM     15  N   UNL     1       2.022   4.065  20.049  0.00  0.00    +0.000 NA
ATOM     16  N   UNL     1       3.080   4.644  19.439  0.00  0.00    +0.000 N 
ATOM     17  C   UNL     1       3.195   6.087  19.495  0.00  0.00    +0.000 C 
ENDBRANCH   6  11
TORSDOF 1
ENDMDL
MODEL 2
REMARK VINA RESULT:      -6.9      1.784      2.156
REMARK  Name = 
REMARK  3 active torsions:
REMARK  status: ('A' for Active; 'I' for Inactive)
REMARK    1  A    between atoms: C_1  and  C_2
REMARK    2  A    between atoms: C_6  and  C_8
REMARK    3  A    between atoms: N_13  and  C_14
REMARK                            x       y       z     vdW  Elec       q    Type
REMARK                         _______ _______ _______ _____ _____    ______ ____
ROOT
ATOM      1  C   UNL     1       7.361   4.797  12.835  0.00  0.00    +0.000 C 
ATOM      2  C   UNL     1       6.865   4.736  14.221  0.00  0.00    +0.000 A 
ATOM      3  C   UNL     1       5.641   4.532  14.811  0.00  0.00    +0.000 A 
ATOM      4  C   UNL     1       5.899   4.597  16.205  0.00  0.00    +0.000 A 
ATOM      5  N   UNL     1       4.939   4.448  17.189  0.00  0.00    +0.000 N 
ATOM      6  C   UNL     1       5.196   4.493  18.545  0.00  0.00    +0.000 C 
ATOM      7  O   UNL     1       6.308   4.635  19.036  0.00  0.00    +0.000 OA
ATOM      8  N   UNL     1       7.196   4.832  16.422  0.00  0.00    +0.000 NA
ATOM      9  O   UNL     1       7.796   4.919  15.189  0.00  0.00    +0.000 OA
ATOM     10  H   UNL     1       3.991   4.301  16.869  0.00  0.00    +0.000 HD
ENDROOT
BRANCH   6  11
ATOM     11  C   UNL     1       4.022   4.368  19.392  0.00  0.00    +0.000 A 
ATOM     12  C   UNL     1       3.011   5.258  19.713  0.00  0.00    +0.000 A 
ATOM     13 CL   UNL     1       2.764   6.859  19.202  0.00  0.00    +0.000 Cl
ATOM     14  C   UNL     1       2.164   4.577  20.601  0.00  0.00    +0.000 A 
ATOM     15  N   UNL     1       2.570   3.331  20.830  0.00  0.00    +0.000 NA
ATOM     16  N   UNL     1       3.695   3.218  20.090  0.00  0.00    +0.000 N 
ATOM     17  C   UNL     1       4.429   1.971  20.148  0.00  0.00    +0.000 C 
ENDBRANCH   6  11
TORSDOF 1
ENDMDL
MODEL 3
REMARK VINA RESULT:      -6.8      2.044      2.423
REMARK  Name = 
REMARK  3 active torsions:
REMARK  status: ('A' for Active; 'I' for Inactive)
REMARK    1  A    between atoms: C_1  and  C_2
REMARK    2  A    between atoms: C_6  and  C_8
REMARK    3  A    between atoms: N_13  and  C_14
REMARK                            x       y       z     vdW  Elec       q    Type
REMARK                         _______ _______ _______ _____ _____    ______ ____
ROOT
ATOM      1  C   UNL     1       7.339   4.375  12.234  0.00  0.00    +0.000 C 
ATOM      2  C   UNL     1       6.834   4.665  13.587  0.00  0.00    +0.000 A 
ATOM      3  C   UNL     1       5.659   4.436  14.260  0.00  0.00    +0.000 A 
ATOM      4  C   UNL     1       5.872   4.983  15.552  0.00  0.00    +0.000 A 
ATOM      5  N   UNL     1       4.937   4.978  16.571  0.00  0.00    +0.000 N 
ATOM      6  C   UNL     1       5.154   5.495  17.833  0.00  0.00    +0.000 C 
ATOM      7  O   UNL     1       6.209   5.987  18.210  0.00  0.00    +0.000 OA
ATOM      8  N   UNL     1       7.097   5.509  15.633  0.00  0.00    +0.000 NA
ATOM      9  O   UNL     1       7.695   5.311  14.412  0.00  0.00    +0.000 OA
ATOM     10  H   UNL     1       4.041   4.566  16.352  0.00  0.00    +0.000 HD
ENDROOT
BRANCH   6  11
ATOM     11  C   UNL     1       4.007   5.430  18.723  0.00  0.00    +0.000 A 
ATOM     12  C   UNL     1       2.983   6.325  18.985  0.00  0.00    +0.000 A 
ATOM     13 CL   UNL     1       2.684   7.862  18.325  0.00  0.00    +0.000 Cl
ATOM     14  C   UNL     1       2.179   5.718  19.960  0.00  0.00    +0.000 A 
ATOM     15  N   UNL     1       2.621   4.510  20.299  0.00  0.00    +0.000 NA
ATOM     16  N   UNL     1       3.728   4.349  19.540  0.00  0.00    +0.000 N 
ATOM     17  C   UNL     1       4.493   3.129  19.700  0.00  0.00    +0.000 C 
ENDBRANCH   6  11
TORSDOF 1
ENDMDL
MODEL 4
REMARK VINA RESULT:      -6.7      1.627      1.889
REMARK  Name = 
REMARK  3 active torsions:
REMARK  status: ('A' for Active; 'I' for Inactive)
REMARK    1  A    between atoms: C_1  and  C_2
REMARK    2  A    between atoms: C_6  and  C_8
REMARK    3  A    between atoms: N_13  and  C_14
REMARK                            x       y       z     vdW  Elec       q    Type
REMARK                         _______ _______ _______ _____ _____    ______ ____
ROOT
ATOM      1  C   UNL     1       7.732   5.040  12.997  0.00  0.00    +0.000 C 
ATOM      2  C   UNL     1       6.982   4.845  14.251  0.00  0.00    +0.000 A 
ATOM      3  C   UNL     1       5.869   4.130  14.621  0.00  0.00    +0.000 A 
ATOM      4  C   UNL     1       5.713   4.400  16.005  0.00  0.00    +0.000 A 
ATOM      5  N   UNL     1       4.703   3.883  16.797  0.00  0.00    +0.000 N 
ATOM      6  C   UNL     1       4.565   4.132  18.148  0.00  0.00    +0.000 C 
ATOM      7  O   UNL     1       5.337   4.812  18.811  0.00  0.00    +0.000 OA
ATOM      8  N   UNL     1       6.672   5.229  16.424  0.00  0.00    +0.000 NA
ATOM      9  O   UNL     1       7.461   5.506  15.333  0.00  0.00    +0.000 OA
ATOM     10  H   UNL     1       4.032   3.288  16.331  0.00  0.00    +0.000 HD
ENDROOT
BRANCH   6  11
ATOM     11  C   UNL     1       3.394   3.527  18.761  0.00  0.00    +0.000 A 
ATOM     12  C   UNL     1       2.038   3.724  18.566  0.00  0.00    +0.000 A 
ATOM     13 CL   UNL     1       1.230   4.765  17.493  0.00  0.00    +0.000 Cl
ATOM     14  C   UNL     1       1.389   2.870  19.471  0.00  0.00    +0.000 A 
ATOM     15  N   UNL     1       2.247   2.150  20.188  0.00  0.00    +0.000 NA
ATOM     16  N   UNL     1       3.457   2.558  19.747  0.00  0.00    +0.000 N 
ATOM     17  C   UNL     1       4.637   1.990  20.367  0.00  0.00    +0.000 C 
ENDBRANCH   6  11
TORSDOF 1
ENDMDL
MODEL 5
REMARK VINA RESULT:      -6.7      1.315      1.371
REMARK  Name = 
REMARK  3 active torsions:
REMARK  status: ('A' for Active; 'I' for Inactive)
REMARK    1  A    between atoms: C_1  and  C_2
REMARK    2  A    between atoms: C_6  and  C_8
REMARK    3  A    between atoms: N_13  and  C_14
REMARK                            x       y       z     vdW  Elec       q    Type
REMARK                         _______ _______ _______ _____ _____    ______ ____
ROOT
ATOM      1  C   UNL     1       7.172   4.227  12.151  0.00  0.00    +0.000 C 
ATOM      2  C   UNL     1       6.709   4.509  13.521  0.00  0.00    +0.000 A 
ATOM      3  C   UNL     1       5.589   4.205  14.254  0.00  0.00    +0.000 A 
ATOM      4  C   UNL     1       5.817   4.799  15.523  0.00  0.00    +0.000 A 
ATOM      5  N   UNL     1       4.933   4.746  16.586  0.00  0.00    +0.000 N 
ATOM      6  C   UNL     1       5.167   5.308  17.825  0.00  0.00    +0.000 C 
ATOM      7  O   UNL     1       6.196   5.890  18.140  0.00  0.00    +0.000 OA
ATOM      8  N   UNL     1       6.999   5.421  15.534  0.00  0.00    +0.000 NA
ATOM      9  O   UNL     1       7.554   5.241  14.290  0.00  0.00    +0.000 OA
ATOM     10  H   UNL     1       4.063   4.259  16.418  0.00  0.00    +0.000 HD
ENDROOT
BRANCH   6  11
ATOM     11  C   UNL     1       4.070   5.175  18.770  0.00  0.00    +0.000 A 
ATOM     12  C   UNL     1       3.717   4.163  19.646  0.00  0.00    +0.000 A 
ATOM     13 CL   UNL     1       4.474   2.673  19.953  0.00  0.00    +0.000 Cl
ATOM     14  C   UNL     1       2.542   4.593  20.281  0.00  0.00    +0.000 A 
ATOM     15  N   UNL     1       2.163   5.802  19.874  0.00  0.00    +0.000 NA
ATOM     16  N   UNL     1       3.098   6.142  18.960  0.00  0.00    +0.000 N 
ATOM     17  C   UNL     1       2.955   7.411  18.276  0.00  0.00    +0.000 C 
ENDBRANCH   6  11
TORSDOF 1
ENDMDL
MODEL 6
REMARK VINA RESULT:      -6.4      3.664      6.535
REMARK  Name = 
REMARK  3 active torsions:
REMARK  status: ('A' for Active; 'I' for Inactive)
REMARK    1  A    between atoms: C_1  and  C_2
REMARK    2  A    between atoms: C_6  and  C_8
REMARK    3  A    between atoms: N_13  and  C_14
REMARK                            x       y       z     vdW  Elec       q    Type
REMARK                         _______ _______ _______ _____ _____    ______ ____
ROOT
ATOM      1  C   UNL     1      -0.052  10.828  21.782  0.00  0.00    +0.000 C 
ATOM      2  C   UNL     1       0.623   9.669  21.171  0.00  0.00    +0.000 A 
ATOM      3  C   UNL     1       1.051   8.443  21.617  0.00  0.00    +0.000 A 
ATOM      4  C   UNL     1       1.618   7.822  20.473  0.00  0.00    +0.000 A 
ATOM      5  N   UNL     1       2.182   6.559  20.464  0.00  0.00    +0.000 N 
ATOM      6  C   UNL     1       2.715   5.951  19.344  0.00  0.00    +0.000 C 
ATOM      7  O   UNL     1       2.721   6.441  18.224  0.00  0.00    +0.000 OA
ATOM      8  N   UNL     1       1.534   8.637  19.418  0.00  0.00    +0.000 NA
ATOM      9  O   UNL     1       0.916   9.785  19.852  0.00  0.00    +0.000 OA
ATOM     10  H   UNL     1       2.197   6.071  21.348  0.00  0.00    +0.000 HD
ENDROOT
BRANCH   6  11
ATOM     11  C   UNL     1       3.306   4.645  19.585  0.00  0.00    +0.000 A 
ATOM     12  C   UNL     1       2.767   3.450  20.031  0.00  0.00    +0.000 A 
ATOM     13 CL   UNL     1       1.166   3.066  20.452  0.00  0.00    +0.000 Cl
ATOM     14  C   UNL     1       3.835   2.542  20.091  0.00  0.00    +0.000 A 
ATOM     15  N   UNL     1       4.982   3.086  19.696  0.00  0.00    +0.000 NA
ATOM     16  N   UNL     1       4.646   4.359  19.392  0.00  0.00    +0.000 N 
ATOM     17  C   UNL     1       5.697   5.258  18.959  0.00  0.00    +0.000 C 
ENDBRANCH   6  11
TORSDOF 1
ENDMDL
MODEL 7
REMARK VINA RESULT:      -6.2      3.071      3.316
REMARK  Name = 
REMARK  3 active torsions:
REMARK  status: ('A' for Active; 'I' for Inactive)
REMARK    1  A    between atoms: C_1  and  C_2
REMARK    2  A    between atoms: C_6  and  C_8
REMARK    3  A    between atoms: N_13  and  C_14
REMARK                            x       y       z     vdW  Elec       q    Type
REMARK                         _______ _______ _______ _____ _____    ______ ____
ROOT
ATOM      1  C   UNL     1       8.126   8.071  17.520  0.00  0.00    +0.000 C 
ATOM      2  C   UNL     1       7.213   7.003  17.963  0.00  0.00    +0.000 A 
ATOM      3  C   UNL     1       5.884   6.715  17.772  0.00  0.00    +0.000 A 
ATOM      4  C   UNL     1       5.670   5.512  18.494  0.00  0.00    +0.000 A 
ATOM      5  N   UNL     1       4.456   4.853  18.581  0.00  0.00    +0.000 N 
ATOM      6  C   UNL     1       4.256   3.672  19.268  0.00  0.00    +0.000 C 
ATOM      7  O   UNL     1       5.134   3.051  19.852  0.00  0.00    +0.000 OA
ATOM      8  N   UNL     1       6.804   5.118  19.079  0.00  0.00    +0.000 NA
ATOM      9  O   UNL     1       7.763   6.046  18.750  0.00  0.00    +0.000 OA
ATOM     10  H   UNL     1       3.678   5.287  18.104  0.00  0.00    +0.000 HD
ENDROOT
BRANCH   6  11
ATOM     11  C   UNL     1       2.884   3.195  19.270  0.00  0.00    +0.000 A 
ATOM     12  C   UNL     1       1.961   3.025  20.288  0.00  0.00    +0.000 A 
ATOM     13 CL   UNL     1       2.103   3.341  21.952  0.00  0.00    +0.000 Cl
ATOM     14  C   UNL     1       0.808   2.503  19.682  0.00  0.00    +0.000 A 
ATOM     15  N   UNL     1       0.949   2.362  18.367  0.00  0.00    +0.000 NA
ATOM     16  N   UNL     1       2.211   2.786  18.132  0.00  0.00    +0.000 N 
ATOM     17  C   UNL     1       2.710   2.720  16.774  0.00  0.00    +0.000 C 
ENDBRANCH   6  11
TORSDOF 1
ENDMDL
MODEL 8
REMARK VINA RESULT:      -6.1      3.427      5.525
REMARK  Name = 
REMARK  3 active torsions:
REMARK  status: ('A' for Active; 'I' for Inactive)
REMARK    1  A    between atoms: C_1  and  C_2
REMARK    2  A    between atoms: C_6  and  C_8
REMARK    3  A    between atoms: N_13  and  C_14
REMARK                            x       y       z     vdW  Elec       q    Type
REMARK                         _______ _______ _______ _____ _____    ______ ____
ROOT
ATOM      1  C   UNL     1       0.664  11.350  18.824  0.00  0.00    +0.000 C 
ATOM      2  C   UNL     1       1.313  10.036  18.679  0.00  0.00    +0.000 A 
ATOM      3  C   UNL     1       1.428   8.913  19.462  0.00  0.00    +0.000 A 
ATOM      4  C   UNL     1       2.196   8.009  18.683  0.00  0.00    +0.000 A 
ATOM      5  N   UNL     1       2.561   6.738  19.087  0.00  0.00    +0.000 N 
ATOM      6  C   UNL     1       3.292   5.853  18.319  0.00  0.00    +0.000 C 
ATOM      7  O   UNL     1       3.674   6.076  17.178  0.00  0.00    +0.000 OA
ATOM      8  N   UNL     1       2.519   8.568  17.514  0.00  0.00    +0.000 NA
ATOM      9  O   UNL     1       1.971   9.829  17.512  0.00  0.00    +0.000 OA
ATOM     10  H   UNL     1       2.263   6.462  20.013  0.00  0.00    +0.000 HD
ENDROOT
BRANCH   6  11
ATOM     11  C   UNL     1       3.606   4.594  18.974  0.00  0.00    +0.000 A 
ATOM     12  C   UNL     1       2.804   3.594  19.495  0.00  0.00    +0.000 A 
ATOM     13 CL   UNL     1       1.110   3.467  19.542  0.00  0.00    +0.000 Cl
ATOM     14  C   UNL     1       3.679   2.634  20.026  0.00  0.00    +0.000 A 
ATOM     15  N   UNL     1       4.956   2.962  19.848  0.00  0.00    +0.000 NA
ATOM     16  N   UNL     1       4.896   4.151  19.209  0.00  0.00    +0.000 N 
ATOM     17  C   UNL     1       6.142   4.823  18.898  0.00  0.00    +0.000 C 
ENDBRANCH   6  11
TORSDOF 1
ENDMDL
MODEL 9
REMARK VINA RESULT:      -6.0      2.156      2.535
REMARK  Name = 
REMARK  3 active torsions:
REMARK  status: ('A' for Active; 'I' for Inactive)
REMARK    1  A    between atoms: C_1  and  C_2
REMARK    2  A    between atoms: C_6  and  C_8
REMARK    3  A    between atoms: N_13  and  C_14
REMARK                            x       y       z     vdW  Elec       q    Type
REMARK                         _______ _______ _______ _____ _____    ______ ____
ROOT
ATOM      1  C   UNL     1       6.435   4.079  13.407  0.00  0.00    +0.000 C 
ATOM      2  C   UNL     1       5.981   4.199  14.803  0.00  0.00    +0.000 A 
ATOM      3  C   UNL     1       5.098   3.517  15.604  0.00  0.00    +0.000 A 
ATOM      4  C   UNL     1       5.162   4.182  16.857  0.00  0.00    +0.000 A 
ATOM      5  N   UNL     1       4.425   3.827  17.972  0.00  0.00    +0.000 N 
ATOM      6  C   UNL     1       4.504   4.463  19.196  0.00  0.00    +0.000 C 
ATOM      7  O   UNL     1       5.259   5.393  19.447  0.00  0.00    +0.000 OA
ATOM      8  N   UNL     1       6.027   5.198  16.795  0.00  0.00    +0.000 NA
ATOM      9  O   UNL     1       6.536   5.209  15.519  0.00  0.00    +0.000 OA
ATOM     10  H   UNL     1       3.790   3.049  17.858  0.00  0.00    +0.000 HD
ENDROOT
BRANCH   6  11
ATOM     11  C   UNL     1       3.593   3.954  20.206  0.00  0.00    +0.000 A 
ATOM     12  C   UNL     1       2.469   4.500  20.802  0.00  0.00    +0.000 A 
ATOM     13 CL   UNL     1       1.719   6.003  20.545  0.00  0.00    +0.000 Cl
ATOM     14  C   UNL     1       2.020   3.546  21.728  0.00  0.00    +0.000 A 
ATOM     15  N   UNL     1       2.773   2.449  21.727  0.00  0.00    +0.000 NA
ATOM     16  N   UNL     1       3.720   2.710  20.800  0.00  0.00    +0.000 N 
ATOM     17  C   UNL     1       4.749   1.715  20.577  0.00  0.00    +0.000 C 
ENDBRANCH   6  11
TORSDOF 1
ENDMDL
