MODEL 1
REMARK VINA RESULT:      -7.4      0.000      0.000
REMARK  Name = 
REMARK  12 active torsions:
REMARK  status: ('A' for Active; 'I' for Inactive)
REMARK    1  A    between atoms: C_1  and  C_2
REMARK    2  A    between atoms: C_2  and  O_3
REMARK    3  A    between atoms: O_3  and  C_4
REMARK    4  A    between atoms: C_4  and  C_6
REMARK    5  A    between atoms: C_8  and  C_9
REMARK    6  A    between atoms: C_9  and  C_11
REMARK    7  A    between atoms: C_14  and  O_15
REMARK    8  A    between atoms: O_15  and  C_16
REMARK    9  A    between atoms: C_17  and  O_18
REMARK   10  A    between atoms: O_18  and  C_19
REMARK   11  A    between atoms: C_24  and  O_25
REMARK   12  A    between atoms: O_25  and  C_26
REMARK                            x       y       z     vdW  Elec       q    Type
REMARK                         _______ _______ _______ _____ _____    ______ ____
ROOT
ATOM      1  C   UNL     1       2.756   4.358  18.151  0.00  0.00    +0.000 A 
ATOM      2  C   UNL     1       2.156   5.593  18.504  0.00  0.00    +0.000 A 
ATOM      3  C   UNL     1       2.878   6.641  17.945  0.00  0.00    +0.000 A 
ATOM      4  N   UNL     1       3.883   6.066  17.173  0.00  0.00    +0.000 N 
ATOM      5  C   UNL     1       4.861   6.669  16.376  0.00  0.00    +0.000 A 
ATOM      6  C   UNL     1       5.738   5.910  15.696  0.00  0.00    +0.000 A 
ATOM      7  C   UNL     1       5.661   4.459  15.787  0.00  0.00    +0.000 A 
ATOM      8  C   UNL     1       4.736   3.885  16.582  0.00  0.00    +0.000 A 
ATOM      9  C   UNL     1       3.808   4.680  17.311  0.00  0.00    +0.000 A 
ENDROOT
BRANCH   1  10
ATOM     10  C   UNL     1       2.313   3.019  18.519  0.00  0.00    +0.000 C 
ATOM     11  O   UNL     1       1.489   2.367  17.889  0.00  0.00    +0.000 OA
BRANCH  10  12
ATOM     12  O   UNL     1       2.859   2.632  19.709  0.00  0.00    +0.000 OA
BRANCH  12  14
ATOM     13  C   UNL     1       2.105   3.619  21.742  0.00  0.00    +0.000 C 
ATOM     14  C   UNL     1       1.919   2.465  20.772  0.00  0.00    +0.000 C 
ENDBRANCH  12  14
ENDBRANCH  10  12
ENDBRANCH   1  10
BRANCH   3  15
ATOM     15  C   UNL     1       2.612   8.068  18.084  0.00  0.00    +0.000 C 
ATOM     16  O   UNL     1       3.104   8.926  17.356  0.00  0.00    +0.000 OA
BRANCH  15  17
ATOM     17  C   UNL     1       1.659   8.521  19.148  0.00  0.00    +0.000 A 
ATOM     18  C   UNL     1       1.741   7.969  20.426  0.00  0.00    +0.000 A 
ATOM     19  C   UNL     1       0.898   8.445  21.434  0.00  0.00    +0.000 A 
ATOM     20  C   UNL     1      -0.027   9.475  21.192  0.00  0.00    +0.000 A 
ATOM     21  C   UNL     1      -0.137  10.010  19.897  0.00  0.00    +0.000 A 
ATOM     22  C   UNL     1       0.690   9.502  18.883  0.00  0.00    +0.000 A 
BRANCH  20  23
ATOM     23  O   UNL     1      -0.721   9.820  22.322  0.00  0.00    +0.000 OA
ATOM     24  C   UNL     1      -0.115   9.621  23.591  0.00  0.00    +0.000 C 
ENDBRANCH  20  23
BRANCH  21  25
ATOM     25  O   UNL     1      -1.046  11.009  19.672  0.00  0.00    +0.000 OA
ATOM     26  C   UNL     1      -0.757  11.983  18.675  0.00  0.00    +0.000 C 
ENDBRANCH  21  25
ENDBRANCH  15  17
ENDBRANCH   3  15
BRANCH   7  27
ATOM     27  O   UNL     1       6.585   3.807  15.006  0.00  0.00    +0.000 OA
ATOM     28  C   UNL     1       6.354   3.820  13.599  0.00  0.00    +0.000 C 
ENDBRANCH   7  27
TORSDOF 8
ENDMDL
MODEL 2
REMARK VINA RESULT:      -7.3      1.016      1.033
REMARK  Name = 
REMARK  12 active torsions:
REMARK  status: ('A' for Active; 'I' for Inactive)
REMARK    1  A    between atoms: C_1  and  C_2
REMARK    2  A    between atoms: C_2  and  O_3
REMARK    3  A    between atoms: O_3  and  C_4
REMARK    4  A    between atoms: C_4  and  C_6
REMARK    5  A    between atoms: C_8  and  C_9
REMARK    6  A    between atoms: C_9  and  C_11
REMARK    7  A    between atoms: C_14  and  O_15
REMARK    8  A    between atoms: O_15  and  C_16
REMARK    9  A    between atoms: C_17  and  O_18
REMARK   10  A    between atoms: O_18  and  C_19
REMARK   11  A    between atoms: C_24  and  O_25
REMARK   12  A    between atoms: O_25  and  C_26
REMARK                            x       y       z     vdW  Elec       q    Type
REMARK                         _______ _______ _______ _____ _____    ______ ____
ROOT
ATOM      1  C   UNL     1       2.286   4.637  18.218  0.00  0.00    +0.000 A 
ATOM      2  C   UNL     1       1.646   5.883  18.437  0.00  0.00    +0.000 A 
ATOM      3  C   UNL     1       2.477   6.916  18.022  0.00  0.00    +0.000 A 
ATOM      4  N   UNL     1       3.605   6.322  17.466  0.00  0.00    +0.000 N 
ATOM      5  C   UNL     1       4.728   6.906  16.871  0.00  0.00    +0.000 A 
ATOM      6  C   UNL     1       5.711   6.129  16.381  0.00  0.00    +0.000 A 
ATOM      7  C   UNL     1       5.598   4.681  16.467  0.00  0.00    +0.000 A 
ATOM      8  C   UNL     1       4.528   4.125  17.071  0.00  0.00    +0.000 A 
ATOM      9  C   UNL     1       3.487   4.939  17.598  0.00  0.00    +0.000 A 
ENDROOT
BRANCH   1  10
ATOM     10  C   UNL     1       1.761   3.308  18.503  0.00  0.00    +0.000 C 
ATOM     11  O   UNL     1       1.920   2.333  17.778  0.00  0.00    +0.000 OA
BRANCH  10  12
ATOM     12  O   UNL     1       0.989   3.316  19.628  0.00  0.00    +0.000 OA
BRANCH  12  14
ATOM     13  C   UNL     1       2.883   2.749  20.956  0.00  0.00    +0.000 C 
ATOM     14  C   UNL     1       1.428   2.433  20.662  0.00  0.00    +0.000 C 
ENDBRANCH  12  14
ENDBRANCH  10  12
ENDBRANCH   1  10
BRANCH   3  15
ATOM     15  C   UNL     1       2.209   8.347  18.095  0.00  0.00    +0.000 C 
ATOM     16  O   UNL     1       2.432   9.130  17.175  0.00  0.00    +0.000 OA
BRANCH  15  17
ATOM     17  C   UNL     1       1.593   8.900  19.346  0.00  0.00    +0.000 A 
ATOM     18  C   UNL     1       1.672   8.172  20.532  0.00  0.00    +0.000 A 
ATOM     19  C   UNL     1       1.159   8.723  21.710  0.00  0.00    +0.000 A 
ATOM     20  C   UNL     1       0.571   9.999  21.729  0.00  0.00    +0.000 A 
ATOM     21  C   UNL     1       0.457  10.722  20.528  0.00  0.00    +0.000 A 
ATOM     22  C   UNL     1       0.944  10.146  19.345  0.00  0.00    +0.000 A 
BRANCH  20  23
ATOM     23  O   UNL     1       0.176  10.365  22.988  0.00  0.00    +0.000 OA
ATOM     24  C   UNL     1      -1.201  10.607  23.236  0.00  0.00    +0.000 C 
ENDBRANCH  20  23
BRANCH  21  25
ATOM     25  O   UNL     1      -0.123  11.962  20.559  0.00  0.00    +0.000 OA
ATOM     26  C   UNL     1       0.713  13.102  20.725  0.00  0.00    +0.000 C 
ENDBRANCH  21  25
ENDBRANCH  15  17
ENDBRANCH   3  15
BRANCH   7  27
ATOM     27  O   UNL     1       6.648   4.010  15.887  0.00  0.00    +0.000 OA
ATOM     28  C   UNL     1       6.798   4.156  14.476  0.00  0.00    +0.000 C 
ENDBRANCH   7  27
TORSDOF 8
ENDMDL
MODEL 3
REMARK VINA RESULT:      -7.3      2.457      8.147
REMARK  Name = 
REMARK  12 active torsions:
REMARK  status: ('A' for Active; 'I' for Inactive)
REMARK    1  A    between atoms: C_1  and  C_2
REMARK    2  A    between atoms: C_2  and  O_3
REMARK    3  A    between atoms: O_3  and  C_4
REMARK    4  A    between atoms: C_4  and  C_6
REMARK    5  A    between atoms: C_8  and  C_9
REMARK    6  A    between atoms: C_9  and  C_11
REMARK    7  A    between atoms: C_14  and  O_15
REMARK    8  A    between atoms: O_15  and  C_16
REMARK    9  A    between atoms: C_17  and  O_18
REMARK   10  A    between atoms: O_18  and  C_19
REMARK   11  A    between atoms: C_24  and  O_25
REMARK   12  A    between atoms: O_25  and  C_26
REMARK                            x       y       z     vdW  Elec       q    Type
REMARK                         _______ _______ _______ _____ _____    ______ ____
ROOT
ATOM      1  C   UNL     1      -0.407  11.827  20.248  0.00  0.00    +0.000 A 
ATOM      2  C   UNL     1       0.825  11.194  19.947  0.00  0.00    +0.000 A 
ATOM      3  C   UNL     1       0.663  10.343  18.861  0.00  0.00    +0.000 A 
ATOM      4  N   UNL     1      -0.649  10.500  18.424  0.00  0.00    +0.000 N 
ATOM      5  C   UNL     1      -1.316   9.905  17.348  0.00  0.00    +0.000 A 
ATOM      6  C   UNL     1      -2.600  10.216  17.097  0.00  0.00    +0.000 A 
ATOM      7  C   UNL     1      -3.290  11.176  17.945  0.00  0.00    +0.000 A 
ATOM      8  C   UNL     1      -2.651  11.722  19.000  0.00  0.00    +0.000 A 
ATOM      9  C   UNL     1      -1.295  11.394  19.277  0.00  0.00    +0.000 A 
ENDROOT
BRANCH   1  10
ATOM     10  C   UNL     1      -0.672  12.797  21.302  0.00  0.00    +0.000 C 
ATOM     11  O   UNL     1      -1.004  13.959  21.103  0.00  0.00    +0.000 OA
BRANCH  10  12
ATOM     12  O   UNL     1      -0.406  12.270  22.532  0.00  0.00    +0.000 OA
BRANCH  12  14
ATOM     13  C   UNL     1      -0.604   9.991  23.200  0.00  0.00    +0.000 C 
ATOM     14  C   UNL     1      -1.349  11.296  22.984  0.00  0.00    +0.000 C 
ENDBRANCH  12  14
ENDBRANCH  10  12
ENDBRANCH   1  10
BRANCH   3  15
ATOM     15  C   UNL     1       1.674   9.489  18.249  0.00  0.00    +0.000 C 
ATOM     16  O   UNL     1       2.355   9.824  17.284  0.00  0.00    +0.000 OA
BRANCH  15  17
ATOM     17  C   UNL     1       1.931   8.139  18.847  0.00  0.00    +0.000 A 
ATOM     18  C   UNL     1       1.646   7.916  20.194  0.00  0.00    +0.000 A 
ATOM     19  C   UNL     1       1.819   6.637  20.729  0.00  0.00    +0.000 A 
ATOM     20  C   UNL     1       2.267   5.564  19.938  0.00  0.00    +0.000 A 
ATOM     21  C   UNL     1       2.589   5.792  18.589  0.00  0.00    +0.000 A 
ATOM     22  C   UNL     1       2.444   7.088  18.070  0.00  0.00    +0.000 A 
BRANCH  20  23
ATOM     23  O   UNL     1       2.325   4.392  20.646  0.00  0.00    +0.000 OA
ATOM     24  C   UNL     1       1.182   3.550  20.678  0.00  0.00    +0.000 C 
ENDBRANCH  20  23
BRANCH  21  25
ATOM     25  O   UNL     1       3.030   4.740  17.831  0.00  0.00    +0.000 OA
ATOM     26  C   UNL     1       4.428   4.479  17.775  0.00  0.00    +0.000 C 
ENDBRANCH  21  25
ENDBRANCH  15  17
ENDBRANCH   3  15
BRANCH   7  27
ATOM     27  O   UNL     1      -4.580  11.436  17.548  0.00  0.00    +0.000 OA
ATOM     28  C   UNL     1      -5.618  10.996  18.422  0.00  0.00    +0.000 C 
ENDBRANCH   7  27
TORSDOF 8
ENDMDL
MODEL 4
REMARK VINA RESULT:      -7.3      1.698      2.154
REMARK  Name = 
REMARK  12 active torsions:
REMARK  status: ('A' for Active; 'I' for Inactive)
REMARK    1  A    between atoms: C_1  and  C_2
REMARK    2  A    between atoms: C_2  and  O_3
REMARK    3  A    between atoms: O_3  and  C_4
REMARK    4  A    between atoms: C_4  and  C_6
REMARK    5  A    between atoms: C_8  and  C_9
REMARK    6  A    between atoms: C_9  and  C_11
REMARK    7  A    between atoms: C_14  and  O_15
REMARK    8  A    between atoms: O_15  and  C_16
REMARK    9  A    between atoms: C_17  and  O_18
REMARK   10  A    between atoms: O_18  and  C_19
REMARK   11  A    between atoms: C_24  and  O_25
REMARK   12  A    between atoms: O_25  and  C_26
REMARK                            x       y       z     vdW  Elec       q    Type
REMARK                         _______ _______ _______ _____ _____    ______ ____
ROOT
ATOM      1  C   UNL     1       2.726   4.718  20.246  0.00  0.00    +0.000 A 
ATOM      2  C   UNL     1       1.821   5.796  20.079  0.00  0.00    +0.000 A 
ATOM      3  C   UNL     1       2.414   6.790  19.309  0.00  0.00    +0.000 A 
ATOM      4  N   UNL     1       3.659   6.306  18.923  0.00  0.00    +0.000 N 
ATOM      5  C   UNL     1       4.640   6.890  18.116  0.00  0.00    +0.000 A 
ATOM      6  C   UNL     1       5.783   6.229  17.858  0.00  0.00    +0.000 A 
ATOM      7  C   UNL     1       5.990   4.901  18.416  0.00  0.00    +0.000 A 
ATOM      8  C   UNL     1       5.054   4.356  19.220  0.00  0.00    +0.000 A 
ATOM      9  C   UNL     1       3.846   5.052  19.503  0.00  0.00    +0.000 A 
ENDROOT
BRANCH   1  10
ATOM     10  C   UNL     1       2.501   3.475  20.974  0.00  0.00    +0.000 C 
ATOM     11  O   UNL     1       2.241   3.413  22.169  0.00  0.00    +0.000 OA
BRANCH  10  12
ATOM     12  O   UNL     1       2.719   2.391  20.174  0.00  0.00    +0.000 OA
BRANCH  12  14
ATOM     13  C   UNL     1       2.333   2.107  17.840  0.00  0.00    +0.000 C 
ATOM     14  C   UNL     1       1.690   2.139  19.215  0.00  0.00    +0.000 C 
ENDBRANCH  12  14
ENDBRANCH  10  12
ENDBRANCH   1  10
BRANCH   3  15
ATOM     15  C   UNL     1       1.834   8.071  18.925  0.00  0.00    +0.000 C 
ATOM     16  O   UNL     1       1.840   8.504  17.776  0.00  0.00    +0.000 OA
BRANCH  15  17
ATOM     17  C   UNL     1       1.158   8.898  19.978  0.00  0.00    +0.000 A 
ATOM     18  C   UNL     1       1.270   8.532  21.318  0.00  0.00    +0.000 A 
ATOM     19  C   UNL     1       0.698   9.345  22.301  0.00  0.00    +0.000 A 
ATOM     20  C   UNL     1       0.019  10.531  21.970  0.00  0.00    +0.000 A 
ATOM     21  C   UNL     1      -0.126  10.885  20.617  0.00  0.00    +0.000 A 
ATOM     22  C   UNL     1       0.421  10.044  19.636  0.00  0.00    +0.000 A 
BRANCH  20  23
ATOM     23  O   UNL     1      -0.423  11.198  23.082  0.00  0.00    +0.000 OA
ATOM     24  C   UNL     1      -1.813  11.452  23.226  0.00  0.00    +0.000 C 
ENDBRANCH  20  23
BRANCH  21  25
ATOM     25  O   UNL     1      -0.795  12.039  20.307  0.00  0.00    +0.000 OA
ATOM     26  C   UNL     1      -0.372  12.789  19.174  0.00  0.00    +0.000 C 
ENDBRANCH  21  25
ENDBRANCH  15  17
ENDBRANCH   3  15
BRANCH   7  27
ATOM     27  O   UNL     1       7.177   4.322  18.035  0.00  0.00    +0.000 OA
ATOM     28  C   UNL     1       7.508   4.395  16.650  0.00  0.00    +0.000 C 
ENDBRANCH   7  27
TORSDOF 8
ENDMDL
MODEL 5
REMARK VINA RESULT:      -7.2      1.321      1.458
REMARK  Name = 
REMARK  12 active torsions:
REMARK  status: ('A' for Active; 'I' for Inactive)
REMARK    1  A    between atoms: C_1  and  C_2
REMARK    2  A    between atoms: C_2  and  O_3
REMARK    3  A    between atoms: O_3  and  C_4
REMARK    4  A    between atoms: C_4  and  C_6
REMARK    5  A    between atoms: C_8  and  C_9
REMARK    6  A    between atoms: C_9  and  C_11
REMARK    7  A    between atoms: C_14  and  O_15
REMARK    8  A    between atoms: O_15  and  C_16
REMARK    9  A    between atoms: C_17  and  O_18
REMARK   10  A    between atoms: O_18  and  C_19
REMARK   11  A    between atoms: C_24  and  O_25
REMARK   12  A    between atoms: O_25  and  C_26
REMARK                            x       y       z     vdW  Elec       q    Type
REMARK                         _______ _______ _______ _____ _____    ______ ____
ROOT
ATOM      1  C   UNL     1       2.611   4.559  18.312  0.00  0.00    +0.000 A 
ATOM      2  C   UNL     1       1.796   5.717  18.362  0.00  0.00    +0.000 A 
ATOM      3  C   UNL     1       2.565   6.843  18.095  0.00  0.00    +0.000 A 
ATOM      4  N   UNL     1       3.846   6.390  17.795  0.00  0.00    +0.000 N 
ATOM      5  C   UNL     1       4.989   7.104  17.423  0.00  0.00    +0.000 A 
ATOM      6  C   UNL     1       6.136   6.452  17.164  0.00  0.00    +0.000 A 
ATOM      7  C   UNL     1       6.181   5.001  17.267  0.00  0.00    +0.000 A 
ATOM      8  C   UNL     1       5.084   4.320  17.656  0.00  0.00    +0.000 A 
ATOM      9  C   UNL     1       3.868   5.003  17.939  0.00  0.00    +0.000 A 
ENDROOT
BRANCH   1  10
ATOM     10  C   UNL     1       2.201   3.176  18.523  0.00  0.00    +0.000 C 
ATOM     11  O   UNL     1       1.276   2.633  17.932  0.00  0.00    +0.000 OA
BRANCH  10  12
ATOM     12  O   UNL     1       2.916   2.601  19.533  0.00  0.00    +0.000 OA
BRANCH  12  14
ATOM     13  C   UNL     1       1.356   2.732  21.328  0.00  0.00    +0.000 C 
ATOM     14  C   UNL     1       2.712   3.187  20.820  0.00  0.00    +0.000 C 
ENDBRANCH  12  14
ENDBRANCH  10  12
ENDBRANCH   1  10
BRANCH   3  15
ATOM     15  C   UNL     1       2.119   8.231  18.071  0.00  0.00    +0.000 C 
ATOM     16  O   UNL     1       2.162   8.944  17.072  0.00  0.00    +0.000 OA
BRANCH  15  17
ATOM     17  C   UNL     1       1.541   8.821  19.323  0.00  0.00    +0.000 A 
ATOM     18  C   UNL     1       1.601   8.101  20.515  0.00  0.00    +0.000 A 
ATOM     19  C   UNL     1       1.126   8.684  21.693  0.00  0.00    +0.000 A 
ATOM     20  C   UNL     1       0.595   9.985  21.706  0.00  0.00    +0.000 A 
ATOM     21  C   UNL     1       0.500  10.701  20.500  0.00  0.00    +0.000 A 
ATOM     22  C   UNL     1       0.948  10.094  19.317  0.00  0.00    +0.000 A 
BRANCH  20  23
ATOM     23  O   UNL     1       0.229  10.379  22.967  0.00  0.00    +0.000 OA
ATOM     24  C   UNL     1      -1.145  10.604  23.247  0.00  0.00    +0.000 C 
ENDBRANCH  20  23
BRANCH  21  25
ATOM     25  O   UNL     1      -0.025  11.965  20.525  0.00  0.00    +0.000 OA
ATOM     26  C   UNL     1       0.853  13.065  20.740  0.00  0.00    +0.000 C 
ENDBRANCH  21  25
ENDBRANCH  15  17
ENDBRANCH   3  15
BRANCH   7  27
ATOM     27  O   UNL     1       7.400   4.462  16.930  0.00  0.00    +0.000 OA
ATOM     28  C   UNL     1       8.365   4.361  17.975  0.00  0.00    +0.000 C 
ENDBRANCH   7  27
TORSDOF 8
ENDMDL
MODEL 6
REMARK VINA RESULT:      -7.1      1.361      1.677
REMARK  Name = 
REMARK  12 active torsions:
REMARK  status: ('A' for Active; 'I' for Inactive)
REMARK    1  A    between atoms: C_1  and  C_2
REMARK    2  A    between atoms: C_2  and  O_3
REMARK    3  A    between atoms: O_3  and  C_4
REMARK    4  A    between atoms: C_4  and  C_6
REMARK    5  A    between atoms: C_8  and  C_9
REMARK    6  A    between atoms: C_9  and  C_11
REMARK    7  A    between atoms: C_14  and  O_15
REMARK    8  A    between atoms: O_15  and  C_16
REMARK    9  A    between atoms: C_17  and  O_18
REMARK   10  A    between atoms: O_18  and  C_19
REMARK   11  A    between atoms: C_24  and  O_25
REMARK   12  A    between atoms: O_25  and  C_26
REMARK                            x       y       z     vdW  Elec       q    Type
REMARK                         _______ _______ _______ _____ _____    ______ ____
ROOT
ATOM      1  C   UNL     1       3.058   4.784  19.342  0.00  0.00    +0.000 A 
ATOM      2  C   UNL     1       2.173   5.890  19.390  0.00  0.00    +0.000 A 
ATOM      3  C   UNL     1       2.673   6.925  18.610  0.00  0.00    +0.000 A 
ATOM      4  N   UNL     1       3.830   6.445  18.005  0.00  0.00    +0.000 N 
ATOM      5  C   UNL     1       4.696   7.067  17.100  0.00  0.00    +0.000 A 
ATOM      6  C   UNL     1       5.765   6.403  16.625  0.00  0.00    +0.000 A 
ATOM      7  C   UNL     1       6.012   5.033  17.051  0.00  0.00    +0.000 A 
ATOM      8  C   UNL     1       5.191   4.450  17.949  0.00  0.00    +0.000 A 
ATOM      9  C   UNL     1       4.063   5.148  18.462  0.00  0.00    +0.000 A 
ENDROOT
BRANCH   1  10
ATOM     10  C   UNL     1       2.906   3.496  20.007  0.00  0.00    +0.000 C 
ATOM     11  O   UNL     1       2.798   3.354  21.219  0.00  0.00    +0.000 OA
BRANCH  10  12
ATOM     12  O   UNL     1       3.002   2.468  19.115  0.00  0.00    +0.000 OA
BRANCH  12  14
ATOM     13  C   UNL     1       0.644   2.269  18.844  0.00  0.00    +0.000 C 
ATOM     14  C   UNL     1       1.972   2.435  18.126  0.00  0.00    +0.000 C 
ENDBRANCH  12  14
ENDBRANCH  10  12
ENDBRANCH   1  10
BRANCH   3  15
ATOM     15  C   UNL     1       2.083   8.243  18.409  0.00  0.00    +0.000 C 
ATOM     16  O   UNL     1       2.049   8.816  17.323  0.00  0.00    +0.000 OA
BRANCH  15  17
ATOM     17  C   UNL     1       1.449   8.932  19.580  0.00  0.00    +0.000 A 
ATOM     18  C   UNL     1       1.339   8.262  20.798  0.00  0.00    +0.000 A 
ATOM     19  C   UNL     1       0.812   8.932  21.905  0.00  0.00    +0.000 A 
ATOM     20  C   UNL     1       0.396  10.272  21.822  0.00  0.00    +0.000 A 
ATOM     21  C   UNL     1       0.473  10.941  20.589  0.00  0.00    +0.000 A 
ATOM     22  C   UNL     1       0.971  10.249  19.474  0.00  0.00    +0.000 A 
BRANCH  20  23
ATOM     23  O   UNL     1      -0.045  10.749  23.029  0.00  0.00    +0.000 OA
ATOM     24  C   UNL     1      -1.430  11.016  23.199  0.00  0.00    +0.000 C 
ENDBRANCH  20  23
BRANCH  21  25
ATOM     25  O   UNL     1       0.059  12.245  20.520  0.00  0.00    +0.000 OA
ATOM     26  C   UNL     1       1.024  13.277  20.699  0.00  0.00    +0.000 C 
ENDBRANCH  21  25
ENDBRANCH  15  17
ENDBRANCH   3  15
BRANCH   7  27
ATOM     27  O   UNL     1       7.109   4.459  16.454  0.00  0.00    +0.000 OA
ATOM     28  C   UNL     1       7.127   4.449  15.028  0.00  0.00    +0.000 C 
ENDBRANCH   7  27
TORSDOF 8
ENDMDL
MODEL 7
REMARK VINA RESULT:      -7.1      2.880      8.465
REMARK  Name = 
REMARK  12 active torsions:
REMARK  status: ('A' for Active; 'I' for Inactive)
REMARK    1  A    between atoms: C_1  and  C_2
REMARK    2  A    between atoms: C_2  and  O_3
REMARK    3  A    between atoms: O_3  and  C_4
REMARK    4  A    between atoms: C_4  and  C_6
REMARK    5  A    between atoms: C_8  and  C_9
REMARK    6  A    between atoms: C_9  and  C_11
REMARK    7  A    between atoms: C_14  and  O_15
REMARK    8  A    between atoms: O_15  and  C_16
REMARK    9  A    between atoms: C_17  and  O_18
REMARK   10  A    between atoms: O_18  and  C_19
REMARK   11  A    between atoms: C_24  and  O_25
REMARK   12  A    between atoms: O_25  and  C_26
REMARK                            x       y       z     vdW  Elec       q    Type
REMARK                         _______ _______ _______ _____ _____    ______ ____
ROOT
ATOM      1  C   UNL     1      -1.428  11.265  18.415  0.00  0.00    +0.000 A 
ATOM      2  C   UNL     1      -1.034  10.095  19.110  0.00  0.00    +0.000 A 
ATOM      3  C   UNL     1       0.166  10.325  19.772  0.00  0.00    +0.000 A 
ATOM      4  N   UNL     1       0.487  11.662  19.563  0.00  0.00    +0.000 N 
ATOM      5  C   UNL     1       1.569  12.412  20.036  0.00  0.00    +0.000 A 
ATOM      6  C   UNL     1       1.677  13.714  19.715  0.00  0.00    +0.000 A 
ATOM      7  C   UNL     1       0.662  14.340  18.880  0.00  0.00    +0.000 A 
ATOM      8  C   UNL     1      -0.361  13.603  18.402  0.00  0.00    +0.000 A 
ATOM      9  C   UNL     1      -0.480  12.224  18.730  0.00  0.00    +0.000 A 
ENDROOT
BRANCH   1  10
ATOM     10  C   UNL     1      -2.625  11.456  17.605  0.00  0.00    +0.000 C 
ATOM     11  O   UNL     1      -3.735  11.702  18.062  0.00  0.00    +0.000 OA
BRANCH  10  12
ATOM     12  O   UNL     1      -2.367  11.224  16.285  0.00  0.00    +0.000 OA
BRANCH  12  14
ATOM     13  C   UNL     1      -3.405  10.129  14.441  0.00  0.00    +0.000 C 
ATOM     14  C   UNL     1      -2.779   9.941  15.812  0.00  0.00    +0.000 C 
ENDBRANCH  12  14
ENDBRANCH  10  12
ENDBRANCH   1  10
BRANCH   3  15
ATOM     15  C   UNL     1       0.924   9.377  20.580  0.00  0.00    +0.000 C 
ATOM     16  O   UNL     1       1.008   9.440  21.804  0.00  0.00    +0.000 OA
BRANCH  15  17
ATOM     17  C   UNL     1       1.613   8.237  19.892  0.00  0.00    +0.000 A 
ATOM     18  C   UNL     1       2.114   8.412  18.603  0.00  0.00    +0.000 A 
ATOM     19  C   UNL     1       2.818   7.371  17.993  0.00  0.00    +0.000 A 
ATOM     20  C   UNL     1       3.042   6.150  18.654  0.00  0.00    +0.000 A 
ATOM     21  C   UNL     1       2.508   5.956  19.939  0.00  0.00    +0.000 A 
ATOM     22  C   UNL     1       1.773   6.996  20.530  0.00  0.00    +0.000 A 
BRANCH  20  23
ATOM     23  O   UNL     1       3.789   5.285  17.898  0.00  0.00    +0.000 OA
ATOM     24  C   UNL     1       3.167   4.130  17.355  0.00  0.00    +0.000 C 
ENDBRANCH  20  23
BRANCH  21  25
ATOM     25  O   UNL     1       2.727   4.760  20.570  0.00  0.00    +0.000 OA
ATOM     26  C   UNL     1       1.604   3.964  20.930  0.00  0.00    +0.000 C 
ENDBRANCH  21  25
ENDBRANCH  15  17
ENDBRANCH   3  15
BRANCH   7  27
ATOM     27  O   UNL     1       0.871  15.682  18.670  0.00  0.00    +0.000 OA
ATOM     28  C   UNL     1       1.004  16.497  19.833  0.00  0.00    +0.000 C 
ENDBRANCH   7  27
TORSDOF 8
ENDMDL
MODEL 8
REMARK VINA RESULT:      -7.0      1.450      3.768
REMARK  Name = 
REMARK  12 active torsions:
REMARK  status: ('A' for Active; 'I' for Inactive)
REMARK    1  A    between atoms: C_1  and  C_2
REMARK    2  A    between atoms: C_2  and  O_3
REMARK    3  A    between atoms: O_3  and  C_4
REMARK    4  A    between atoms: C_4  and  C_6
REMARK    5  A    between atoms: C_8  and  C_9
REMARK    6  A    between atoms: C_9  and  C_11
REMARK    7  A    between atoms: C_14  and  O_15
REMARK    8  A    between atoms: O_15  and  C_16
REMARK    9  A    between atoms: C_17  and  O_18
REMARK   10  A    between atoms: O_18  and  C_19
REMARK   11  A    between atoms: C_24  and  O_25
REMARK   12  A    between atoms: O_25  and  C_26
REMARK                            x       y       z     vdW  Elec       q    Type
REMARK                         _______ _______ _______ _____ _____    ______ ____
ROOT
ATOM      1  C   UNL     1       5.503   5.926  17.811  0.00  0.00    +0.000 A 
ATOM      2  C   UNL     1       4.985   7.244  17.876  0.00  0.00    +0.000 A 
ATOM      3  C   UNL     1       3.596   7.203  17.855  0.00  0.00    +0.000 A 
ATOM      4  N   UNL     1       3.236   5.859  17.861  0.00  0.00    +0.000 N 
ATOM      5  C   UNL     1       1.969   5.267  17.880  0.00  0.00    +0.000 A 
ATOM      6  C   UNL     1       1.852   3.928  17.895  0.00  0.00    +0.000 A 
ATOM      7  C   UNL     1       3.047   3.098  17.897  0.00  0.00    +0.000 A 
ATOM      8  C   UNL     1       4.265   3.674  17.847  0.00  0.00    +0.000 A 
ATOM      9  C   UNL     1       4.399   5.090  17.823  0.00  0.00    +0.000 A 
ENDROOT
BRANCH   1  10
ATOM     10  C   UNL     1       6.903   5.521  17.817  0.00  0.00    +0.000 C 
ATOM     11  O   UNL     1       7.535   5.238  18.827  0.00  0.00    +0.000 OA
BRANCH  10  12
ATOM     12  O   UNL     1       7.441   5.599  16.565  0.00  0.00    +0.000 OA
BRANCH  12  14
ATOM     13  C   UNL     1       6.826   4.905  14.370  0.00  0.00    +0.000 C 
ATOM     14  C   UNL     1       7.241   4.439  15.755  0.00  0.00    +0.000 C 
ENDBRANCH  12  14
ENDBRANCH  10  12
ENDBRANCH   1  10
BRANCH   3  15
ATOM     15  C   UNL     1       2.680   8.337  17.881  0.00  0.00    +0.000 C 
ATOM     16  O   UNL     1       2.598   9.167  16.980  0.00  0.00    +0.000 OA
BRANCH  15  17
ATOM     17  C   UNL     1       1.756   8.487  19.052  0.00  0.00    +0.000 A 
ATOM     18  C   UNL     1       1.890   7.636  20.149  0.00  0.00    +0.000 A 
ATOM     19  C   UNL     1       1.074   7.826  21.267  0.00  0.00    +0.000 A 
ATOM     20  C   UNL     1       0.124   8.861  21.317  0.00  0.00    +0.000 A 
ATOM     21  C   UNL     1      -0.039   9.698  20.200  0.00  0.00    +0.000 A 
ATOM     22  C   UNL     1       0.761   9.479  19.068  0.00  0.00    +0.000 A 
BRANCH  20  23
ATOM     23  O   UNL     1      -0.536   8.896  22.517  0.00  0.00    +0.000 OA
ATOM     24  C   UNL     1       0.017   9.648  23.587  0.00  0.00    +0.000 C 
ENDBRANCH  20  23
BRANCH  21  25
ATOM     25  O   UNL     1      -0.972  10.699  20.258  0.00  0.00    +0.000 OA
ATOM     26  C   UNL     1      -1.285  11.410  19.066  0.00  0.00    +0.000 C 
ENDBRANCH  21  25
ENDBRANCH  15  17
ENDBRANCH   3  15
BRANCH   7  27
ATOM     27  O   UNL     1       2.783   1.750  17.961  0.00  0.00    +0.000 OA
ATOM     28  C   UNL     1       3.665   0.964  18.760  0.00  0.00    +0.000 C 
ENDBRANCH   7  27
TORSDOF 8
ENDMDL
MODEL 9
REMARK VINA RESULT:      -7.0      1.633      2.718
REMARK  Name = 
REMARK  12 active torsions:
REMARK  status: ('A' for Active; 'I' for Inactive)
REMARK    1  A    between atoms: C_1  and  C_2
REMARK    2  A    between atoms: C_2  and  O_3
REMARK    3  A    between atoms: O_3  and  C_4
REMARK    4  A    between atoms: C_4  and  C_6
REMARK    5  A    between atoms: C_8  and  C_9
REMARK    6  A    between atoms: C_9  and  C_11
REMARK    7  A    between atoms: C_14  and  O_15
REMARK    8  A    between atoms: O_15  and  C_16
REMARK    9  A    between atoms: C_17  and  O_18
REMARK   10  A    between atoms: O_18  and  C_19
REMARK   11  A    between atoms: C_24  and  O_25
REMARK   12  A    between atoms: O_25  and  C_26
REMARK                            x       y       z     vdW  Elec       q    Type
REMARK                         _______ _______ _______ _____ _____    ______ ____
ROOT
ATOM      1  C   UNL     1       2.260   5.604  19.924  0.00  0.00    +0.000 A 
ATOM      2  C   UNL     1       1.558   6.815  19.701  0.00  0.00    +0.000 A 
ATOM      3  C   UNL     1       2.245   7.591  18.776  0.00  0.00    +0.000 A 
ATOM      4  N   UNL     1       3.335   6.837  18.353  0.00  0.00    +0.000 N 
ATOM      5  C   UNL     1       4.323   7.135  17.409  0.00  0.00    +0.000 A 
ATOM      6  C   UNL     1       5.292   6.241  17.143  0.00  0.00    +0.000 A 
ATOM      7  C   UNL     1       5.305   4.962  17.838  0.00  0.00    +0.000 A 
ATOM      8  C   UNL     1       4.369   4.694  18.770  0.00  0.00    +0.000 A 
ATOM      9  C   UNL     1       3.344   5.636  19.062  0.00  0.00    +0.000 A 
ENDROOT
BRANCH   1  10
ATOM     10  C   UNL     1       1.883   4.509  20.809  0.00  0.00    +0.000 C 
ATOM     11  O   UNL     1       2.545   4.140  21.771  0.00  0.00    +0.000 OA
BRANCH  10  12
ATOM     12  O   UNL     1       0.751   3.888  20.367  0.00  0.00    +0.000 OA
BRANCH  12  14
ATOM     13  C   UNL     1       1.763   1.976  19.369  0.00  0.00    +0.000 C 
ATOM     14  C   UNL     1       0.894   3.197  19.125  0.00  0.00    +0.000 C 
ENDBRANCH  12  14
ENDBRANCH  10  12
ENDBRANCH   1  10
BRANCH   3  15
ATOM     15  C   UNL     1       1.877   8.915  18.288  0.00  0.00    +0.000 C 
ATOM     16  O   UNL     1       2.278   9.386  17.227  0.00  0.00    +0.000 OA
BRANCH  15  17
ATOM     17  C   UNL     1       0.928   9.742  19.103  0.00  0.00    +0.000 A 
ATOM     18  C   UNL     1      -0.161  10.353  18.483  0.00  0.00    +0.000 A 
ATOM     19  C   UNL     1      -1.082  11.063  19.258  0.00  0.00    +0.000 A 
ATOM     20  C   UNL     1      -0.941  11.170  20.652  0.00  0.00    +0.000 A 
ATOM     21  C   UNL     1       0.174  10.585  21.277  0.00  0.00    +0.000 A 
ATOM     22  C   UNL     1       1.112   9.903  20.486  0.00  0.00    +0.000 A 
BRANCH  20  23
ATOM     23  O   UNL     1      -1.972  11.869  21.222  0.00  0.00    +0.000 OA
ATOM     24  C   UNL     1      -2.768  12.713  20.403  0.00  0.00    +0.000 C 
ENDBRANCH  20  23
BRANCH  21  25
ATOM     25  O   UNL     1       0.303  10.701  22.636  0.00  0.00    +0.000 OA
ATOM     26  C   UNL     1      -0.224   9.669  23.462  0.00  0.00    +0.000 C 
ENDBRANCH  21  25
ENDBRANCH  15  17
ENDBRANCH   3  15
BRANCH   7  27
ATOM     27  O   UNL     1       6.321   4.127  17.437  0.00  0.00    +0.000 OA
ATOM     28  C   UNL     1       7.129   4.579  16.352  0.00  0.00    +0.000 C 
ENDBRANCH   7  27
TORSDOF 8
ENDMDL
