MODEL 1
REMARK VINA RESULT:      -6.6      0.000      0.000
REMARK  Name = 
REMARK  5 active torsions:
REMARK  status: ('A' for Active; 'I' for Inactive)
REMARK    1  A    between atoms: C_1  and  C_2
REMARK    2  A    between atoms: C_2  and  C_3
REMARK    3  A    between atoms: C_3  and  O_4
REMARK    4  A    between atoms: C_3  and  C_5
REMARK    5  A    between atoms: C_13  and  C_15
REMARK                            x       y       z     vdW  Elec       q    Type
REMARK                         _______ _______ _______ _____ _____    ______ ____
ROOT
ATOM      1  C   UNL     1       3.823   4.989  18.730  0.00  0.00    +0.000 A 
ATOM      2  C   UNL     1       3.119   5.410  19.883  0.00  0.00    +0.000 A 
ATOM      3  C   UNL     1       2.585   6.639  19.553  0.00  0.00    +0.000 A 
ATOM      4  N   UNL     1       2.976   6.866  18.271  0.00  0.00    +0.000 N 
ATOM      5  N   UNL     1       3.747   5.900  17.747  0.00  0.00    +0.000 NA
ATOM      6  C   UNL     1       2.518   7.965  17.458  0.00  0.00    +0.000 C 
ATOM      7  C   UNL     1       2.060   9.120  18.320  0.00  0.00    +0.000 C 
ATOM      8  N   UNL     1       1.376   8.804  19.589  0.00  0.00    +0.000 N 
ATOM      9  C   UNL     1       0.657   9.737  20.365  0.00  0.00    +0.000 C 
ATOM     10  O   UNL     1       0.181   9.421  21.458  0.00  0.00    +0.000 OA
ATOM     11  C   UNL     1       1.730   7.581  20.313  0.00  0.00    +0.000 C 
ENDROOT
BRANCH   9  12
ATOM     12  C   UNL     1       0.502  11.155  19.940  0.00  0.00    +0.000 A 
ATOM     13  C   UNL     1       1.233  12.152  20.599  0.00  0.00    +0.000 A 
ATOM     14  C   UNL     1       1.123  13.464  20.178  0.00  0.00    +0.000 A 
ATOM     15  N   UNL     1       0.275  13.863  19.217  0.00  0.00    +0.000 NA
ATOM     16  C   UNL     1      -0.511  12.908  18.671  0.00  0.00    +0.000 A 
ATOM     17  C   UNL     1      -0.435  11.550  18.982  0.00  0.00    +0.000 A 
ATOM     18 CL   UNL     1      -1.513  10.482  18.166  0.00  0.00    +0.000 Cl
ENDBRANCH   9  12
BRANCH   1  19
ATOM     19  C   UNL     1       4.508   3.676  18.475  0.00  0.00    +0.000 C 
BRANCH  19  21
ATOM     20  C   UNL     1       2.468   2.329  17.720  0.00  0.00    +0.000 C 
ATOM     21  C   UNL     1       3.620   2.449  18.703  0.00  0.00    +0.000 C 
ENDBRANCH  19  21
BRANCH  19  22
ATOM     22  O   UNL     1       5.639   3.542  19.349  0.00  0.00    +0.000 OA
ATOM     23  H   UNL     1       5.526   2.652  19.737  0.00  0.00    +0.000 HD
ENDBRANCH  19  22
ENDBRANCH   1  19
TORSDOF 4
ENDMDL
MODEL 2
REMARK VINA RESULT:      -6.4      1.112      1.300
REMARK  Name = 
REMARK  5 active torsions:
REMARK  status: ('A' for Active; 'I' for Inactive)
REMARK    1  A    between atoms: C_1  and  C_2
REMARK    2  A    between atoms: C_2  and  C_3
REMARK    3  A    between atoms: C_3  and  O_4
REMARK    4  A    between atoms: C_3  and  C_5
REMARK    5  A    between atoms: C_13  and  C_15
REMARK                            x       y       z     vdW  Elec       q    Type
REMARK                         _______ _______ _______ _____ _____    ______ ____
ROOT
ATOM      1  C   UNL     1       4.293   5.540  18.461  0.00  0.00    +0.000 A 
ATOM      2  C   UNL     1       3.504   5.671  19.629  0.00  0.00    +0.000 A 
ATOM      3  C   UNL     1       2.763   6.820  19.438  0.00  0.00    +0.000 A 
ATOM      4  N   UNL     1       3.128   7.282  18.213  0.00  0.00    +0.000 N 
ATOM      5  N   UNL     1       4.070   6.547  17.601  0.00  0.00    +0.000 NA
ATOM      6  C   UNL     1       2.494   8.381  17.530  0.00  0.00    +0.000 C 
ATOM      7  C   UNL     1       1.820   9.312  18.515  0.00  0.00    +0.000 C 
ATOM      8  N   UNL     1       1.182   8.712  19.702  0.00  0.00    +0.000 N 
ATOM      9  C   UNL     1       0.293   9.391  20.562  0.00  0.00    +0.000 C 
ATOM     10  O   UNL     1      -0.137   8.852  21.584  0.00  0.00    +0.000 OA
ATOM     11  C   UNL     1       1.739   7.486  20.278  0.00  0.00    +0.000 C 
ENDROOT
BRANCH   9  12
ATOM     12  C   UNL     1      -0.108  10.803  20.317  0.00  0.00    +0.000 A 
ATOM     13  C   UNL     1       0.393  11.813  21.149  0.00  0.00    +0.000 A 
ATOM     14  C   UNL     1       0.056  13.129  20.898  0.00  0.00    +0.000 A 
ATOM     15  N   UNL     1      -0.809  13.501  19.942  0.00  0.00    +0.000 NA
ATOM     16  C   UNL     1      -1.377  12.507  19.223  0.00  0.00    +0.000 A 
ATOM     17  C   UNL     1      -1.060  11.155  19.357  0.00  0.00    +0.000 A 
ATOM     18 CL   UNL     1      -1.881  10.036  18.336  0.00  0.00    +0.000 Cl
ENDBRANCH   9  12
BRANCH   1  19
ATOM     19  C   UNL     1       5.208   4.415  18.068  0.00  0.00    +0.000 C 
BRANCH  19  21
ATOM     20  C   UNL     1       5.801   4.001  15.614  0.00  0.00    +0.000 C 
ATOM     21  C   UNL     1       4.831   3.729  16.751  0.00  0.00    +0.000 C 
ENDBRANCH  19  21
BRANCH  19  22
ATOM     22  O   UNL     1       5.196   3.402  19.086  0.00  0.00    +0.000 OA
ATOM     23  H   UNL     1       5.247   3.913  19.919  0.00  0.00    +0.000 HD
ENDBRANCH  19  22
ENDBRANCH   1  19
TORSDOF 4
ENDMDL
MODEL 3
REMARK VINA RESULT:      -6.4      1.600      1.953
REMARK  Name = 
REMARK  5 active torsions:
REMARK  status: ('A' for Active; 'I' for Inactive)
REMARK    1  A    between atoms: C_1  and  C_2
REMARK    2  A    between atoms: C_2  and  C_3
REMARK    3  A    between atoms: C_3  and  O_4
REMARK    4  A    between atoms: C_3  and  C_5
REMARK    5  A    between atoms: C_13  and  C_15
REMARK                            x       y       z     vdW  Elec       q    Type
REMARK                         _______ _______ _______ _____ _____    ______ ____
ROOT
ATOM      1  C   UNL     1       3.487   4.341  18.682  0.00  0.00    +0.000 A 
ATOM      2  C   UNL     1       3.507   5.402  17.746  0.00  0.00    +0.000 A 
ATOM      3  C   UNL     1       2.888   6.459  18.383  0.00  0.00    +0.000 A 
ATOM      4  N   UNL     1       2.559   5.990  19.616  0.00  0.00    +0.000 N 
ATOM      5  N   UNL     1       2.883   4.705  19.825  0.00  0.00    +0.000 NA
ATOM      6  C   UNL     1       2.030   6.799  20.684  0.00  0.00    +0.000 C 
ATOM      7  C   UNL     1       1.341   8.031  20.139  0.00  0.00    +0.000 C 
ATOM      8  N   UNL     1       1.921   8.672  18.944  0.00  0.00    +0.000 N 
ATOM      9  C   UNL     1       1.573   9.957  18.475  0.00  0.00    +0.000 C 
ATOM     10  O   UNL     1       2.038  10.396  17.421  0.00  0.00    +0.000 OA
ATOM     11  C   UNL     1       2.617   7.850  17.951  0.00  0.00    +0.000 C 
ENDROOT
BRANCH   9  12
ATOM     12  C   UNL     1       0.580  10.807  19.188  0.00  0.00    +0.000 A 
ATOM     13  C   UNL     1       0.978  11.511  20.332  0.00  0.00    +0.000 A 
ATOM     14  C   UNL     1       0.070  12.334  20.972  0.00  0.00    +0.000 A 
ATOM     15  N   UNL     1      -1.218  12.436  20.609  0.00  0.00    +0.000 NA
ATOM     16  C   UNL     1      -1.617  11.661  19.576  0.00  0.00    +0.000 A 
ATOM     17  C   UNL     1      -0.769  10.843  18.828  0.00  0.00    +0.000 A 
ATOM     18 CL   UNL     1      -1.464   9.942  17.535  0.00  0.00    +0.000 Cl
ENDBRANCH   9  12
BRANCH   1  19
ATOM     19  C   UNL     1       4.119   2.982  18.575  0.00  0.00    +0.000 C 
BRANCH  19  21
ATOM     20  C   UNL     1       1.700   2.202  18.290  0.00  0.00    +0.000 C 
ATOM     21  C   UNL     1       3.125   1.819  18.648  0.00  0.00    +0.000 C 
ENDBRANCH  19  21
BRANCH  19  22
ATOM     22  O   UNL     1       5.058   2.798  19.645  0.00  0.00    +0.000 OA
ATOM     23  H   UNL     1       5.799   2.321  19.222  0.00  0.00    +0.000 HD
ENDBRANCH  19  22
ENDBRANCH   1  19
TORSDOF 4
ENDMDL
MODEL 4
REMARK VINA RESULT:      -6.3      3.074      7.749
REMARK  Name = 
REMARK  5 active torsions:
REMARK  status: ('A' for Active; 'I' for Inactive)
REMARK    1  A    between atoms: C_1  and  C_2
REMARK    2  A    between atoms: C_2  and  C_3
REMARK    3  A    between atoms: C_3  and  O_4
REMARK    4  A    between atoms: C_3  and  C_5
REMARK    5  A    between atoms: C_13  and  C_15
REMARK                            x       y       z     vdW  Elec       q    Type
REMARK                         _______ _______ _______ _____ _____    ______ ____
ROOT
ATOM      1  C   UNL     1       0.595   8.470  20.688  0.00  0.00    +0.000 A 
ATOM      2  C   UNL     1       1.242   7.252  21.006  0.00  0.00    +0.000 A 
ATOM      3  C   UNL     1       2.168   7.060  20.001  0.00  0.00    +0.000 A 
ATOM      4  N   UNL     1       2.034   8.136  19.181  0.00  0.00    +0.000 N 
ATOM      5  N   UNL     1       1.075   9.000  19.551  0.00  0.00    +0.000 NA
ATOM      6  C   UNL     1       2.910   8.438  18.077  0.00  0.00    +0.000 C 
ATOM      7  C   UNL     1       3.590   7.185  17.569  0.00  0.00    +0.000 C 
ATOM      8  N   UNL     1       3.974   6.161  18.559  0.00  0.00    +0.000 N 
ATOM      9  C   UNL     1       4.841   5.079  18.296  0.00  0.00    +0.000 C 
ATOM     10  O   UNL     1       5.052   4.214  19.149  0.00  0.00    +0.000 OA
ATOM     11  C   UNL     1       3.168   5.991  19.770  0.00  0.00    +0.000 C 
ENDROOT
BRANCH   9  12
ATOM     12  C   UNL     1       5.482   4.895  16.965  0.00  0.00    +0.000 A 
ATOM     13  C   UNL     1       4.928   3.979  16.060  0.00  0.00    +0.000 A 
ATOM     14  C   UNL     1       5.496   3.837  14.808  0.00  0.00    +0.000 A 
ATOM     15  N   UNL     1       6.618   4.467  14.429  0.00  0.00    +0.000 NA
ATOM     16  C   UNL     1       7.208   5.257  15.354  0.00  0.00    +0.000 A 
ATOM     17  C   UNL     1       6.685   5.514  16.622  0.00  0.00    +0.000 A 
ATOM     18 CL   UNL     1       7.577   6.564  17.656  0.00  0.00    +0.000 Cl
ENDBRANCH   9  12
BRANCH   1  19
ATOM     19  C   UNL     1      -0.425   9.229  21.489  0.00  0.00    +0.000 C 
BRANCH  19  21
ATOM     20  C   UNL     1      -0.967  11.344  22.823  0.00  0.00    +0.000 C 
ATOM     21  C   UNL     1       0.057  10.595  21.988  0.00  0.00    +0.000 C 
ENDBRANCH  19  21
BRANCH  19  22
ATOM     22  O   UNL     1      -0.795   8.467  22.648  0.00  0.00    +0.000 OA
ATOM     23  H   UNL     1      -1.741   8.682  22.773  0.00  0.00    +0.000 HD
ENDBRANCH  19  22
ENDBRANCH   1  19
TORSDOF 4
ENDMDL
MODEL 5
REMARK VINA RESULT:      -6.3      2.655      7.766
REMARK  Name = 
REMARK  5 active torsions:
REMARK  status: ('A' for Active; 'I' for Inactive)
REMARK    1  A    between atoms: C_1  and  C_2
REMARK    2  A    between atoms: C_2  and  C_3
REMARK    3  A    between atoms: C_3  and  O_4
REMARK    4  A    between atoms: C_3  and  C_5
REMARK    5  A    between atoms: C_13  and  C_15
REMARK                            x       y       z     vdW  Elec       q    Type
REMARK                         _______ _______ _______ _____ _____    ______ ____
ROOT
ATOM      1  C   UNL     1       0.556  10.988  19.713  0.00  0.00    +0.000 A 
ATOM      2  C   UNL     1       0.556   9.984  20.711  0.00  0.00    +0.000 A 
ATOM      3  C   UNL     1       1.188   8.901  20.135  0.00  0.00    +0.000 A 
ATOM      4  N   UNL     1       1.526   9.309  18.883  0.00  0.00    +0.000 N 
ATOM      5  N   UNL     1       1.139  10.558  18.582  0.00  0.00    +0.000 NA
ATOM      6  C   UNL     1       2.346   8.552  17.969  0.00  0.00    +0.000 C 
ATOM      7  C   UNL     1       2.290   7.075  18.290  0.00  0.00    +0.000 C 
ATOM      8  N   UNL     1       2.209   6.681  19.710  0.00  0.00    +0.000 N 
ATOM      9  C   UNL     1       2.420   5.372  20.191  0.00  0.00    +0.000 C 
ATOM     10  O   UNL     1       2.254   5.099  21.382  0.00  0.00    +0.000 OA
ATOM     11  C   UNL     1       1.523   7.557  20.663  0.00  0.00    +0.000 C 
ENDROOT
BRANCH   9  12
ATOM     12  C   UNL     1       2.780   4.252  19.279  0.00  0.00    +0.000 A 
ATOM     13  C   UNL     1       1.805   3.305  18.938  0.00  0.00    +0.000 A 
ATOM     14  C   UNL     1       2.126   2.288  18.059  0.00  0.00    +0.000 A 
ATOM     15  N   UNL     1       3.361   2.095  17.571  0.00  0.00    +0.000 NA
ATOM     16  C   UNL     1       4.319   2.945  18.001  0.00  0.00    +0.000 A 
ATOM     17  C   UNL     1       4.088   4.037  18.838  0.00  0.00    +0.000 A 
ATOM     18 CL   UNL     1       5.439   5.018  19.264  0.00  0.00    +0.000 Cl
ENDBRANCH   9  12
BRANCH   1  19
ATOM     19  C   UNL     1       0.100  12.416  19.818  0.00  0.00    +0.000 C 
BRANCH  19  21
ATOM     20  C   UNL     1      -2.233  11.855  18.930  0.00  0.00    +0.000 C 
ATOM     21  C   UNL     1      -1.034  12.785  18.857  0.00  0.00    +0.000 C 
ENDBRANCH  19  21
BRANCH  19  22
ATOM     22  O   UNL     1       1.196  13.297  19.531  0.00  0.00    +0.000 OA
ATOM     23  H   UNL     1       1.927  12.941  20.074  0.00  0.00    +0.000 HD
ENDBRANCH  19  22
ENDBRANCH   1  19
TORSDOF 4
ENDMDL
MODEL 6
REMARK VINA RESULT:      -6.2      1.864      2.230
REMARK  Name = 
REMARK  5 active torsions:
REMARK  status: ('A' for Active; 'I' for Inactive)
REMARK    1  A    between atoms: C_1  and  C_2
REMARK    2  A    between atoms: C_2  and  C_3
REMARK    3  A    between atoms: C_3  and  O_4
REMARK    4  A    between atoms: C_3  and  C_5
REMARK    5  A    between atoms: C_13  and  C_15
REMARK                            x       y       z     vdW  Elec       q    Type
REMARK                         _______ _______ _______ _____ _____    ______ ____
ROOT
ATOM      1  C   UNL     1       2.536   4.509  19.988  0.00  0.00    +0.000 A 
ATOM      2  C   UNL     1       2.782   5.310  18.847  0.00  0.00    +0.000 A 
ATOM      3  C   UNL     1       2.314   6.565  19.177  0.00  0.00    +0.000 A 
ATOM      4  N   UNL     1       1.846   6.449  20.448  0.00  0.00    +0.000 N 
ATOM      5  N   UNL     1       1.941   5.214  20.964  0.00  0.00    +0.000 NA
ATOM      6  C   UNL     1       1.403   7.554  21.260  0.00  0.00    +0.000 C 
ATOM      7  C   UNL     1       0.957   8.715  20.398  0.00  0.00    +0.000 C 
ATOM      8  N   UNL     1       1.699   8.967  19.148  0.00  0.00    +0.000 N 
ATOM      9  C   UNL     1       1.594  10.146  18.379  0.00  0.00    +0.000 C 
ATOM     10  O   UNL     1       2.181  10.254  17.300  0.00  0.00    +0.000 OA
ATOM     11  C   UNL     1       2.301   7.843  18.427  0.00  0.00    +0.000 C 
ENDROOT
BRANCH   9  12
ATOM     12  C   UNL     1       0.720  11.277  18.795  0.00  0.00    +0.000 A 
ATOM     13  C   UNL     1       1.258  12.305  19.580  0.00  0.00    +0.000 A 
ATOM     14  C   UNL     1       0.460  13.377  19.933  0.00  0.00    +0.000 A 
ATOM     15  N   UNL     1      -0.847  13.454  19.639  0.00  0.00    +0.000 NA
ATOM     16  C   UNL     1      -1.381  12.399  18.983  0.00  0.00    +0.000 A 
ATOM     17  C   UNL     1      -0.651  11.299  18.531  0.00  0.00    +0.000 A 
ATOM     18 CL   UNL     1      -1.510  10.059  17.698  0.00  0.00    +0.000 Cl
ENDBRANCH   9  12
BRANCH   1  19
ATOM     19  C   UNL     1       2.939   3.084  20.239  0.00  0.00    +0.000 C 
BRANCH  19  21
ATOM     20  C   UNL     1       3.450   1.690  18.155  0.00  0.00    +0.000 C 
ATOM     21  C   UNL     1       2.418   2.090  19.195  0.00  0.00    +0.000 C 
ENDBRANCH  19  21
BRANCH  19  22
ATOM     22  O   UNL     1       2.435   2.655  21.513  0.00  0.00    +0.000 OA
ATOM     23  H   UNL     1       2.419   1.680  21.439  0.00  0.00    +0.000 HD
ENDBRANCH  19  22
ENDBRANCH   1  19
TORSDOF 4
ENDMDL
MODEL 7
REMARK VINA RESULT:      -6.2      2.597      7.677
REMARK  Name = 
REMARK  5 active torsions:
REMARK  status: ('A' for Active; 'I' for Inactive)
REMARK    1  A    between atoms: C_1  and  C_2
REMARK    2  A    between atoms: C_2  and  C_3
REMARK    3  A    between atoms: C_3  and  O_4
REMARK    4  A    between atoms: C_3  and  C_5
REMARK    5  A    between atoms: C_13  and  C_15
REMARK                            x       y       z     vdW  Elec       q    Type
REMARK                         _______ _______ _______ _____ _____    ______ ____
ROOT
ATOM      1  C   UNL     1      -0.363  11.279  19.978  0.00  0.00    +0.000 A 
ATOM      2  C   UNL     1      -0.132  10.131  20.772  0.00  0.00    +0.000 A 
ATOM      3  C   UNL     1       0.755   9.361  20.047  0.00  0.00    +0.000 A 
ATOM      4  N   UNL     1       1.002  10.071  18.914  0.00  0.00    +0.000 N 
ATOM      5  N   UNL     1       0.324  11.227  18.825  0.00  0.00    +0.000 NA
ATOM      6  C   UNL     1       1.995   9.723  17.930  0.00  0.00    +0.000 C 
ATOM      7  C   UNL     1       2.299   8.241  17.970  0.00  0.00    +0.000 C 
ATOM      8  N   UNL     1       2.295   7.573  19.286  0.00  0.00    +0.000 N 
ATOM      9  C   UNL     1       2.814   6.284  19.530  0.00  0.00    +0.000 C 
ATOM     10  O   UNL     1       2.702   5.754  20.638  0.00  0.00    +0.000 OA
ATOM     11  C   UNL     1       1.402   8.060  20.339  0.00  0.00    +0.000 C 
ENDROOT
BRANCH   9  12
ATOM     12  C   UNL     1       3.451   5.479  18.453  0.00  0.00    +0.000 A 
ATOM     13  C   UNL     1       4.687   5.888  17.932  0.00  0.00    +0.000 A 
ATOM     14  C   UNL     1       5.301   5.120  16.961  0.00  0.00    +0.000 A 
ATOM     15  N   UNL     1       4.737   4.034  16.412  0.00  0.00    +0.000 NA
ATOM     16  C   UNL     1       3.494   3.718  16.838  0.00  0.00    +0.000 A 
ATOM     17  C   UNL     1       2.813   4.391  17.854  0.00  0.00    +0.000 A 
ATOM     18 CL   UNL     1       1.239   3.827  18.270  0.00  0.00    +0.000 Cl
ENDBRANCH   9  12
BRANCH   1  19
ATOM     19  C   UNL     1      -1.157  12.510  20.315  0.00  0.00    +0.000 C 
BRANCH  19  21
ATOM     20  C   UNL     1      -1.361  12.922  22.832  0.00  0.00    +0.000 C 
ATOM     21  C   UNL     1      -2.018  12.376  21.575  0.00  0.00    +0.000 C 
ENDBRANCH  19  21
BRANCH  19  22
ATOM     22  O   UNL     1      -2.045  12.825  19.232  0.00  0.00    +0.000 OA
ATOM     23  H   UNL     1      -1.623  12.402  18.458  0.00  0.00    +0.000 HD
ENDBRANCH  19  22
ENDBRANCH   1  19
TORSDOF 4
ENDMDL
MODEL 8
REMARK VINA RESULT:      -6.2      2.592      7.838
REMARK  Name = 
REMARK  5 active torsions:
REMARK  status: ('A' for Active; 'I' for Inactive)
REMARK    1  A    between atoms: C_1  and  C_2
REMARK    2  A    between atoms: C_2  and  C_3
REMARK    3  A    between atoms: C_3  and  O_4
REMARK    4  A    between atoms: C_3  and  C_5
REMARK    5  A    between atoms: C_13  and  C_15
REMARK                            x       y       z     vdW  Elec       q    Type
REMARK                         _______ _______ _______ _____ _____    ______ ____
ROOT
ATOM      1  C   UNL     1       0.480  11.194  19.708  0.00  0.00    +0.000 A 
ATOM      2  C   UNL     1       0.479  10.181  20.696  0.00  0.00    +0.000 A 
ATOM      3  C   UNL     1       1.120   9.106  20.115  0.00  0.00    +0.000 A 
ATOM      4  N   UNL     1       1.463   9.526  18.869  0.00  0.00    +0.000 N 
ATOM      5  N   UNL     1       1.072  10.776  18.577  0.00  0.00    +0.000 NA
ATOM      6  C   UNL     1       2.292   8.781  17.954  0.00  0.00    +0.000 C 
ATOM      7  C   UNL     1       2.242   7.301  18.262  0.00  0.00    +0.000 C 
ATOM      8  N   UNL     1       2.154   6.895  19.678  0.00  0.00    +0.000 N 
ATOM      9  C   UNL     1       2.368   5.582  20.149  0.00  0.00    +0.000 C 
ATOM     10  O   UNL     1       2.196   5.298  21.336  0.00  0.00    +0.000 OA
ATOM     11  C   UNL     1       1.458   7.759  20.634  0.00  0.00    +0.000 C 
ENDROOT
BRANCH   9  12
ATOM     12  C   UNL     1       2.739   4.472  19.230  0.00  0.00    +0.000 A 
ATOM     13  C   UNL     1       1.761   3.545  18.845  0.00  0.00    +0.000 A 
ATOM     14  C   UNL     1       2.093   2.537  17.960  0.00  0.00    +0.000 A 
ATOM     15  N   UNL     1       3.339   2.334  17.505  0.00  0.00    +0.000 NA
ATOM     16  C   UNL     1       4.297   3.164  17.977  0.00  0.00    +0.000 A 
ATOM     17  C   UNL     1       4.056   4.245  18.825  0.00  0.00    +0.000 A 
ATOM     18 CL   UNL     1       5.408   5.199  19.305  0.00  0.00    +0.000 Cl
ENDBRANCH   9  12
BRANCH   1  19
ATOM     19  C   UNL     1       0.016  12.618  19.822  0.00  0.00    +0.000 C 
BRANCH  19  21
ATOM     20  C   UNL     1       1.588  14.376  18.828  0.00  0.00    +0.000 C 
ATOM     21  C   UNL     1       0.370  13.493  18.615  0.00  0.00    +0.000 C 
ENDBRANCH  19  21
BRANCH  19  22
ATOM     22  O   UNL     1       0.615  13.232  20.973  0.00  0.00    +0.000 OA
ATOM     23  H   UNL     1       1.376  12.651  21.174  0.00  0.00    +0.000 HD
ENDBRANCH  19  22
ENDBRANCH   1  19
TORSDOF 4
ENDMDL
MODEL 9
REMARK VINA RESULT:      -6.1      2.570      7.619
REMARK  Name = 
REMARK  5 active torsions:
REMARK  status: ('A' for Active; 'I' for Inactive)
REMARK    1  A    between atoms: C_1  and  C_2
REMARK    2  A    between atoms: C_2  and  C_3
REMARK    3  A    between atoms: C_3  and  O_4
REMARK    4  A    between atoms: C_3  and  C_5
REMARK    5  A    between atoms: C_13  and  C_15
REMARK                            x       y       z     vdW  Elec       q    Type
REMARK                         _______ _______ _______ _____ _____    ______ ____
ROOT
ATOM      1  C   UNL     1      -0.362  11.417  19.797  0.00  0.00    +0.000 A 
ATOM      2  C   UNL     1      -0.192  10.278  20.620  0.00  0.00    +0.000 A 
ATOM      3  C   UNL     1       0.713   9.479  19.952  0.00  0.00    +0.000 A 
ATOM      4  N   UNL     1       1.027  10.164  18.820  0.00  0.00    +0.000 N 
ATOM      5  N   UNL     1       0.378  11.330  18.679  0.00  0.00    +0.000 NA
ATOM      6  C   UNL     1       2.060   9.779  17.891  0.00  0.00    +0.000 C 
ATOM      7  C   UNL     1       2.332   8.293  17.970  0.00  0.00    +0.000 C 
ATOM      8  N   UNL     1       2.252   7.649  19.295  0.00  0.00    +0.000 N 
ATOM      9  C   UNL     1       2.732   6.354  19.586  0.00  0.00    +0.000 C 
ATOM     10  O   UNL     1       2.557   5.847  20.696  0.00  0.00    +0.000 OA
ATOM     11  C   UNL     1       1.319   8.171  20.296  0.00  0.00    +0.000 C 
ENDROOT
BRANCH   9  12
ATOM     12  C   UNL     1       3.405   5.518  18.553  0.00  0.00    +0.000 A 
ATOM     13  C   UNL     1       4.660   5.908  18.068  0.00  0.00    +0.000 A 
ATOM     14  C   UNL     1       5.305   5.112  17.141  0.00  0.00    +0.000 A 
ATOM     15  N   UNL     1       4.756   4.014  16.600  0.00  0.00    +0.000 NA
ATOM     16  C   UNL     1       3.496   3.715  16.989  0.00  0.00    +0.000 A 
ATOM     17  C   UNL     1       2.783   4.418  17.960  0.00  0.00    +0.000 A 
ATOM     18 CL   UNL     1       1.192   3.872  18.333  0.00  0.00    +0.000 Cl
ENDBRANCH   9  12
BRANCH   1  19
ATOM     19  C   UNL     1      -1.146  12.668  20.075  0.00  0.00    +0.000 C 
BRANCH  19  21
ATOM     20  C   UNL     1      -3.470  12.073  19.184  0.00  0.00    +0.000 C 
ATOM     21  C   UNL     1      -2.624  12.424  20.396  0.00  0.00    +0.000 C 
ENDBRANCH  19  21
BRANCH  19  22
ATOM     22  O   UNL     1      -1.104  13.531  18.928  0.00  0.00    +0.000 OA
ATOM     23  H   UNL     1      -2.019  13.869  18.861  0.00  0.00    +0.000 HD
ENDBRANCH  19  22
ENDBRANCH   1  19
TORSDOF 4
ENDMDL
