MODEL 1
REMARK VINA RESULT:      -8.6      0.000      0.000
REMARK  Name = 
REMARK  3 active torsions:
REMARK  status: ('A' for Active; 'I' for Inactive)
REMARK    1  A    between atoms: C_5  and  C_6
REMARK    2  A    between atoms: C_9  and  C_10
REMARK    3  A    between atoms: N_18  and  C_19
REMARK                            x       y       z     vdW  Elec       q    Type
REMARK                         _______ _______ _______ _____ _____    ______ ____
ROOT
ATOM      1  N   UNL     1       6.109   3.626  16.283  0.00  0.00    +0.000 N 
ATOM      2  C   UNL     1       4.960   3.978  16.868  0.00  0.00    +0.000 A 
ATOM      3  N   UNL     1       3.855   3.286  16.770  0.00  0.00    +0.000 NA
ATOM      4  C   UNL     1       2.912   4.006  17.440  0.00  0.00    +0.000 A 
ATOM      5  C   UNL     1       3.428   5.178  17.965  0.00  0.00    +0.000 A 
ATOM      6  N   UNL     1       4.786   5.109  17.643  0.00  0.00    +0.000 N 
ATOM      7  H   UNL     1       6.134   2.724  15.819  0.00  0.00    +0.000 HD
ATOM      8  H   UNL     1       7.000   4.081  16.400  0.00  0.00    +0.000 HD
ENDROOT
BRANCH   5   9
ATOM      9  C   UNL     1       2.732   6.224  18.726  0.00  0.00    +0.000 A 
ATOM     10  C   UNL     1       2.271   5.960  20.019  0.00  0.00    +0.000 A 
ATOM     11  C   UNL     1       1.603   6.944  20.762  0.00  0.00    +0.000 A 
ATOM     12  C   UNL     1       1.400   8.238  20.257  0.00  0.00    +0.000 A 
ATOM     13  C   UNL     1       1.859   8.487  18.955  0.00  0.00    +0.000 A 
ATOM     14  C   UNL     1       2.472   7.487  18.189  0.00  0.00    +0.000 A 
BRANCH  12  15
ATOM     15  C   UNL     1       0.708   9.284  21.047  0.00  0.00    +0.000 A 
ATOM     16  C   UNL     1       0.223   9.033  22.344  0.00  0.00    +0.000 A 
ATOM     17  C   UNL     1      -0.458  10.010  23.076  0.00  0.00    +0.000 A 
ATOM     18  C   UNL     1      -0.657  11.274  22.533  0.00  0.00    +0.000 A 
ATOM     19  C   UNL     1      -0.174  11.559  21.259  0.00  0.00    +0.000 A 
ATOM     20  C   UNL     1       0.494  10.576  20.528  0.00  0.00    +0.000 A 
ENDBRANCH  12  15
ENDBRANCH   5   9
BRANCH   6  21
ATOM     21  C   UNL     1       5.807   6.037  18.076  0.00  0.00    +0.000 C 
ATOM     22  C   UNL     1       7.066   5.461  18.721  0.00  0.00    +0.000 C 
ATOM     23  C   UNL     1       7.993   6.672  18.782  0.00  0.00    +0.000 C 
ATOM     24  C   UNL     1       7.619   7.560  17.591  0.00  0.00    +0.000 C 
ATOM     25  C   UNL     1       6.348   6.965  16.986  0.00  0.00    +0.000 C 
ENDBRANCH   6  21
TORSDOF 3
ENDMDL
MODEL 2
REMARK VINA RESULT:      -8.6      0.195      1.421
REMARK  Name = 
REMARK  3 active torsions:
REMARK  status: ('A' for Active; 'I' for Inactive)
REMARK    1  A    between atoms: C_5  and  C_6
REMARK    2  A    between atoms: C_9  and  C_10
REMARK    3  A    between atoms: N_18  and  C_19
REMARK                            x       y       z     vdW  Elec       q    Type
REMARK                         _______ _______ _______ _____ _____    ______ ____
ROOT
ATOM      1  N   UNL     1       5.872   3.551  16.316  0.00  0.00    +0.000 N 
ATOM      2  C   UNL     1       4.745   3.930  16.927  0.00  0.00    +0.000 A 
ATOM      3  N   UNL     1       3.623   3.262  16.858  0.00  0.00    +0.000 NA
ATOM      4  C   UNL     1       2.712   4.004  17.548  0.00  0.00    +0.000 A 
ATOM      5  C   UNL     1       3.267   5.166  18.057  0.00  0.00    +0.000 A 
ATOM      6  N   UNL     1       4.614   5.066  17.703  0.00  0.00    +0.000 N 
ATOM      7  H   UNL     1       5.866   2.648  15.854  0.00  0.00    +0.000 HD
ATOM      8  H   UNL     1       6.775   3.987  16.409  0.00  0.00    +0.000 HD
ENDROOT
BRANCH   5   9
ATOM      9  C   UNL     1       2.612   6.228  18.830  0.00  0.00    +0.000 A 
ATOM     10  C   UNL     1       2.454   7.503  18.277  0.00  0.00    +0.000 A 
ATOM     11  C   UNL     1       1.831   8.531  18.999  0.00  0.00    +0.000 A 
ATOM     12  C   UNL     1       1.313   8.319  20.286  0.00  0.00    +0.000 A 
ATOM     13  C   UNL     1       1.486   7.039  20.834  0.00  0.00    +0.000 A 
ATOM     14  C   UNL     1       2.162   6.029  20.137  0.00  0.00    +0.000 A 
BRANCH  12  15
ATOM     15  C   UNL     1       0.641   9.402  21.045  0.00  0.00    +0.000 A 
ATOM     16  C   UNL     1       0.636  10.732  20.588  0.00  0.00    +0.000 A 
ATOM     17  C   UNL     1       0.030  11.758  21.320  0.00  0.00    +0.000 A 
ATOM     18  C   UNL     1      -0.603  11.474  22.525  0.00  0.00    +0.000 A 
ATOM     19  C   UNL     1      -0.630  10.164  22.995  0.00  0.00    +0.000 A 
ATOM     20  C   UNL     1      -0.012   9.146  22.266  0.00  0.00    +0.000 A 
ENDBRANCH  12  15
ENDBRANCH   5   9
BRANCH   6  21
ATOM     21  C   UNL     1       5.665   5.973  18.108  0.00  0.00    +0.000 C 
ATOM     22  C   UNL     1       6.946   5.369  18.680  0.00  0.00    +0.000 C 
ATOM     23  C   UNL     1       7.889   6.568  18.724  0.00  0.00    +0.000 C 
ATOM     24  C   UNL     1       7.471   7.487  17.572  0.00  0.00    +0.000 C 
ATOM     25  C   UNL     1       6.166   6.919  17.014  0.00  0.00    +0.000 C 
ENDBRANCH   6  21
TORSDOF 3
ENDMDL
MODEL 3
REMARK VINA RESULT:      -8.6      0.226      1.016
REMARK  Name = 
REMARK  3 active torsions:
REMARK  status: ('A' for Active; 'I' for Inactive)
REMARK    1  A    between atoms: C_5  and  C_6
REMARK    2  A    between atoms: C_9  and  C_10
REMARK    3  A    between atoms: N_18  and  C_19
REMARK                            x       y       z     vdW  Elec       q    Type
REMARK                         _______ _______ _______ _____ _____    ______ ____
ROOT
ATOM      1  N   UNL     1       5.896   3.442  16.440  0.00  0.00    +0.000 N 
ATOM      2  C   UNL     1       4.763   3.838  17.028  0.00  0.00    +0.000 A 
ATOM      3  N   UNL     1       3.645   3.163  16.978  0.00  0.00    +0.000 NA
ATOM      4  C   UNL     1       2.726   3.927  17.632  0.00  0.00    +0.000 A 
ATOM      5  C   UNL     1       3.271   5.112  18.096  0.00  0.00    +0.000 A 
ATOM      6  N   UNL     1       4.621   5.005  17.755  0.00  0.00    +0.000 N 
ATOM      7  H   UNL     1       5.898   2.520  16.016  0.00  0.00    +0.000 HD
ATOM      8  H   UNL     1       6.797   3.886  16.522  0.00  0.00    +0.000 HD
ENDROOT
BRANCH   5   9
ATOM      9  C   UNL     1       2.605   6.202  18.821  0.00  0.00    +0.000 A 
ATOM     10  C   UNL     1       2.113   5.986  20.112  0.00  0.00    +0.000 A 
ATOM     11  C   UNL     1       1.474   7.013  20.821  0.00  0.00    +0.000 A 
ATOM     12  C   UNL     1       1.331   8.303  20.284  0.00  0.00    +0.000 A 
ATOM     13  C   UNL     1       1.822   8.503  18.985  0.00  0.00    +0.000 A 
ATOM     14  C   UNL     1       2.406   7.462  18.253  0.00  0.00    +0.000 A 
BRANCH  12  15
ATOM     15  C   UNL     1       0.670   9.394  21.039  0.00  0.00    +0.000 A 
ATOM     16  C   UNL     1       0.715  10.730  20.602  0.00  0.00    +0.000 A 
ATOM     17  C   UNL     1       0.119  11.763  21.332  0.00  0.00    +0.000 A 
ATOM     18  C   UNL     1      -0.556  11.481  22.514  0.00  0.00    +0.000 A 
ATOM     19  C   UNL     1      -0.633  10.166  22.964  0.00  0.00    +0.000 A 
ATOM     20  C   UNL     1      -0.025   9.140  22.238  0.00  0.00    +0.000 A 
ENDBRANCH  12  15
ENDBRANCH   5   9
BRANCH   6  21
ATOM     21  C   UNL     1       5.665   5.933  18.130  0.00  0.00    +0.000 C 
ATOM     22  C   UNL     1       6.959   5.357  18.702  0.00  0.00    +0.000 C 
ATOM     23  C   UNL     1       7.888   6.568  18.711  0.00  0.00    +0.000 C 
ATOM     24  C   UNL     1       7.446   7.457  17.544  0.00  0.00    +0.000 C 
ATOM     25  C   UNL     1       6.143   6.862  17.012  0.00  0.00    +0.000 C 
ENDBRANCH   6  21
TORSDOF 3
ENDMDL
MODEL 4
REMARK VINA RESULT:      -8.4      2.284      4.161
REMARK  Name = 
REMARK  3 active torsions:
REMARK  status: ('A' for Active; 'I' for Inactive)
REMARK    1  A    between atoms: C_5  and  C_6
REMARK    2  A    between atoms: C_9  and  C_10
REMARK    3  A    between atoms: N_18  and  C_19
REMARK                            x       y       z     vdW  Elec       q    Type
REMARK                         _______ _______ _______ _____ _____    ______ ____
ROOT
ATOM      1  N   UNL     1       4.947   2.295  19.481  0.00  0.00    +0.000 N 
ATOM      2  C   UNL     1       4.895   3.606  19.224  0.00  0.00    +0.000 A 
ATOM      3  N   UNL     1       5.954   4.356  19.065  0.00  0.00    +0.000 NA
ATOM      4  C   UNL     1       5.483   5.623  18.892  0.00  0.00    +0.000 A 
ATOM      5  C   UNL     1       4.101   5.676  18.952  0.00  0.00    +0.000 A 
ATOM      6  N   UNL     1       3.730   4.337  19.097  0.00  0.00    +0.000 N 
ATOM      7  H   UNL     1       5.861   1.856  19.456  0.00  0.00    +0.000 HD
ATOM      8  H   UNL     1       4.162   1.666  19.528  0.00  0.00    +0.000 HD
ENDROOT
BRANCH   5   9
ATOM      9  C   UNL     1       3.226   6.849  18.837  0.00  0.00    +0.000 A 
ATOM     10  C   UNL     1       2.365   7.187  19.886  0.00  0.00    +0.000 A 
ATOM     11  C   UNL     1       1.521   8.303  19.797  0.00  0.00    +0.000 A 
ATOM     12  C   UNL     1       1.527   9.144  18.672  0.00  0.00    +0.000 A 
ATOM     13  C   UNL     1       2.389   8.789  17.623  0.00  0.00    +0.000 A 
ATOM     14  C   UNL     1       3.187   7.640  17.687  0.00  0.00    +0.000 A 
BRANCH  12  15
ATOM     15  C   UNL     1       0.646  10.333  18.583  0.00  0.00    +0.000 A 
ATOM     16  C   UNL     1       1.139  11.636  18.782  0.00  0.00    +0.000 A 
ATOM     17  C   UNL     1       0.302  12.755  18.729  0.00  0.00    +0.000 A 
ATOM     18  C   UNL     1      -1.053  12.599  18.458  0.00  0.00    +0.000 A 
ATOM     19  C   UNL     1      -1.567  11.323  18.240  0.00  0.00    +0.000 A 
ATOM     20  C   UNL     1      -0.729  10.209  18.306  0.00  0.00    +0.000 A 
ENDBRANCH  12  15
ENDBRANCH   5   9
BRANCH   6  21
ATOM     21  C   UNL     1       2.376   3.828  19.083  0.00  0.00    +0.000 C 
ATOM     22  C   UNL     1       2.109   2.537  18.312  0.00  0.00    +0.000 C 
ATOM     23  C   UNL     1       0.691   2.177  18.746  0.00  0.00    +0.000 C 
ATOM     24  C   UNL     1       0.526   2.717  20.170  0.00  0.00    +0.000 C 
ATOM     25  C   UNL     1       1.766   3.563  20.461  0.00  0.00    +0.000 C 
ENDBRANCH   6  21
TORSDOF 3
ENDMDL
MODEL 5
REMARK VINA RESULT:      -8.4      1.646      3.530
REMARK  Name = 
REMARK  3 active torsions:
REMARK  status: ('A' for Active; 'I' for Inactive)
REMARK    1  A    between atoms: C_5  and  C_6
REMARK    2  A    between atoms: C_9  and  C_10
REMARK    3  A    between atoms: N_18  and  C_19
REMARK                            x       y       z     vdW  Elec       q    Type
REMARK                         _______ _______ _______ _____ _____    ______ ____
ROOT
ATOM      1  N   UNL     1       4.748   3.394  17.154  0.00  0.00    +0.000 N 
ATOM      2  C   UNL     1       4.403   4.677  17.304  0.00  0.00    +0.000 A 
ATOM      3  N   UNL     1       5.047   5.671  16.750  0.00  0.00    +0.000 NA
ATOM      4  C   UNL     1       4.432   6.801  17.198  0.00  0.00    +0.000 A 
ATOM      5  C   UNL     1       3.385   6.516  18.058  0.00  0.00    +0.000 A 
ATOM      6  N   UNL     1       3.334   5.120  18.059  0.00  0.00    +0.000 N 
ATOM      7  H   UNL     1       5.495   3.191  16.497  0.00  0.00    +0.000 HD
ATOM      8  H   UNL     1       4.235   2.596  17.491  0.00  0.00    +0.000 HD
ENDROOT
BRANCH   5   9
ATOM      9  C   UNL     1       2.500   7.453  18.762  0.00  0.00    +0.000 A 
ATOM     10  C   UNL     1       2.181   7.239  20.107  0.00  0.00    +0.000 A 
ATOM     11  C   UNL     1       1.338   8.122  20.798  0.00  0.00    +0.000 A 
ATOM     12  C   UNL     1       0.809   9.269  20.184  0.00  0.00    +0.000 A 
ATOM     13  C   UNL     1       1.130   9.467  18.832  0.00  0.00    +0.000 A 
ATOM     14  C   UNL     1       1.922   8.553  18.125  0.00  0.00    +0.000 A 
BRANCH  12  15
ATOM     15  C   UNL     1      -0.070  10.211  20.917  0.00  0.00    +0.000 A 
ATOM     16  C   UNL     1      -0.751  11.252  20.260  0.00  0.00    +0.000 A 
ATOM     17  C   UNL     1      -1.554  12.160  20.957  0.00  0.00    +0.000 A 
ATOM     18  C   UNL     1      -1.710  12.039  22.333  0.00  0.00    +0.000 A 
ATOM     19  C   UNL     1      -1.062  11.008  23.010  0.00  0.00    +0.000 A 
ATOM     20  C   UNL     1      -0.252  10.112  22.311  0.00  0.00    +0.000 A 
ENDBRANCH  12  15
ENDBRANCH   5   9
BRANCH   6  21
ATOM     21  C   UNL     1       2.326   4.311  18.707  0.00  0.00    +0.000 C 
ATOM     22  C   UNL     1       1.566   3.299  17.851  0.00  0.00    +0.000 C 
ATOM     23  C   UNL     1       0.823   2.470  18.895  0.00  0.00    +0.000 C 
ATOM     24  C   UNL     1       1.697   2.480  20.153  0.00  0.00    +0.000 C 
ATOM     25  C   UNL     1       2.821   3.483  19.895  0.00  0.00    +0.000 C 
ENDBRANCH   6  21
TORSDOF 3
ENDMDL
MODEL 6
REMARK VINA RESULT:      -8.3      1.673      3.402
REMARK  Name = 
REMARK  3 active torsions:
REMARK  status: ('A' for Active; 'I' for Inactive)
REMARK    1  A    between atoms: C_5  and  C_6
REMARK    2  A    between atoms: C_9  and  C_10
REMARK    3  A    between atoms: N_18  and  C_19
REMARK                            x       y       z     vdW  Elec       q    Type
REMARK                         _______ _______ _______ _____ _____    ______ ____
ROOT
ATOM      1  N   UNL     1       4.755   3.373  17.157  0.00  0.00    +0.000 N 
ATOM      2  C   UNL     1       4.412   4.659  17.274  0.00  0.00    +0.000 A 
ATOM      3  N   UNL     1       5.056   5.637  16.693  0.00  0.00    +0.000 NA
ATOM      4  C   UNL     1       4.443   6.779  17.112  0.00  0.00    +0.000 A 
ATOM      5  C   UNL     1       3.397   6.519  17.981  0.00  0.00    +0.000 A 
ATOM      6  N   UNL     1       3.345   5.124  18.019  0.00  0.00    +0.000 N 
ATOM      7  H   UNL     1       5.501   3.151  16.505  0.00  0.00    +0.000 HD
ATOM      8  H   UNL     1       4.242   2.584  17.517  0.00  0.00    +0.000 HD
ENDROOT
BRANCH   5   9
ATOM      9  C   UNL     1       2.515   7.475  18.662  0.00  0.00    +0.000 A 
ATOM     10  C   UNL     1       2.212   7.308  20.016  0.00  0.00    +0.000 A 
ATOM     11  C   UNL     1       1.372   8.210  20.685  0.00  0.00    +0.000 A 
ATOM     12  C   UNL     1       0.828   9.331  20.037  0.00  0.00    +0.000 A 
ATOM     13  C   UNL     1       1.132   9.482  18.676  0.00  0.00    +0.000 A 
ATOM     14  C   UNL     1       1.922   8.548  17.993  0.00  0.00    +0.000 A 
BRANCH  12  15
ATOM     15  C   UNL     1      -0.048  10.293  20.747  0.00  0.00    +0.000 A 
ATOM     16  C   UNL     1      -0.153  10.304  22.149  0.00  0.00    +0.000 A 
ATOM     17  C   UNL     1      -1.004  11.190  22.816  0.00  0.00    +0.000 A 
ATOM     18  C   UNL     1      -1.762  12.104  22.094  0.00  0.00    +0.000 A 
ATOM     19  C   UNL     1      -1.667  12.130  20.705  0.00  0.00    +0.000 A 
ATOM     20  C   UNL     1      -0.826  11.235  20.044  0.00  0.00    +0.000 A 
ENDBRANCH  12  15
ENDBRANCH   5   9
BRANCH   6  21
ATOM     21  C   UNL     1       2.338   4.333  18.691  0.00  0.00    +0.000 C 
ATOM     22  C   UNL     1       1.565   3.309  17.860  0.00  0.00    +0.000 C 
ATOM     23  C   UNL     1       0.825   2.505  18.926  0.00  0.00    +0.000 C 
ATOM     24  C   UNL     1       1.709   2.534  20.177  0.00  0.00    +0.000 C 
ATOM     25  C   UNL     1       2.837   3.525  19.890  0.00  0.00    +0.000 C 
ENDBRANCH   6  21
TORSDOF 3
ENDMDL
MODEL 7
REMARK VINA RESULT:      -8.3      1.983      2.843
REMARK  Name = 
REMARK  3 active torsions:
REMARK  status: ('A' for Active; 'I' for Inactive)
REMARK    1  A    between atoms: C_5  and  C_6
REMARK    2  A    between atoms: C_9  and  C_10
REMARK    3  A    between atoms: N_18  and  C_19
REMARK                            x       y       z     vdW  Elec       q    Type
REMARK                         _______ _______ _______ _____ _____    ______ ____
ROOT
ATOM      1  N   UNL     1       5.121   2.657  19.343  0.00  0.00    +0.000 N 
ATOM      2  C   UNL     1       4.138   3.514  19.635  0.00  0.00    +0.000 A 
ATOM      3  N   UNL     1       3.061   3.184  20.298  0.00  0.00    +0.000 NA
ATOM      4  C   UNL     1       2.288   4.307  20.325  0.00  0.00    +0.000 A 
ATOM      5  C   UNL     1       2.885   5.364  19.659  0.00  0.00    +0.000 A 
ATOM      6  N   UNL     1       4.126   4.849  19.276  0.00  0.00    +0.000 N 
ATOM      7  H   UNL     1       5.057   1.727  19.744  0.00  0.00    +0.000 HD
ATOM      8  H   UNL     1       6.001   2.886  18.910  0.00  0.00    +0.000 HD
ENDROOT
BRANCH   5   9
ATOM      9  C   UNL     1       2.365   6.721  19.448  0.00  0.00    +0.000 A 
ATOM     10  C   UNL     1       2.426   7.305  18.179  0.00  0.00    +0.000 A 
ATOM     11  C   UNL     1       1.936   8.600  17.956  0.00  0.00    +0.000 A 
ATOM     12  C   UNL     1       1.336   9.348  18.982  0.00  0.00    +0.000 A 
ATOM     13  C   UNL     1       1.290   8.754  20.252  0.00  0.00    +0.000 A 
ATOM     14  C   UNL     1       1.834   7.485  20.489  0.00  0.00    +0.000 A 
BRANCH  12  15
ATOM     15  C   UNL     1       0.803  10.711  18.745  0.00  0.00    +0.000 A 
ATOM     16  C   UNL     1       1.644  11.838  18.705  0.00  0.00    +0.000 A 
ATOM     17  C   UNL     1       1.138  13.127  18.513  0.00  0.00    +0.000 A 
ATOM     18  C   UNL     1      -0.228  13.320  18.339  0.00  0.00    +0.000 A 
ATOM     19  C   UNL     1      -1.085  12.222  18.357  0.00  0.00    +0.000 A 
ATOM     20  C   UNL     1      -0.575  10.939  18.561  0.00  0.00    +0.000 A 
ENDBRANCH  12  15
ENDBRANCH   5   9
BRANCH   6  21
ATOM     21  C   UNL     1       5.196   5.596  18.653  0.00  0.00    +0.000 C 
ATOM     22  C   UNL     1       6.584   5.515  19.285  0.00  0.00    +0.000 C 
ATOM     23  C   UNL     1       7.470   6.173  18.231  0.00  0.00    +0.000 C 
ATOM     24  C   UNL     1       6.808   5.893  16.878  0.00  0.00    +0.000 C 
ATOM     25  C   UNL     1       5.447   5.267  17.180  0.00  0.00    +0.000 C 
ENDBRANCH   6  21
TORSDOF 3
ENDMDL
MODEL 8
REMARK VINA RESULT:      -8.3      1.989      2.656
REMARK  Name = 
REMARK  3 active torsions:
REMARK  status: ('A' for Active; 'I' for Inactive)
REMARK    1  A    between atoms: C_5  and  C_6
REMARK    2  A    between atoms: C_9  and  C_10
REMARK    3  A    between atoms: N_18  and  C_19
REMARK                            x       y       z     vdW  Elec       q    Type
REMARK                         _______ _______ _______ _____ _____    ______ ____
ROOT
ATOM      1  N   UNL     1       5.176   2.687  19.409  0.00  0.00    +0.000 N 
ATOM      2  C   UNL     1       4.175   3.533  19.667  0.00  0.00    +0.000 A 
ATOM      3  N   UNL     1       3.084   3.195  20.305  0.00  0.00    +0.000 NA
ATOM      4  C   UNL     1       2.297   4.307  20.300  0.00  0.00    +0.000 A 
ATOM      5  C   UNL     1       2.898   5.366  19.640  0.00  0.00    +0.000 A 
ATOM      6  N   UNL     1       4.155   4.865  19.296  0.00  0.00    +0.000 N 
ATOM      7  H   UNL     1       5.114   1.760  19.817  0.00  0.00    +0.000 HD
ATOM      8  H   UNL     1       6.065   2.923  18.997  0.00  0.00    +0.000 HD
ENDROOT
BRANCH   5   9
ATOM      9  C   UNL     1       2.366   6.714  19.403  0.00  0.00    +0.000 A 
ATOM     10  C   UNL     1       1.805   7.442  20.456  0.00  0.00    +0.000 A 
ATOM     11  C   UNL     1       1.291   8.731  20.251  0.00  0.00    +0.000 A 
ATOM     12  C   UNL     1       1.348   9.355  18.995  0.00  0.00    +0.000 A 
ATOM     13  C   UNL     1       1.906   8.611  17.944  0.00  0.00    +0.000 A 
ATOM     14  C   UNL     1       2.363   7.301  18.135  0.00  0.00    +0.000 A 
BRANCH  12  15
ATOM     15  C   UNL     1       0.820  10.724  18.779  0.00  0.00    +0.000 A 
ATOM     16  C   UNL     1      -0.548  10.962  18.551  0.00  0.00    +0.000 A 
ATOM     17  C   UNL     1      -1.041  12.248  18.316  0.00  0.00    +0.000 A 
ATOM     18  C   UNL     1      -0.177  13.337  18.320  0.00  0.00    +0.000 A 
ATOM     19  C   UNL     1       1.180  13.136  18.560  0.00  0.00    +0.000 A 
ATOM     20  C   UNL     1       1.669  11.848  18.782  0.00  0.00    +0.000 A 
ENDBRANCH  12  15
ENDBRANCH   5   9
BRANCH   6  21
ATOM     21  C   UNL     1       5.231   5.620  18.693  0.00  0.00    +0.000 C 
ATOM     22  C   UNL     1       6.615   5.521  19.332  0.00  0.00    +0.000 C 
ATOM     23  C   UNL     1       7.510   6.197  18.297  0.00  0.00    +0.000 C 
ATOM     24  C   UNL     1       6.856   5.946  16.935  0.00  0.00    +0.000 C 
ATOM     25  C   UNL     1       5.490   5.319  17.216  0.00  0.00    +0.000 C 
ENDBRANCH   6  21
TORSDOF 3
ENDMDL
MODEL 9
REMARK VINA RESULT:      -8.3      1.990      2.734
REMARK  Name = 
REMARK  3 active torsions:
REMARK  status: ('A' for Active; 'I' for Inactive)
REMARK    1  A    between atoms: C_5  and  C_6
REMARK    2  A    between atoms: C_9  and  C_10
REMARK    3  A    between atoms: N_18  and  C_19
REMARK                            x       y       z     vdW  Elec       q    Type
REMARK                         _______ _______ _______ _____ _____    ______ ____
ROOT
ATOM      1  N   UNL     1       5.134   2.686  19.357  0.00  0.00    +0.000 N 
ATOM      2  C   UNL     1       4.161   3.555  19.646  0.00  0.00    +0.000 A 
ATOM      3  N   UNL     1       3.104   3.251  20.354  0.00  0.00    +0.000 NA
ATOM      4  C   UNL     1       2.333   4.374  20.362  0.00  0.00    +0.000 A 
ATOM      5  C   UNL     1       2.910   5.406  19.640  0.00  0.00    +0.000 A 
ATOM      6  N   UNL     1       4.139   4.875  19.240  0.00  0.00    +0.000 N 
ATOM      7  H   UNL     1       5.082   1.771  19.794  0.00  0.00    +0.000 HD
ATOM      8  H   UNL     1       6.001   2.897  18.889  0.00  0.00    +0.000 HD
ENDROOT
BRANCH   5   9
ATOM      9  C   UNL     1       2.385   6.755  19.395  0.00  0.00    +0.000 A 
ATOM     10  C   UNL     1       1.769   7.465  20.430  0.00  0.00    +0.000 A 
ATOM     11  C   UNL     1       1.260   8.755  20.217  0.00  0.00    +0.000 A 
ATOM     12  C   UNL     1       1.376   9.397  18.973  0.00  0.00    +0.000 A 
ATOM     13  C   UNL     1       1.988   8.670  17.942  0.00  0.00    +0.000 A 
ATOM     14  C   UNL     1       2.441   7.359  18.137  0.00  0.00    +0.000 A 
BRANCH  12  15
ATOM     15  C   UNL     1       0.853  10.767  18.751  0.00  0.00    +0.000 A 
ATOM     16  C   UNL     1       1.708  11.879  18.655  0.00  0.00    +0.000 A 
ATOM     17  C   UNL     1       1.212  13.174  18.477  0.00  0.00    +0.000 A 
ATOM     18  C   UNL     1      -0.158  13.388  18.375  0.00  0.00    +0.000 A 
ATOM     19  C   UNL     1      -1.029  12.304  18.450  0.00  0.00    +0.000 A 
ATOM     20  C   UNL     1      -0.529  11.015  18.639  0.00  0.00    +0.000 A 
ENDBRANCH  12  15
ENDBRANCH   5   9
BRANCH   6  21
ATOM     21  C   UNL     1       5.189   5.597  18.557  0.00  0.00    +0.000 C 
ATOM     22  C   UNL     1       6.588   5.567  19.170  0.00  0.00    +0.000 C 
ATOM     23  C   UNL     1       7.450   6.173  18.065  0.00  0.00    +0.000 C 
ATOM     24  C   UNL     1       6.770   5.810  16.742  0.00  0.00    +0.000 C 
ATOM     25  C   UNL     1       5.421   5.187  17.101  0.00  0.00    +0.000 C 
ENDBRANCH   6  21
TORSDOF 3
ENDMDL
