MODEL 1
REMARK VINA RESULT:      -9.0      0.000      0.000
REMARK  Name = 
REMARK  9 active torsions:
REMARK  status: ('A' for Active; 'I' for Inactive)
REMARK    1  A    between atoms: C_1  and  O_2
REMARK    2  A    between atoms: O_2  and  C_3
REMARK    3  A    between atoms: C_6  and  C_7
REMARK    4  A    between atoms: C_12  and  C_13
REMARK    5  A    between atoms: N_16  and  C_17
REMARK    6  A    between atoms: N_20  and  C_21
REMARK    7  A    between atoms: C_28  and  C_29
REMARK    8  A    between atoms: C_31  and  O_32
REMARK    9  A    between atoms: O_32  and  C_33
REMARK                            x       y       z     vdW  Elec       q    Type
REMARK                         _______ _______ _______ _____ _____    ______ ____
ROOT
ATOM      1  C   UNL     1       0.449  10.262  20.358  0.00  0.00    +0.000 A 
ATOM      2  N   UNL     1       0.925   9.918  19.120  0.00  0.00    +0.000 N 
ATOM      3  C   UNL     1       1.585   8.720  19.135  0.00  0.00    +0.000 A 
ATOM      4  C   UNL     1       2.266   8.104  18.095  0.00  0.00    +0.000 A 
ATOM      5  C   UNL     1       2.659   6.783  18.278  0.00  0.00    +0.000 A 
ATOM      6  C   UNL     1       2.377   6.082  19.459  0.00  0.00    +0.000 A 
ATOM      7  C   UNL     1       1.816   6.807  20.555  0.00  0.00    +0.000 A 
ATOM      8  C   UNL     1       1.407   8.171  20.397  0.00  0.00    +0.000 A 
ATOM      9  C   UNL     1       0.833   9.230  21.220  0.00  0.00    +0.000 A 
ATOM     10  C   UNL     1       0.711   9.276  22.710  0.00  0.00    +0.000 C 
ATOM     11  H   UNL     1       0.801  10.470  18.284  0.00  0.00    +0.000 HD
ENDROOT
BRANCH   1  15
ATOM     12  C   UNL     1      -1.693  13.982  20.724  0.00  0.00    +0.000 A 
ATOM     13  C   UNL     1      -0.368  13.876  21.192  0.00  0.00    +0.000 A 
ATOM     14  C   UNL     1       0.359  12.683  21.073  0.00  0.00    +0.000 A 
ATOM     15  C   UNL     1      -0.235  11.556  20.521  0.00  0.00    +0.000 A 
ATOM     16  C   UNL     1      -1.595  11.647  20.167  0.00  0.00    +0.000 A 
ATOM     17  C   UNL     1      -2.334  12.832  20.264  0.00  0.00    +0.000 A 
BRANCH  12  19
ATOM     18  C   UNL     1      -1.556  16.317  20.425  0.00  0.00    +0.000 C 
ATOM     19  O   UNL     1      -2.360  15.177  20.741  0.00  0.00    +0.000 OA
ENDBRANCH  12  19
BRANCH  17  20
ATOM     20  O   UNL     1      -3.622  12.636  19.854  0.00  0.00    +0.000 OA
ATOM     21  C   UNL     1      -3.887  11.836  18.719  0.00  0.00    +0.000 C 
ENDBRANCH  17  20
ENDBRANCH   1  15
BRANCH   6  22
ATOM     22  C   UNL     1       2.467   4.548  19.390  0.00  0.00    +0.000 C 
ATOM     23  C   UNL     1       3.822   3.910  19.696  0.00  0.00    +0.000 C 
ATOM     24  C   UNL     1       4.821   4.173  18.574  0.00  0.00    +0.000 C 
ATOM     25  N   UNL     1       4.361   3.835  17.224  0.00  0.00    +0.000 NA
ATOM     26  C   UNL     1       2.938   4.006  16.951  0.00  0.00    +0.000 C 
ATOM     27  C   UNL     1       1.970   3.853  18.114  0.00  0.00    +0.000 C 
BRANCH  25  28
ATOM     28  C   UNL     1       5.287   4.324  16.165  0.00  0.00    +0.000 C 
ATOM     29  C   UNL     1       6.785   3.972  16.294  0.00  0.00    +0.000 C 
ATOM     30  C   UNL     1       7.539   4.821  17.312  0.00  0.00    +0.000 C 
ATOM     31  N   UNL     1       7.377   6.266  17.109  0.00  0.00    +0.000 NA
ATOM     32  C   UNL     1       7.916   6.983  18.273  0.00  0.00    +0.000 C 
ATOM     33  C   UNL     1       6.000   6.707  16.857  0.00  0.00    +0.000 C 
ATOM     34  C   UNL     1       5.208   5.835  15.877  0.00  0.00    +0.000 C 
ENDBRANCH  25  28
ENDBRANCH   6  22
TORSDOF 5
ENDMDL
MODEL 2
REMARK VINA RESULT:      -9.0      4.051      9.599
REMARK  Name = 
REMARK  9 active torsions:
REMARK  status: ('A' for Active; 'I' for Inactive)
REMARK    1  A    between atoms: C_1  and  O_2
REMARK    2  A    between atoms: O_2  and  C_3
REMARK    3  A    between atoms: C_6  and  C_7
REMARK    4  A    between atoms: C_12  and  C_13
REMARK    5  A    between atoms: N_16  and  C_17
REMARK    6  A    between atoms: N_20  and  C_21
REMARK    7  A    between atoms: C_28  and  C_29
REMARK    8  A    between atoms: C_31  and  O_32
REMARK    9  A    between atoms: O_32  and  C_33
REMARK                            x       y       z     vdW  Elec       q    Type
REMARK                         _______ _______ _______ _____ _____    ______ ____
ROOT
ATOM      1  C   UNL     1       2.000   7.265  19.926  0.00  0.00    +0.000 A 
ATOM      2  N   UNL     1       1.450   7.797  21.062  0.00  0.00    +0.000 N 
ATOM      3  C   UNL     1       1.225   9.141  20.948  0.00  0.00    +0.000 A 
ATOM      4  C   UNL     1       0.764  10.018  21.920  0.00  0.00    +0.000 A 
ATOM      5  C   UNL     1       0.391  11.294  21.508  0.00  0.00    +0.000 A 
ATOM      6  C   UNL     1       0.463  11.690  20.165  0.00  0.00    +0.000 A 
ATOM      7  C   UNL     1       1.091  10.807  19.234  0.00  0.00    +0.000 A 
ATOM      8  C   UNL     1       1.490   9.489  19.631  0.00  0.00    +0.000 A 
ATOM      9  C   UNL     1       2.146   8.332  19.032  0.00  0.00    +0.000 A 
ATOM     10  C   UNL     1       2.895   8.263  17.739  0.00  0.00    +0.000 C 
ATOM     11  H   UNL     1       1.222   7.267  21.891  0.00  0.00    +0.000 HD
ENDROOT
BRANCH   1  15
ATOM     12  C   UNL     1       3.203   3.131  19.777  0.00  0.00    +0.000 A 
ATOM     13  C   UNL     1       1.928   3.483  20.266  0.00  0.00    +0.000 A 
ATOM     14  C   UNL     1       1.505   4.819  20.312  0.00  0.00    +0.000 A 
ATOM     15  C   UNL     1       2.358   5.837  19.910  0.00  0.00    +0.000 A 
ATOM     16  C   UNL     1       3.667   5.476  19.537  0.00  0.00    +0.000 A 
ATOM     17  C   UNL     1       4.106   4.149  19.470  0.00  0.00    +0.000 A 
BRANCH  12  19
ATOM     18  C   UNL     1       3.521   1.331  18.288  0.00  0.00    +0.000 C 
ATOM     19  O   UNL     1       3.572   1.821  19.631  0.00  0.00    +0.000 OA
ENDBRANCH  12  19
BRANCH  17  20
ATOM     20  O   UNL     1       5.414   4.089  19.080  0.00  0.00    +0.000 OA
ATOM     21  C   UNL     1       6.256   5.211  19.257  0.00  0.00    +0.000 C 
ENDBRANCH  17  20
ENDBRANCH   1  15
BRANCH   6  22
ATOM     22  C   UNL     1      -0.356  12.930  19.767  0.00  0.00    +0.000 C 
ATOM     23  C   UNL     1      -1.680  13.160  20.494  0.00  0.00    +0.000 C 
ATOM     24  C   UNL     1      -2.730  12.140  20.066  0.00  0.00    +0.000 C 
ATOM     25  N   UNL     1      -2.927  12.004  18.620  0.00  0.00    +0.000 NA
ATOM     26  C   UNL     1      -1.757  12.204  17.772  0.00  0.00    +0.000 C 
ATOM     27  C   UNL     1      -0.669  13.140  18.278  0.00  0.00    +0.000 C 
BRANCH  25  28
ATOM     28  C   UNL     1      -3.791  10.842  18.268  0.00  0.00    +0.000 C 
ATOM     29  C   UNL     1      -3.100   9.531  17.834  0.00  0.00    +0.000 C 
ATOM     30  C   UNL     1      -2.576   9.547  16.402  0.00  0.00    +0.000 C 
ATOM     31  N   UNL     1      -3.587   9.935  15.409  0.00  0.00    +0.000 NA
ATOM     32  C   UNL     1      -2.931  10.171  14.116  0.00  0.00    +0.000 C 
ATOM     33  C   UNL     1      -4.393  11.108  15.771  0.00  0.00    +0.000 C 
ATOM     34  C   UNL     1      -4.883  11.136  17.222  0.00  0.00    +0.000 C 
ENDBRANCH  25  28
ENDBRANCH   6  22
TORSDOF 5
ENDMDL
MODEL 3
REMARK VINA RESULT:      -8.9      3.793      9.682
REMARK  Name = 
REMARK  9 active torsions:
REMARK  status: ('A' for Active; 'I' for Inactive)
REMARK    1  A    between atoms: C_1  and  O_2
REMARK    2  A    between atoms: O_2  and  C_3
REMARK    3  A    between atoms: C_6  and  C_7
REMARK    4  A    between atoms: C_12  and  C_13
REMARK    5  A    between atoms: N_16  and  C_17
REMARK    6  A    between atoms: N_20  and  C_21
REMARK    7  A    between atoms: C_28  and  C_29
REMARK    8  A    between atoms: C_31  and  O_32
REMARK    9  A    between atoms: O_32  and  C_33
REMARK                            x       y       z     vdW  Elec       q    Type
REMARK                         _______ _______ _______ _____ _____    ______ ____
ROOT
ATOM      1  C   UNL     1       1.988   7.592  19.607  0.00  0.00    +0.000 A 
ATOM      2  N   UNL     1       1.659   7.539  20.936  0.00  0.00    +0.000 N 
ATOM      3  C   UNL     1       1.055   8.688  21.367  0.00  0.00    +0.000 A 
ATOM      4  C   UNL     1       0.669   9.021  22.657  0.00  0.00    +0.000 A 
ATOM      5  C   UNL     1      -0.136  10.143  22.817  0.00  0.00    +0.000 A 
ATOM      6  C   UNL     1      -0.558  10.915  21.724  0.00  0.00    +0.000 A 
ATOM      7  C   UNL     1      -0.004  10.623  20.440  0.00  0.00    +0.000 A 
ATOM      8  C   UNL     1       0.833   9.476  20.247  0.00  0.00    +0.000 A 
ATOM      9  C   UNL     1       1.579   8.853  19.159  0.00  0.00    +0.000 A 
ATOM     10  C   UNL     1       1.921   9.435  17.824  0.00  0.00    +0.000 C 
ATOM     11  H   UNL     1       1.828   6.745  21.537  0.00  0.00    +0.000 HD
ENDROOT
BRANCH   1  15
ATOM     12  C   UNL     1       4.233   4.325  17.923  0.00  0.00    +0.000 A 
ATOM     13  C   UNL     1       2.904   4.558  17.515  0.00  0.00    +0.000 A 
ATOM     14  C   UNL     1       2.154   5.623  18.035  0.00  0.00    +0.000 A 
ATOM     15  C   UNL     1       2.700   6.453  19.004  0.00  0.00    +0.000 A 
ATOM     16  C   UNL     1       3.984   6.134  19.484  0.00  0.00    +0.000 A 
ATOM     17  C   UNL     1       4.755   5.086  18.969  0.00  0.00    +0.000 A 
BRANCH  12  19
ATOM     18  C   UNL     1       5.655   3.758  16.130  0.00  0.00    +0.000 C 
ATOM     19  O   UNL     1       4.998   3.354  17.334  0.00  0.00    +0.000 OA
ENDBRANCH  12  19
BRANCH  17  20
ATOM     20  O   UNL     1       5.956   5.003  19.615  0.00  0.00    +0.000 OA
ATOM     21  C   UNL     1       7.094   5.645  19.075  0.00  0.00    +0.000 C 
ENDBRANCH  17  20
ENDBRANCH   1  15
BRANCH   6  22
ATOM     22  C   UNL     1      -1.760  11.845  21.959  0.00  0.00    +0.000 C 
ATOM     23  C   UNL     1      -2.242  12.683  20.775  0.00  0.00    +0.000 C 
ATOM     24  C   UNL     1      -1.251  13.794  20.446  0.00  0.00    +0.000 C 
ATOM     25  N   UNL     1      -0.849  14.639  21.574  0.00  0.00    +0.000 NA
ATOM     26  C   UNL     1      -0.777  14.001  22.884  0.00  0.00    +0.000 C 
ATOM     27  C   UNL     1      -1.698  12.819  23.146  0.00  0.00    +0.000 C 
BRANCH  25  28
ATOM     28  C   UNL     1       0.281  15.548  21.234  0.00  0.00    +0.000 C 
ATOM     29  C   UNL     1       0.435  15.995  19.764  0.00  0.00    +0.000 C 
ATOM     30  C   UNL     1       1.043  14.935  18.851  0.00  0.00    +0.000 C 
ATOM     31  N   UNL     1       2.313  14.390  19.346  0.00  0.00    +0.000 NA
ATOM     32  C   UNL     1       2.680  13.213  18.548  0.00  0.00    +0.000 C 
ATOM     33  C   UNL     1       2.323  14.037  20.772  0.00  0.00    +0.000 C 
ATOM     34  C   UNL     1       1.668  15.066  21.700  0.00  0.00    +0.000 C 
ENDBRANCH  25  28
ENDBRANCH   6  22
TORSDOF 5
ENDMDL
MODEL 4
REMARK VINA RESULT:      -8.8      4.157     10.126
REMARK  Name = 
REMARK  9 active torsions:
REMARK  status: ('A' for Active; 'I' for Inactive)
REMARK    1  A    between atoms: C_1  and  O_2
REMARK    2  A    between atoms: O_2  and  C_3
REMARK    3  A    between atoms: C_6  and  C_7
REMARK    4  A    between atoms: C_12  and  C_13
REMARK    5  A    between atoms: N_16  and  C_17
REMARK    6  A    between atoms: N_20  and  C_21
REMARK    7  A    between atoms: C_28  and  C_29
REMARK    8  A    between atoms: C_31  and  O_32
REMARK    9  A    between atoms: O_32  and  C_33
REMARK                            x       y       z     vdW  Elec       q    Type
REMARK                         _______ _______ _______ _____ _____    ______ ____
ROOT
ATOM      1  C   UNL     1       2.060   6.919  20.056  0.00  0.00    +0.000 A 
ATOM      2  N   UNL     1       1.500   7.386  21.216  0.00  0.00    +0.000 N 
ATOM      3  C   UNL     1       1.054   8.673  21.094  0.00  0.00    +0.000 A 
ATOM      4  C   UNL     1       0.516   9.491  22.078  0.00  0.00    +0.000 A 
ATOM      5  C   UNL     1      -0.082  10.678  21.670  0.00  0.00    +0.000 A 
ATOM      6  C   UNL     1      -0.154  11.046  20.318  0.00  0.00    +0.000 A 
ATOM      7  C   UNL     1       0.552  10.251  19.365  0.00  0.00    +0.000 A 
ATOM      8  C   UNL     1       1.182   9.024  19.758  0.00  0.00    +0.000 A 
ATOM      9  C   UNL     1       1.978   7.971  19.137  0.00  0.00    +0.000 A 
ATOM     10  C   UNL     1       2.651   7.990  17.802  0.00  0.00    +0.000 C 
ATOM     11  H   UNL     1       1.409   6.848  22.066  0.00  0.00    +0.000 HD
ENDROOT
BRANCH   1  15
ATOM     12  C   UNL     1       3.888   3.023  19.882  0.00  0.00    +0.000 A 
ATOM     13  C   UNL     1       2.677   3.208  20.578  0.00  0.00    +0.000 A 
ATOM     14  C   UNL     1       2.052   4.462  20.639  0.00  0.00    +0.000 A 
ATOM     15  C   UNL     1       2.642   5.567  20.042  0.00  0.00    +0.000 A 
ATOM     16  C   UNL     1       3.908   5.387  19.453  0.00  0.00    +0.000 A 
ATOM     17  C   UNL     1       4.543   4.142  19.369  0.00  0.00    +0.000 A 
BRANCH  12  19
ATOM     18  C   UNL     1       4.044   1.089  18.542  0.00  0.00    +0.000 C 
ATOM     19  O   UNL     1       4.439   1.778  19.731  0.00  0.00    +0.000 OA
ENDBRANCH  12  19
BRANCH  17  20
ATOM     20  O   UNL     1       5.756   4.256  18.749  0.00  0.00    +0.000 OA
ATOM     21  C   UNL     1       6.578   5.376  19.009  0.00  0.00    +0.000 C 
ENDBRANCH  17  20
ENDBRANCH   1  15
BRANCH   6  22
ATOM     22  C   UNL     1      -1.184  12.128  19.952  0.00  0.00    +0.000 C 
ATOM     23  C   UNL     1      -0.980  12.874  18.634  0.00  0.00    +0.000 C 
ATOM     24  C   UNL     1       0.213  13.820  18.714  0.00  0.00    +0.000 C 
ATOM     25  N   UNL     1       0.218  14.738  19.857  0.00  0.00    +0.000 NA
ATOM     26  C   UNL     1      -0.375  14.250  21.097  0.00  0.00    +0.000 C 
ATOM     27  C   UNL     1      -1.487  13.217  20.992  0.00  0.00    +0.000 C 
BRANCH  25  28
ATOM     28  C   UNL     1       1.509  15.467  19.999  0.00  0.00    +0.000 C 
ATOM     29  C   UNL     1       1.463  16.935  20.478  0.00  0.00    +0.000 C 
ATOM     30  C   UNL     1       1.047  17.929  19.399  0.00  0.00    +0.000 C 
ATOM     31  N   UNL     1       1.839  17.827  18.167  0.00  0.00    +0.000 NA
ATOM     32  C   UNL     1       1.204  18.630  17.114  0.00  0.00    +0.000 C 
ATOM     33  C   UNL     1       2.051  16.458  17.678  0.00  0.00    +0.000 C 
ATOM     34  C   UNL     1       2.417  15.433  18.756  0.00  0.00    +0.000 C 
ENDBRANCH  25  28
ENDBRANCH   6  22
TORSDOF 5
ENDMDL
MODEL 5
REMARK VINA RESULT:      -8.8      3.688      9.560
REMARK  Name = 
REMARK  9 active torsions:
REMARK  status: ('A' for Active; 'I' for Inactive)
REMARK    1  A    between atoms: C_1  and  O_2
REMARK    2  A    between atoms: O_2  and  C_3
REMARK    3  A    between atoms: C_6  and  C_7
REMARK    4  A    between atoms: C_12  and  C_13
REMARK    5  A    between atoms: N_16  and  C_17
REMARK    6  A    between atoms: N_20  and  C_21
REMARK    7  A    between atoms: C_28  and  C_29
REMARK    8  A    between atoms: C_31  and  O_32
REMARK    9  A    between atoms: O_32  and  C_33
REMARK                            x       y       z     vdW  Elec       q    Type
REMARK                         _______ _______ _______ _____ _____    ______ ____
ROOT
ATOM      1  C   UNL     1       2.000   7.838  19.334  0.00  0.00    +0.000 A 
ATOM      2  N   UNL     1       1.747   7.695  20.673  0.00  0.00    +0.000 N 
ATOM      3  C   UNL     1       1.118   8.788  21.201  0.00  0.00    +0.000 A 
ATOM      4  C   UNL     1       0.787   9.029  22.527  0.00  0.00    +0.000 A 
ATOM      5  C   UNL     1      -0.057  10.101  22.794  0.00  0.00    +0.000 A 
ATOM      6  C   UNL     1      -0.570  10.912  21.771  0.00  0.00    +0.000 A 
ATOM      7  C   UNL     1      -0.075  10.721  20.446  0.00  0.00    +0.000 A 
ATOM      8  C   UNL     1       0.800   9.626  20.142  0.00  0.00    +0.000 A 
ATOM      9  C   UNL     1       1.514   9.102  18.983  0.00  0.00    +0.000 A 
ATOM     10  C   UNL     1       1.757   9.774  17.669  0.00  0.00    +0.000 C 
ATOM     11  H   UNL     1       1.983   6.876  21.216  0.00  0.00    +0.000 HD
ENDROOT
BRANCH   1  15
ATOM     12  C   UNL     1       4.034   4.584  17.377  0.00  0.00    +0.000 A 
ATOM     13  C   UNL     1       4.469   5.911  17.185  0.00  0.00    +0.000 A 
ATOM     14  C   UNL     1       3.835   6.989  17.821  0.00  0.00    +0.000 A 
ATOM     15  C   UNL     1       2.728   6.770  18.629  0.00  0.00    +0.000 A 
ATOM     16  C   UNL     1       2.237   5.453  18.714  0.00  0.00    +0.000 A 
ATOM     17  C   UNL     1       2.862   4.362  18.100  0.00  0.00    +0.000 A 
BRANCH  12  19
ATOM     18  C   UNL     1       5.667   3.876  15.830  0.00  0.00    +0.000 C 
ATOM     19  O   UNL     1       4.721   3.527  16.844  0.00  0.00    +0.000 OA
ENDBRANCH  12  19
BRANCH  17  20
ATOM     20  O   UNL     1       2.176   3.207  18.347  0.00  0.00    +0.000 OA
ATOM     21  C   UNL     1       1.871   2.838  19.678  0.00  0.00    +0.000 C 
ENDBRANCH  17  20
ENDBRANCH   1  15
BRANCH   6  22
ATOM     22  C   UNL     1      -1.797  11.771  22.123  0.00  0.00    +0.000 C 
ATOM     23  C   UNL     1      -2.437  12.577  20.993  0.00  0.00    +0.000 C 
ATOM     24  C   UNL     1      -1.548  13.745  20.576  0.00  0.00    +0.000 C 
ATOM     25  N   UNL     1      -1.093  14.613  21.665  0.00  0.00    +0.000 NA
ATOM     26  C   UNL     1      -0.860  13.982  22.960  0.00  0.00    +0.000 C 
ATOM     27  C   UNL     1      -1.681  12.748  23.302  0.00  0.00    +0.000 C 
BRANCH  25  28
ATOM     28  C   UNL     1      -0.055  15.587  21.224  0.00  0.00    +0.000 C 
ATOM     29  C   UNL     1       0.052  15.898  19.716  0.00  0.00    +0.000 C 
ATOM     30  C   UNL     1       0.757  14.815  18.905  0.00  0.00    +0.000 C 
ATOM     31  N   UNL     1       2.075  14.444  19.437  0.00  0.00    +0.000 NA
ATOM     32  C   UNL     1       2.550  13.233  18.755  0.00  0.00    +0.000 C 
ATOM     33  C   UNL     1       2.121  14.238  20.890  0.00  0.00    +0.000 C 
ATOM     34  C   UNL     1       1.372  15.287  21.719  0.00  0.00    +0.000 C 
ENDBRANCH  25  28
ENDBRANCH   6  22
TORSDOF 5
ENDMDL
MODEL 6
REMARK VINA RESULT:      -8.8      0.937      1.843
REMARK  Name = 
REMARK  9 active torsions:
REMARK  status: ('A' for Active; 'I' for Inactive)
REMARK    1  A    between atoms: C_1  and  O_2
REMARK    2  A    between atoms: O_2  and  C_3
REMARK    3  A    between atoms: C_6  and  C_7
REMARK    4  A    between atoms: C_12  and  C_13
REMARK    5  A    between atoms: N_16  and  C_17
REMARK    6  A    between atoms: N_20  and  C_21
REMARK    7  A    between atoms: C_28  and  C_29
REMARK    8  A    between atoms: C_31  and  O_32
REMARK    9  A    between atoms: O_32  and  C_33
REMARK                            x       y       z     vdW  Elec       q    Type
REMARK                         _______ _______ _______ _____ _____    ______ ____
ROOT
ATOM      1  C   UNL     1       0.198  10.366  20.643  0.00  0.00    +0.000 A 
ATOM      2  N   UNL     1       0.743  10.053  19.425  0.00  0.00    +0.000 N 
ATOM      3  C   UNL     1       1.417   8.863  19.451  0.00  0.00    +0.000 A 
ATOM      4  C   UNL     1       2.159   8.277  18.435  0.00  0.00    +0.000 A 
ATOM      5  C   UNL     1       2.560   6.957  18.612  0.00  0.00    +0.000 A 
ATOM      6  C   UNL     1       2.225   6.229  19.763  0.00  0.00    +0.000 A 
ATOM      7  C   UNL     1       1.599   6.924  20.842  0.00  0.00    +0.000 A 
ATOM      8  C   UNL     1       1.180   8.286  20.690  0.00  0.00    +0.000 A 
ATOM      9  C   UNL     1       0.550   9.320  21.503  0.00  0.00    +0.000 A 
ATOM     10  C   UNL     1       0.349   9.333  22.985  0.00  0.00    +0.000 C 
ATOM     11  H   UNL     1       0.655  10.620  18.595  0.00  0.00    +0.000 HD
ENDROOT
BRANCH   1  15
ATOM     12  C   UNL     1      -1.769  14.150  21.248  0.00  0.00    +0.000 A 
ATOM     13  C   UNL     1      -2.269  13.233  20.301  0.00  0.00    +0.000 A 
ATOM     14  C   UNL     1      -1.658  11.988  20.094  0.00  0.00    +0.000 A 
ATOM     15  C   UNL     1      -0.511  11.648  20.796  0.00  0.00    +0.000 A 
ATOM     16  C   UNL     1       0.041  12.622  21.649  0.00  0.00    +0.000 A 
ATOM     17  C   UNL     1      -0.560  13.865  21.882  0.00  0.00    +0.000 A 
BRANCH  12  19
ATOM     18  C   UNL     1      -3.848  15.256  21.356  0.00  0.00    +0.000 C 
ATOM     19  O   UNL     1      -2.430  15.316  21.526  0.00  0.00    +0.000 OA
ENDBRANCH  12  19
BRANCH  17  20
ATOM     20  O   UNL     1       0.186  14.610  22.751  0.00  0.00    +0.000 OA
ATOM     21  C   UNL     1       0.983  15.672  22.265  0.00  0.00    +0.000 C 
ENDBRANCH  17  20
ENDBRANCH   1  15
BRANCH   6  22
ATOM     22  C   UNL     1       2.339   4.697  19.667  0.00  0.00    +0.000 C 
ATOM     23  C   UNL     1       3.715   4.080  19.911  0.00  0.00    +0.000 C 
ATOM     24  C   UNL     1       4.666   4.376  18.755  0.00  0.00    +0.000 C 
ATOM     25  N   UNL     1       4.158   4.049  17.419  0.00  0.00    +0.000 NA
ATOM     26  C   UNL     1       2.724   4.199  17.203  0.00  0.00    +0.000 C 
ATOM     27  C   UNL     1       1.805   4.012  18.401  0.00  0.00    +0.000 C 
BRANCH  25  28
ATOM     28  C   UNL     1       5.034   4.569  16.332  0.00  0.00    +0.000 C 
ATOM     29  C   UNL     1       6.513   4.125  16.317  0.00  0.00    +0.000 C 
ATOM     30  C   UNL     1       7.390   4.845  17.337  0.00  0.00    +0.000 C 
ATOM     31  N   UNL     1       7.304   6.309  17.258  0.00  0.00    +0.000 NA
ATOM     32  C   UNL     1       7.968   6.898  18.428  0.00  0.00    +0.000 C 
ATOM     33  C   UNL     1       5.941   6.845  17.147  0.00  0.00    +0.000 C 
ATOM     34  C   UNL     1       5.028   6.101  16.167  0.00  0.00    +0.000 C 
ENDBRANCH  25  28
ENDBRANCH   6  22
TORSDOF 5
ENDMDL
MODEL 7
REMARK VINA RESULT:      -8.8      0.986      1.647
REMARK  Name = 
REMARK  9 active torsions:
REMARK  status: ('A' for Active; 'I' for Inactive)
REMARK    1  A    between atoms: C_1  and  O_2
REMARK    2  A    between atoms: O_2  and  C_3
REMARK    3  A    between atoms: C_6  and  C_7
REMARK    4  A    between atoms: C_12  and  C_13
REMARK    5  A    between atoms: N_16  and  C_17
REMARK    6  A    between atoms: N_20  and  C_21
REMARK    7  A    between atoms: C_28  and  C_29
REMARK    8  A    between atoms: C_31  and  O_32
REMARK    9  A    between atoms: O_32  and  C_33
REMARK                            x       y       z     vdW  Elec       q    Type
REMARK                         _______ _______ _______ _____ _____    ______ ____
ROOT
ATOM      1  C   UNL     1       0.386  10.420  20.182  0.00  0.00    +0.000 A 
ATOM      2  N   UNL     1       0.883  10.039  18.963  0.00  0.00    +0.000 N 
ATOM      3  C   UNL     1       1.546   8.844  19.025  0.00  0.00    +0.000 A 
ATOM      4  C   UNL     1       2.245   8.199  18.015  0.00  0.00    +0.000 A 
ATOM      5  C   UNL     1       2.639   6.885  18.245  0.00  0.00    +0.000 A 
ATOM      6  C   UNL     1       2.339   6.221  19.443  0.00  0.00    +0.000 A 
ATOM      7  C   UNL     1       1.759   6.977  20.507  0.00  0.00    +0.000 A 
ATOM      8  C   UNL     1       1.348   8.334  20.300  0.00  0.00    +0.000 A 
ATOM      9  C   UNL     1       0.758   9.416  21.081  0.00  0.00    +0.000 A 
ATOM     10  C   UNL     1       0.612   9.506  22.567  0.00  0.00    +0.000 C 
ATOM     11  H   UNL     1       0.771  10.565  18.108  0.00  0.00    +0.000 HD
ENDROOT
BRANCH   1  15
ATOM     12  C   UNL     1      -1.474  14.297  20.444  0.00  0.00    +0.000 A 
ATOM     13  C   UNL     1      -2.092  13.172  21.027  0.00  0.00    +0.000 A 
ATOM     14  C   UNL     1      -1.503  11.901  20.970  0.00  0.00    +0.000 A 
ATOM     15  C   UNL     1      -0.304  11.716  20.294  0.00  0.00    +0.000 A 
ATOM     16  C   UNL     1       0.237  12.826  19.619  0.00  0.00    +0.000 A 
ATOM     17  C   UNL     1      -0.327  14.106  19.675  0.00  0.00    +0.000 A 
BRANCH  12  19
ATOM     18  C   UNL     1      -2.674  15.774  21.836  0.00  0.00    +0.000 C 
ATOM     19  O   UNL     1      -1.996  15.553  20.596  0.00  0.00    +0.000 OA
ENDBRANCH  12  19
BRANCH  17  20
ATOM     20  O   UNL     1       0.402  14.991  18.932  0.00  0.00    +0.000 OA
ATOM     21  C   UNL     1       1.768  15.206  19.229  0.00  0.00    +0.000 C 
ENDBRANCH  17  20
ENDBRANCH   1  15
BRANCH   6  22
ATOM     22  C   UNL     1       2.435   4.685  19.422  0.00  0.00    +0.000 C 
ATOM     23  C   UNL     1       3.789   4.062  19.755  0.00  0.00    +0.000 C 
ATOM     24  C   UNL     1       4.794   4.292  18.632  0.00  0.00    +0.000 C 
ATOM     25  N   UNL     1       4.343   3.911  17.291  0.00  0.00    +0.000 NA
ATOM     26  C   UNL     1       2.921   4.069  17.003  0.00  0.00    +0.000 C 
ATOM     27  C   UNL     1       1.947   3.949  18.166  0.00  0.00    +0.000 C 
BRANCH  25  28
ATOM     28  C   UNL     1       5.274   4.370  16.222  0.00  0.00    +0.000 C 
ATOM     29  C   UNL     1       6.767   3.998  16.353  0.00  0.00    +0.000 C 
ATOM     30  C   UNL     1       7.535   4.853  17.357  0.00  0.00    +0.000 C 
ATOM     31  N   UNL     1       7.393   6.297  17.131  0.00  0.00    +0.000 NA
ATOM     32  C   UNL     1       7.944   7.024  18.282  0.00  0.00    +0.000 C 
ATOM     33  C   UNL     1       6.021   6.753  16.874  0.00  0.00    +0.000 C 
ATOM     34  C   UNL     1       5.215   5.877  15.910  0.00  0.00    +0.000 C 
ENDBRANCH  25  28
ENDBRANCH   6  22
TORSDOF 5
ENDMDL
MODEL 8
REMARK VINA RESULT:      -8.7      3.995     10.236
REMARK  Name = 
REMARK  9 active torsions:
REMARK  status: ('A' for Active; 'I' for Inactive)
REMARK    1  A    between atoms: C_1  and  O_2
REMARK    2  A    between atoms: O_2  and  C_3
REMARK    3  A    between atoms: C_6  and  C_7
REMARK    4  A    between atoms: C_12  and  C_13
REMARK    5  A    between atoms: N_16  and  C_17
REMARK    6  A    between atoms: N_20  and  C_21
REMARK    7  A    between atoms: C_28  and  C_29
REMARK    8  A    between atoms: C_31  and  O_32
REMARK    9  A    between atoms: O_32  and  C_33
REMARK                            x       y       z     vdW  Elec       q    Type
REMARK                         _______ _______ _______ _____ _____    ______ ____
ROOT
ATOM      1  C   UNL     1       1.700   7.591  20.083  0.00  0.00    +0.000 A 
ATOM      2  N   UNL     1       1.308   7.664  21.394  0.00  0.00    +0.000 N 
ATOM      3  C   UNL     1       0.747   8.873  21.700  0.00  0.00    +0.000 A 
ATOM      4  C   UNL     1       0.320   9.331  22.939  0.00  0.00    +0.000 A 
ATOM      5  C   UNL     1      -0.431  10.501  22.967  0.00  0.00    +0.000 A 
ATOM      6  C   UNL     1      -0.759  11.199  21.796  0.00  0.00    +0.000 A 
ATOM      7  C   UNL     1      -0.164  10.775  20.569  0.00  0.00    +0.000 A 
ATOM      8  C   UNL     1       0.619   9.576  20.511  0.00  0.00    +0.000 A 
ATOM      9  C   UNL     1       1.381   8.829  19.516  0.00  0.00    +0.000 A 
ATOM     10  C   UNL     1       1.814   9.281  18.158  0.00  0.00    +0.000 C 
ATOM     11  H   UNL     1       1.406   6.915  22.065  0.00  0.00    +0.000 HD
ENDROOT
BRANCH   1  15
ATOM     12  C   UNL     1       3.672   3.956  18.879  0.00  0.00    +0.000 A 
ATOM     13  C   UNL     1       3.614   5.057  18.000  0.00  0.00    +0.000 A 
ATOM     14  C   UNL     1       2.992   6.258  18.371  0.00  0.00    +0.000 A 
ATOM     15  C   UNL     1       2.378   6.372  19.610  0.00  0.00    +0.000 A 
ATOM     16  C   UNL     1       2.343   5.225  20.426  0.00  0.00    +0.000 A 
ATOM     17  C   UNL     1       2.970   4.022  20.082  0.00  0.00    +0.000 A 
BRANCH  12  19
ATOM     18  C   UNL     1       3.584   1.760  18.026  0.00  0.00    +0.000 C 
ATOM     19  O   UNL     1       4.375   2.826  18.557  0.00  0.00    +0.000 OA
ENDBRANCH  12  19
BRANCH  17  20
ATOM     20  O   UNL     1       2.780   3.080  21.053  0.00  0.00    +0.000 OA
ATOM     21  C   UNL     1       1.469   2.734  21.453  0.00  0.00    +0.000 C 
ENDBRANCH  17  20
ENDBRANCH   1  15
BRANCH   6  22
ATOM     22  C   UNL     1      -1.920  12.204  21.895  0.00  0.00    +0.000 C 
ATOM     23  C   UNL     1      -2.256  13.014  20.643  0.00  0.00    +0.000 C 
ATOM     24  C   UNL     1      -1.178  14.054  20.353  0.00  0.00    +0.000 C 
ATOM     25  N   UNL     1      -0.819  14.924  21.476  0.00  0.00    +0.000 NA
ATOM     26  C   UNL     1      -0.889  14.341  22.811  0.00  0.00    +0.000 C 
ATOM     27  C   UNL     1      -1.895  13.224  23.043  0.00  0.00    +0.000 C 
BRANCH  25  28
ATOM     28  C   UNL     1       0.387  15.753  21.194  0.00  0.00    +0.000 C 
ATOM     29  C   UNL     1       0.239  17.289  21.250  0.00  0.00    +0.000 C 
ATOM     30  C   UNL     1      -0.436  17.895  20.023  0.00  0.00    +0.000 C 
ATOM     31  N   UNL     1       0.183  17.495  18.753  0.00  0.00    +0.000 NA
ATOM     32  C   UNL     1      -0.682  17.910  17.640  0.00  0.00    +0.000 C 
ATOM     33  C   UNL     1       0.481  16.062  18.633  0.00  0.00    +0.000 C 
ATOM     34  C   UNL     1       1.110  15.423  19.875  0.00  0.00    +0.000 C 
ENDBRANCH  25  28
ENDBRANCH   6  22
TORSDOF 5
ENDMDL
MODEL 9
REMARK VINA RESULT:      -8.7      3.953      9.482
REMARK  Name = 
REMARK  9 active torsions:
REMARK  status: ('A' for Active; 'I' for Inactive)
REMARK    1  A    between atoms: C_1  and  O_2
REMARK    2  A    between atoms: O_2  and  C_3
REMARK    3  A    between atoms: C_6  and  C_7
REMARK    4  A    between atoms: C_12  and  C_13
REMARK    5  A    between atoms: N_16  and  C_17
REMARK    6  A    between atoms: N_20  and  C_21
REMARK    7  A    between atoms: C_28  and  C_29
REMARK    8  A    between atoms: C_31  and  O_32
REMARK    9  A    between atoms: O_32  and  C_33
REMARK                            x       y       z     vdW  Elec       q    Type
REMARK                         _______ _______ _______ _____ _____    ______ ____
ROOT
ATOM      1  C   UNL     1       2.046   7.217  19.968  0.00  0.00    +0.000 A 
ATOM      2  N   UNL     1       1.600   7.527  21.226  0.00  0.00    +0.000 N 
ATOM      3  C   UNL     1       1.075   8.788  21.293  0.00  0.00    +0.000 A 
ATOM      4  C   UNL     1       0.612   9.465  22.413  0.00  0.00    +0.000 A 
ATOM      5  C   UNL     1      -0.091  10.647  22.203  0.00  0.00    +0.000 A 
ATOM      6  C   UNL     1      -0.338  11.144  20.915  0.00  0.00    +0.000 A 
ATOM      7  C   UNL     1       0.294  10.497  19.810  0.00  0.00    +0.000 A 
ATOM      8  C   UNL     1       1.029   9.280  19.997  0.00  0.00    +0.000 A 
ATOM      9  C   UNL     1       1.803   8.350  19.183  0.00  0.00    +0.000 A 
ATOM     10  C   UNL     1       2.315   8.547  17.792  0.00  0.00    +0.000 C 
ATOM     11  H   UNL     1       1.637   6.901  22.018  0.00  0.00    +0.000 HD
ENDROOT
BRANCH   1  15
ATOM     12  C   UNL     1       3.816   3.326  19.436  0.00  0.00    +0.000 A 
ATOM     13  C   UNL     1       4.452   4.473  18.918  0.00  0.00    +0.000 A 
ATOM     14  C   UNL     1       3.906   5.753  19.088  0.00  0.00    +0.000 A 
ATOM     15  C   UNL     1       2.694   5.914  19.744  0.00  0.00    +0.000 A 
ATOM     16  C   UNL     1       2.017   4.749  20.151  0.00  0.00    +0.000 A 
ATOM     17  C   UNL     1       2.549   3.463  20.004  0.00  0.00    +0.000 A 
BRANCH  12  19
ATOM     18  C   UNL     1       3.859   1.225  18.367  0.00  0.00    +0.000 C 
ATOM     19  O   UNL     1       4.405   2.093  19.364  0.00  0.00    +0.000 OA
ENDBRANCH  12  19
BRANCH  17  20
ATOM     20  O   UNL     1       1.684   2.520  20.484  0.00  0.00    +0.000 OA
ATOM     21  C   UNL     1       1.336   2.515  21.854  0.00  0.00    +0.000 C 
ENDBRANCH  17  20
ENDBRANCH   1  15
BRANCH   6  22
ATOM     22  C   UNL     1      -1.460  12.188  20.783  0.00  0.00    +0.000 C 
ATOM     23  C   UNL     1      -1.859  12.614  19.371  0.00  0.00    +0.000 C 
ATOM     24  C   UNL     1      -0.776  13.471  18.725  0.00  0.00    +0.000 C 
ATOM     25  N   UNL     1      -0.314  14.613  19.520  0.00  0.00    +0.000 NA
ATOM     26  C   UNL     1      -0.307  14.448  20.970  0.00  0.00    +0.000 C 
ATOM     27  C   UNL     1      -1.326  13.496  21.578  0.00  0.00    +0.000 C 
BRANCH  25  28
ATOM     28  C   UNL     1       0.891  15.266  18.938  0.00  0.00    +0.000 C 
ATOM     29  C   UNL     1       2.044  14.359  18.454  0.00  0.00    +0.000 C 
ATOM     30  C   UNL     1       2.915  13.806  19.577  0.00  0.00    +0.000 C 
ATOM     31  N   UNL     1       3.434  14.839  20.483  0.00  0.00    +0.000 NA
ATOM     32  C   UNL     1       4.033  14.196  21.660  0.00  0.00    +0.000 C 
ATOM     33  C   UNL     1       2.446  15.835  20.918  0.00  0.00    +0.000 C 
ATOM     34  C   UNL     1       1.526  16.362  19.813  0.00  0.00    +0.000 C 
ENDBRANCH  25  28
ENDBRANCH   6  22
TORSDOF 5
ENDMDL
