MODEL 1
REMARK VINA RESULT:      -6.3      0.000      0.000
REMARK  Name = 
REMARK  14 active torsions:
REMARK  status: ('A' for Active; 'I' for Inactive)
REMARK    1  A    between atoms: C_1  and  C_2
REMARK    2  A    between atoms: C_2  and  C_3
REMARK    3  A    between atoms: C_2  and  C_4
REMARK    4  A    between atoms: C_2  and  S_5
REMARK    5  A    between atoms: S_5  and  C_6
REMARK    6  A    between atoms: C_6  and  C_7
REMARK    7  A    between atoms: C_7  and  N_8
REMARK    8  A    between atoms: C_7  and  C_21
REMARK    9  A    between atoms: C_9  and  C_11
REMARK   10  A    between atoms: C_11  and  C_12
REMARK   11  A    between atoms: C_11  and  C_14
REMARK   12  A    between atoms: C_12  and  S_13
REMARK   13  A    between atoms: C_14  and  C_15
REMARK   14  A    between atoms: C_21  and  O_23
REMARK                            x       y       z     vdW  Elec       q    Type
REMARK                         _______ _______ _______ _____ _____    ______ ____
ROOT
ATOM      1  N   UNK A   1       4.158   6.492  17.715  0.00  0.00    +0.000 N 
ATOM      2  C   UNK A   0       5.345   5.858  18.024  0.00  0.00    +0.000 C 
ATOM      3  O   UNK A   0       5.577   5.507  19.176  0.00  0.00    +0.000 OA
ATOM      4  H   UNK A   1       3.982   6.792  16.762  0.00  0.00    +0.000 HD
ENDROOT
BRANCH   1   5
ATOM      5  C   UNK A   1       3.067   6.629  18.691  0.00  0.00    +0.000 C 
BRANCH   5   6
ATOM      6  C   UNK A   1       2.345   7.959  18.452  0.00  0.00    +0.000 C 
ATOM      7  O   UNK A   1       1.662   8.544  19.289  0.00  0.00    +0.000 OA
BRANCH   6   8
ATOM      8  O   UNK A   1       2.564   8.478  17.220  0.00  0.00    +0.000 OA
ATOM      9  H   UNK A   1       2.821   7.786  16.563  0.00  0.00    +0.000 HD
ENDBRANCH   6   8
ENDBRANCH   5   6
BRANCH   5  10
ATOM     10  C   UNK A   1       2.066   5.468  18.620  0.00  0.00    +0.000 C 
BRANCH  10  11
ATOM     11  S   UNK A   1       1.548   4.958  20.306  0.00  0.00    +0.000 S 
BRANCH  11  13
ATOM     12  C   UNK A   1       1.543   2.513  21.635  0.00  0.00    +0.000 C 
ATOM     13  C   UNK A   1       1.839   3.131  20.264  0.00  0.00    +0.000 C 
ATOM     14  C   UNK A   1       3.272   2.814  19.824  0.00  0.00    +0.000 C 
ATOM     15  C   UNK A   1       0.857   2.558  19.230  0.00  0.00    +0.000 C 
ENDBRANCH  11  13
ENDBRANCH  10  11
ENDBRANCH   5  10
ENDBRANCH   1   5
BRANCH   2  16
ATOM     16  C   UNK A   0       6.375   5.851  16.906  0.00  0.00    +0.000 C 
BRANCH  16  17
ATOM     17  C   UNK A   0       7.658   6.401  17.546  0.00  0.00    +0.000 C 
BRANCH  17  18
ATOM     18  S   UNK A   0       7.718   8.217  17.629  0.00  0.00    +0.000 S 
ATOM     19  H   UNK A   0       8.684   8.305  18.556  0.00  0.00    +0.000 HD
ENDBRANCH  17  18
ENDBRANCH  16  17
BRANCH  16  20
ATOM     20  C   UNK A   0       6.544   4.435  16.325  0.00  0.00    +0.000 C 
BRANCH  20  21
ATOM     21  C   UNK A   0       6.646   4.445  14.818  0.00  0.00    +0.000 A 
ATOM     22  C   UNK A   0       5.823   3.617  14.040  0.00  0.00    +0.000 A 
ATOM     23  C   UNK A   0       6.007   3.539  12.660  0.00  0.00    +0.000 A 
ATOM     24  C   UNK A   0       6.993   4.305  12.045  0.00  0.00    +0.000 A 
ATOM     25  C   UNK A   0       7.778   5.173  12.801  0.00  0.00    +0.000 A 
ATOM     26  C   UNK A   0       7.604   5.245  14.183  0.00  0.00    +0.000 A 
ENDBRANCH  20  21
ENDBRANCH  16  20
ENDBRANCH   2  16
TORSDOF 11
ENDMDL
MODEL 2
REMARK VINA RESULT:      -6.2      4.029      7.129
REMARK  Name = 
REMARK  14 active torsions:
REMARK  status: ('A' for Active; 'I' for Inactive)
REMARK    1  A    between atoms: C_1  and  C_2
REMARK    2  A    between atoms: C_2  and  C_3
REMARK    3  A    between atoms: C_2  and  C_4
REMARK    4  A    between atoms: C_2  and  S_5
REMARK    5  A    between atoms: S_5  and  C_6
REMARK    6  A    between atoms: C_6  and  C_7
REMARK    7  A    between atoms: C_7  and  N_8
REMARK    8  A    between atoms: C_7  and  C_21
REMARK    9  A    between atoms: C_9  and  C_11
REMARK   10  A    between atoms: C_11  and  C_12
REMARK   11  A    between atoms: C_11  and  C_14
REMARK   12  A    between atoms: C_12  and  S_13
REMARK   13  A    between atoms: C_14  and  C_15
REMARK   14  A    between atoms: C_21  and  O_23
REMARK                            x       y       z     vdW  Elec       q    Type
REMARK                         _______ _______ _______ _____ _____    ______ ____
ROOT
ATOM      1  N   UNK A   1       1.448   8.989  19.324  0.00  0.00    +0.000 N 
ATOM      2  C   UNK A   0       2.151   8.651  18.185  0.00  0.00    +0.000 C 
ATOM      3  O   UNK A   0       2.234   9.443  17.252  0.00  0.00    +0.000 OA
ATOM      4  H   UNK A   1       1.372   8.321  20.084  0.00  0.00    +0.000 HD
ENDROOT
BRANCH   1   5
ATOM      5  C   UNK A   1       0.916  10.342  19.544  0.00  0.00    +0.000 C 
BRANCH   5   6
ATOM      6  C   UNK A   1      -0.440  10.467  18.843  0.00  0.00    +0.000 C 
ATOM      7  O   UNK A   1      -1.480   9.943  19.236  0.00  0.00    +0.000 OA
BRANCH   6   8
ATOM      8  O   UNK A   1      -0.412  11.264  17.748  0.00  0.00    +0.000 OA
ATOM      9  H   UNK A   1       0.311  11.935  17.794  0.00  0.00    +0.000 HD
ENDBRANCH   6   8
ENDBRANCH   5   6
BRANCH   5  10
ATOM     10  C   UNK A   1       0.770  10.681  21.034  0.00  0.00    +0.000 C 
BRANCH  10  11
ATOM     11  S   UNK A   1       0.311  12.445  21.252  0.00  0.00    +0.000 S 
BRANCH  11  13
ATOM     12  C   UNK A   1      -1.248  10.990  23.041  0.00  0.00    +0.000 C 
ATOM     13  C   UNK A   1      -1.220  12.322  22.283  0.00  0.00    +0.000 C 
ATOM     14  C   UNK A   1      -2.477  12.483  21.421  0.00  0.00    +0.000 C 
ATOM     15  C   UNK A   1      -1.155  13.476  23.297  0.00  0.00    +0.000 C 
ENDBRANCH  11  13
ENDBRANCH  10  11
ENDBRANCH   5  10
ENDBRANCH   1   5
BRANCH   2  16
ATOM     16  C   UNK A   0       2.585   7.196  18.110  0.00  0.00    +0.000 C 
BRANCH  16  17
ATOM     17  C   UNK A   0       3.941   7.224  17.389  0.00  0.00    +0.000 C 
BRANCH  17  18
ATOM     18  S   UNK A   0       5.113   5.963  17.976  0.00  0.00    +0.000 S 
ATOM     19  H   UNK A   0       5.348   5.393  16.785  0.00  0.00    +0.000 HD
ENDBRANCH  17  18
ENDBRANCH  16  17
BRANCH  16  20
ATOM     20  C   UNK A   0       2.656   6.572  19.515  0.00  0.00    +0.000 C 
BRANCH  20  21
ATOM     21  C   UNK A   0       2.002   5.212  19.570  0.00  0.00    +0.000 A 
ATOM     22  C   UNK A   0       1.700   4.613  20.802  0.00  0.00    +0.000 A 
ATOM     23  C   UNK A   0       1.211   3.308  20.848  0.00  0.00    +0.000 A 
ATOM     24  C   UNK A   0       0.994   2.603  19.667  0.00  0.00    +0.000 A 
ATOM     25  C   UNK A   0       1.236   3.210  18.437  0.00  0.00    +0.000 A 
ATOM     26  C   UNK A   0       1.736   4.511  18.387  0.00  0.00    +0.000 A 
ENDBRANCH  20  21
ENDBRANCH  16  20
ENDBRANCH   2  16
TORSDOF 11
ENDMDL
MODEL 3
REMARK VINA RESULT:      -6.0      0.898      1.201
REMARK  Name = 
REMARK  14 active torsions:
REMARK  status: ('A' for Active; 'I' for Inactive)
REMARK    1  A    between atoms: C_1  and  C_2
REMARK    2  A    between atoms: C_2  and  C_3
REMARK    3  A    between atoms: C_2  and  C_4
REMARK    4  A    between atoms: C_2  and  S_5
REMARK    5  A    between atoms: S_5  and  C_6
REMARK    6  A    between atoms: C_6  and  C_7
REMARK    7  A    between atoms: C_7  and  N_8
REMARK    8  A    between atoms: C_7  and  C_21
REMARK    9  A    between atoms: C_9  and  C_11
REMARK   10  A    between atoms: C_11  and  C_12
REMARK   11  A    between atoms: C_11  and  C_14
REMARK   12  A    between atoms: C_12  and  S_13
REMARK   13  A    between atoms: C_14  and  C_15
REMARK   14  A    between atoms: C_21  and  O_23
REMARK                            x       y       z     vdW  Elec       q    Type
REMARK                         _______ _______ _______ _____ _____    ______ ____
ROOT
ATOM      1  N   UNK A   1       3.878   6.614  17.942  0.00  0.00    +0.000 N 
ATOM      2  C   UNK A   0       5.007   5.830  18.071  0.00  0.00    +0.000 C 
ATOM      3  O   UNK A   0       5.358   5.429  19.176  0.00  0.00    +0.000 OA
ATOM      4  H   UNK A   1       3.605   6.954  17.025  0.00  0.00    +0.000 HD
ENDROOT
BRANCH   1   5
ATOM      5  C   UNK A   1       2.966   6.865  19.068  0.00  0.00    +0.000 C 
BRANCH   5   6
ATOM      6  C   UNK A   1       2.076   8.066  18.733  0.00  0.00    +0.000 C 
ATOM      7  O   UNK A   1       1.868   8.486  17.597  0.00  0.00    +0.000 OA
BRANCH   6   8
ATOM      8  O   UNK A   1       1.479   8.615  19.817  0.00  0.00    +0.000 OA
ATOM      9  H   UNK A   1       1.070   7.933  20.404  0.00  0.00    +0.000 HD
ENDBRANCH   6   8
ENDBRANCH   5   6
BRANCH   5  10
ATOM     10  C   UNK A   1       2.097   5.645  19.403  0.00  0.00    +0.000 C 
BRANCH  10  11
ATOM     11  S   UNK A   1       1.932   4.550  17.940  0.00  0.00    +0.000 S 
BRANCH  11  13
ATOM     12  C   UNK A   1       2.872   3.008  20.058  0.00  0.00    +0.000 C 
ATOM     13  C   UNK A   1       2.227   2.876  18.673  0.00  0.00    +0.000 C 
ATOM     14  C   UNK A   1       3.096   2.018  17.749  0.00  0.00    +0.000 C 
ATOM     15  C   UNK A   1       0.846   2.218  18.822  0.00  0.00    +0.000 C 
ENDBRANCH  11  13
ENDBRANCH  10  11
ENDBRANCH   5  10
ENDBRANCH   1   5
BRANCH   2  16
ATOM     16  C   UNK A   0       5.855   5.719  16.814  0.00  0.00    +0.000 C 
BRANCH  16  17
ATOM     17  C   UNK A   0       7.291   6.003  17.278  0.00  0.00    +0.000 C 
BRANCH  17  18
ATOM     18  S   UNK A   0       7.640   7.767  17.552  0.00  0.00    +0.000 S 
ATOM     19  H   UNK A   0       8.935   7.732  17.205  0.00  0.00    +0.000 HD
ENDBRANCH  17  18
ENDBRANCH  16  17
BRANCH  16  20
ATOM     20  C   UNK A   0       5.689   4.334  16.162  0.00  0.00    +0.000 C 
BRANCH  20  21
ATOM     21  C   UNK A   0       6.096   4.335  14.708  0.00  0.00    +0.000 A 
ATOM     22  C   UNK A   0       5.409   3.546  13.772  0.00  0.00    +0.000 A 
ATOM     23  C   UNK A   0       5.866   3.456  12.458  0.00  0.00    +0.000 A 
ATOM     24  C   UNK A   0       6.993   4.172  12.062  0.00  0.00    +0.000 A 
ATOM     25  C   UNK A   0       7.648   5.003  12.968  0.00  0.00    +0.000 A 
ATOM     26  C   UNK A   0       7.200   5.087  14.286  0.00  0.00    +0.000 A 
ENDBRANCH  20  21
ENDBRANCH  16  20
ENDBRANCH   2  16
TORSDOF 11
ENDMDL
MODEL 4
REMARK VINA RESULT:      -6.0      1.906      2.680
REMARK  Name = 
REMARK  14 active torsions:
REMARK  status: ('A' for Active; 'I' for Inactive)
REMARK    1  A    between atoms: C_1  and  C_2
REMARK    2  A    between atoms: C_2  and  C_3
REMARK    3  A    between atoms: C_2  and  C_4
REMARK    4  A    between atoms: C_2  and  S_5
REMARK    5  A    between atoms: S_5  and  C_6
REMARK    6  A    between atoms: C_6  and  C_7
REMARK    7  A    between atoms: C_7  and  N_8
REMARK    8  A    between atoms: C_7  and  C_21
REMARK    9  A    between atoms: C_9  and  C_11
REMARK   10  A    between atoms: C_11  and  C_12
REMARK   11  A    between atoms: C_11  and  C_14
REMARK   12  A    between atoms: C_12  and  S_13
REMARK   13  A    between atoms: C_14  and  C_15
REMARK   14  A    between atoms: C_21  and  O_23
REMARK                            x       y       z     vdW  Elec       q    Type
REMARK                         _______ _______ _______ _____ _____    ______ ____
ROOT
ATOM      1  N   UNK A   1       5.139   4.866  17.462  0.00  0.00    +0.000 N 
ATOM      2  C   UNK A   0       5.323   6.158  17.010  0.00  0.00    +0.000 C 
ATOM      3  O   UNK A   0       4.384   6.946  16.992  0.00  0.00    +0.000 OA
ATOM      4  H   UNK A   1       5.919   4.217  17.459  0.00  0.00    +0.000 HD
ENDROOT
BRANCH   1   5
ATOM      5  C   UNK A   1       3.881   4.427  18.085  0.00  0.00    +0.000 C 
BRANCH   5   6
ATOM      6  C   UNK A   1       3.413   3.135  17.409  0.00  0.00    +0.000 C 
ATOM      7  O   UNK A   1       2.308   2.977  16.894  0.00  0.00    +0.000 OA
BRANCH   6   8
ATOM      8  O   UNK A   1       4.358   2.166  17.381  0.00  0.00    +0.000 OA
ATOM      9  H   UNK A   1       4.054   1.361  16.896  0.00  0.00    +0.000 HD
ENDBRANCH   6   8
ENDBRANCH   5   6
BRANCH   5  10
ATOM     10  C   UNK A   1       4.021   4.207  19.598  0.00  0.00    +0.000 C 
BRANCH  10  11
ATOM     11  S   UNK A   1       3.201   2.643  20.100  0.00  0.00    +0.000 S 
BRANCH  11  13
ATOM     12  C   UNK A   1       1.540   4.774  20.769  0.00  0.00    +0.000 C 
ATOM     13  C   UNK A   1       1.553   3.244  20.691  0.00  0.00    +0.000 C 
ATOM     14  C   UNK A   1       1.199   2.627  22.048  0.00  0.00    +0.000 C 
ATOM     15  C   UNK A   1       0.524   2.785  19.645  0.00  0.00    +0.000 C 
ENDBRANCH  11  13
ENDBRANCH  10  11
ENDBRANCH   5  10
ENDBRANCH   1   5
BRANCH   2  16
ATOM     16  C   UNK A   0       6.669   6.419  16.354  0.00  0.00    +0.000 C 
BRANCH  16  17
ATOM     17  C   UNK A   0       7.480   7.192  17.405  0.00  0.00    +0.000 C 
BRANCH  17  18
ATOM     18  S   UNK A   0       7.887   6.216  18.884  0.00  0.00    +0.000 S 
ATOM     19  H   UNK A   0       8.780   5.402  18.301  0.00  0.00    +0.000 HD
ENDBRANCH  17  18
ENDBRANCH  16  17
BRANCH  16  20
ATOM     20  C   UNK A   0       7.334   5.099  15.922  0.00  0.00    +0.000 C 
BRANCH  20  21
ATOM     21  C   UNK A   0       7.031   4.749  14.485  0.00  0.00    +0.000 A 
ATOM     22  C   UNK A   0       6.009   3.841  14.170  0.00  0.00    +0.000 A 
ATOM     23  C   UNK A   0       5.817   3.429  12.852  0.00  0.00    +0.000 A 
ATOM     24  C   UNK A   0       6.621   3.940  11.837  0.00  0.00    +0.000 A 
ATOM     25  C   UNK A   0       7.601   4.886  12.132  0.00  0.00    +0.000 A 
ATOM     26  C   UNK A   0       7.804   5.293  13.451  0.00  0.00    +0.000 A 
ENDBRANCH  20  21
ENDBRANCH  16  20
ENDBRANCH   2  16
TORSDOF 11
ENDMDL
MODEL 5
REMARK VINA RESULT:      -5.9      1.957      6.690
REMARK  Name = 
REMARK  14 active torsions:
REMARK  status: ('A' for Active; 'I' for Inactive)
REMARK    1  A    between atoms: C_1  and  C_2
REMARK    2  A    between atoms: C_2  and  C_3
REMARK    3  A    between atoms: C_2  and  C_4
REMARK    4  A    between atoms: C_2  and  S_5
REMARK    5  A    between atoms: S_5  and  C_6
REMARK    6  A    between atoms: C_6  and  C_7
REMARK    7  A    between atoms: C_7  and  N_8
REMARK    8  A    between atoms: C_7  and  C_21
REMARK    9  A    between atoms: C_9  and  C_11
REMARK   10  A    between atoms: C_11  and  C_12
REMARK   11  A    between atoms: C_11  and  C_14
REMARK   12  A    between atoms: C_12  and  S_13
REMARK   13  A    between atoms: C_14  and  C_15
REMARK   14  A    between atoms: C_21  and  O_23
REMARK                            x       y       z     vdW  Elec       q    Type
REMARK                         _______ _______ _______ _____ _____    ______ ____
ROOT
ATOM      1  N   UNK A   1       5.244   5.833  18.318  0.00  0.00    +0.000 N 
ATOM      2  C   UNK A   0       4.321   6.757  17.872  0.00  0.00    +0.000 C 
ATOM      3  O   UNK A   0       4.664   7.654  17.109  0.00  0.00    +0.000 OA
ATOM      4  H   UNK A   1       4.954   5.103  18.962  0.00  0.00    +0.000 HD
ENDROOT
BRANCH   1   5
ATOM      5  C   UNK A   1       6.615   5.776  17.788  0.00  0.00    +0.000 C 
BRANCH   5   6
ATOM      6  C   UNK A   1       7.597   6.166  18.897  0.00  0.00    +0.000 C 
ATOM      7  O   UNK A   1       8.391   7.102  18.829  0.00  0.00    +0.000 OA
BRANCH   6   8
ATOM      8  O   UNK A   1       7.485   5.403  20.010  0.00  0.00    +0.000 OA
ATOM      9  H   UNK A   1       7.636   5.923  20.836  0.00  0.00    +0.000 HD
ENDBRANCH   6   8
ENDBRANCH   5   6
BRANCH   5  10
ATOM     10  C   UNK A   1       6.972   4.390  17.233  0.00  0.00    +0.000 C 
BRANCH  10  11
ATOM     11  S   UNK A   1       5.627   3.761  16.154  0.00  0.00    +0.000 S 
BRANCH  11  13
ATOM     12  C   UNK A   1       5.212   5.863  14.377  0.00  0.00    +0.000 C 
ATOM     13  C   UNK A   1       6.019   4.570  14.536  0.00  0.00    +0.000 C 
ATOM     14  C   UNK A   1       5.752   3.616  13.367  0.00  0.00    +0.000 C 
ATOM     15  C   UNK A   1       7.517   4.912  14.574  0.00  0.00    +0.000 C 
ENDBRANCH  11  13
ENDBRANCH  10  11
ENDBRANCH   5  10
ENDBRANCH   1   5
BRANCH   2  16
ATOM     16  C   UNK A   0       2.970   6.696  18.566  0.00  0.00    +0.000 C 
BRANCH  16  17
ATOM     17  C   UNK A   0       2.302   8.043  18.251  0.00  0.00    +0.000 C 
BRANCH  17  18
ATOM     18  S   UNK A   0       1.397   8.762  19.655  0.00  0.00    +0.000 S 
ATOM     19  H   UNK A   0       1.163   9.961  19.099  0.00  0.00    +0.000 HD
ENDBRANCH  17  18
ENDBRANCH  16  17
BRANCH  16  20
ATOM     20  C   UNK A   0       2.156   5.484  18.078  0.00  0.00    +0.000 C 
BRANCH  20  21
ATOM     21  C   UNK A   0       1.988   4.438  19.153  0.00  0.00    +0.000 A 
ATOM     22  C   UNK A   0       1.453   3.177  18.848  0.00  0.00    +0.000 A 
ATOM     23  C   UNK A   0       1.185   2.262  19.865  0.00  0.00    +0.000 A 
ATOM     24  C   UNK A   0       1.474   2.586  21.188  0.00  0.00    +0.000 A 
ATOM     25  C   UNK A   0       2.058   3.813  21.495  0.00  0.00    +0.000 A 
ATOM     26  C   UNK A   0       2.317   4.736  20.482  0.00  0.00    +0.000 A 
ENDBRANCH  20  21
ENDBRANCH  16  20
ENDBRANCH   2  16
TORSDOF 11
ENDMDL
MODEL 6
REMARK VINA RESULT:      -5.9      1.741      2.266
REMARK  Name = 
REMARK  14 active torsions:
REMARK  status: ('A' for Active; 'I' for Inactive)
REMARK    1  A    between atoms: C_1  and  C_2
REMARK    2  A    between atoms: C_2  and  C_3
REMARK    3  A    between atoms: C_2  and  C_4
REMARK    4  A    between atoms: C_2  and  S_5
REMARK    5  A    between atoms: S_5  and  C_6
REMARK    6  A    between atoms: C_6  and  C_7
REMARK    7  A    between atoms: C_7  and  N_8
REMARK    8  A    between atoms: C_7  and  C_21
REMARK    9  A    between atoms: C_9  and  C_11
REMARK   10  A    between atoms: C_11  and  C_12
REMARK   11  A    between atoms: C_11  and  C_14
REMARK   12  A    between atoms: C_12  and  S_13
REMARK   13  A    between atoms: C_14  and  C_15
REMARK   14  A    between atoms: C_21  and  O_23
REMARK                            x       y       z     vdW  Elec       q    Type
REMARK                         _______ _______ _______ _____ _____    ______ ____
ROOT
ATOM      1  N   UNK A   1       4.800   5.202  17.490  0.00  0.00    +0.000 N 
ATOM      2  C   UNK A   0       5.199   6.429  17.000  0.00  0.00    +0.000 C 
ATOM      3  O   UNK A   0       4.385   7.336  16.869  0.00  0.00    +0.000 OA
ATOM      4  H   UNK A   1       5.478   4.452  17.581  0.00  0.00    +0.000 HD
ENDROOT
BRANCH   1   5
ATOM      5  C   UNK A   1       3.448   4.973  18.024  0.00  0.00    +0.000 C 
BRANCH   5   6
ATOM      6  C   UNK A   1       2.875   3.695  17.404  0.00  0.00    +0.000 C 
ATOM      7  O   UNK A   1       1.789   3.621  16.835  0.00  0.00    +0.000 OA
BRANCH   6   8
ATOM      8  O   UNK A   1       3.708   2.630  17.495  0.00  0.00    +0.000 OA
ATOM      9  H   UNK A   1       3.274   1.791  17.209  0.00  0.00    +0.000 HD
ENDBRANCH   6   8
ENDBRANCH   5   6
BRANCH   5  10
ATOM     10  C   UNK A   1       3.431   4.868  19.555  0.00  0.00    +0.000 C 
BRANCH  10  11
ATOM     11  S   UNK A   1       1.731   4.534  20.159  0.00  0.00    +0.000 S 
BRANCH  11  13
ATOM     12  C   UNK A   1       1.181   2.645  22.128  0.00  0.00    +0.000 C 
ATOM     13  C   UNK A   1       1.872   2.792  20.768  0.00  0.00    +0.000 C 
ATOM     14  C   UNK A   1       3.339   2.358  20.853  0.00  0.00    +0.000 C 
ATOM     15  C   UNK A   1       1.146   1.912  19.737  0.00  0.00    +0.000 C 
ENDBRANCH  11  13
ENDBRANCH  10  11
ENDBRANCH   5  10
ENDBRANCH   1   5
BRANCH   2  16
ATOM     16  C   UNK A   0       6.615   6.466  16.449  0.00  0.00    +0.000 C 
BRANCH  16  17
ATOM     17  C   UNK A   0       7.454   7.125  17.555  0.00  0.00    +0.000 C 
BRANCH  17  18
ATOM     18  S   UNK A   0       7.822   6.023  18.954  0.00  0.00    +0.000 S 
ATOM     19  H   UNK A   0       8.618   6.871  19.623  0.00  0.00    +0.000 HD
ENDBRANCH  17  18
ENDBRANCH  16  17
BRANCH  16  20
ATOM     20  C   UNK A   0       7.098   5.052  16.080  0.00  0.00    +0.000 C 
BRANCH  20  21
ATOM     21  C   UNK A   0       6.941   4.761  14.607  0.00  0.00    +0.000 A 
ATOM     22  C   UNK A   0       6.007   3.813  14.161  0.00  0.00    +0.000 A 
ATOM     23  C   UNK A   0       5.953   3.460  12.813  0.00  0.00    +0.000 A 
ATOM     24  C   UNK A   0       6.809   4.068  11.899  0.00  0.00    +0.000 A 
ATOM     25  C   UNK A   0       7.700   5.051  12.323  0.00  0.00    +0.000 A 
ATOM     26  C   UNK A   0       7.764   5.399  13.671  0.00  0.00    +0.000 A 
ENDBRANCH  20  21
ENDBRANCH  16  20
ENDBRANCH   2  16
TORSDOF 11
ENDMDL
MODEL 7
REMARK VINA RESULT:      -5.9      4.257      6.533
REMARK  Name = 
REMARK  14 active torsions:
REMARK  status: ('A' for Active; 'I' for Inactive)
REMARK    1  A    between atoms: C_1  and  C_2
REMARK    2  A    between atoms: C_2  and  C_3
REMARK    3  A    between atoms: C_2  and  C_4
REMARK    4  A    between atoms: C_2  and  S_5
REMARK    5  A    between atoms: S_5  and  C_6
REMARK    6  A    between atoms: C_6  and  C_7
REMARK    7  A    between atoms: C_7  and  N_8
REMARK    8  A    between atoms: C_7  and  C_21
REMARK    9  A    between atoms: C_9  and  C_11
REMARK   10  A    between atoms: C_11  and  C_12
REMARK   11  A    between atoms: C_11  and  C_14
REMARK   12  A    between atoms: C_12  and  S_13
REMARK   13  A    between atoms: C_14  and  C_15
REMARK   14  A    between atoms: C_21  and  O_23
REMARK                            x       y       z     vdW  Elec       q    Type
REMARK                         _______ _______ _______ _____ _____    ______ ____
ROOT
ATOM      1  N   UNK A   1       0.474   9.322  18.396  0.00  0.00    +0.000 N 
ATOM      2  C   UNK A   0       1.794   9.256  17.997  0.00  0.00    +0.000 C 
ATOM      3  O   UNK A   0       2.342  10.239  17.508  0.00  0.00    +0.000 OA
ATOM      4  H   UNK A   1       0.026   8.499  18.785  0.00  0.00    +0.000 HD
ENDROOT
BRANCH   1   5
ATOM      5  C   UNK A   1      -0.277  10.586  18.411  0.00  0.00    +0.000 C 
BRANCH   5   6
ATOM      6  C   UNK A   1      -1.489  10.460  17.482  0.00  0.00    +0.000 C 
ATOM      7  O   UNK A   1      -2.196   9.459  17.390  0.00  0.00    +0.000 OA
BRANCH   6   8
ATOM      8  O   UNK A   1      -1.755  11.590  16.784  0.00  0.00    +0.000 OA
ATOM      9  H   UNK A   1      -0.938  12.110  16.590  0.00  0.00    +0.000 HD
ENDBRANCH   6   8
ENDBRANCH   5   6
BRANCH   5  10
ATOM     10  C   UNK A   1      -0.736  10.980  19.822  0.00  0.00    +0.000 C 
BRANCH  10  11
ATOM     11  S   UNK A   1       0.681  10.959  20.989  0.00  0.00    +0.000 S 
BRANCH  11  13
ATOM     12  C   UNK A   1      -0.460   8.475  21.517  0.00  0.00    +0.000 C 
ATOM     13  C   UNK A   1       0.142   9.692  22.227  0.00  0.00    +0.000 C 
ATOM     14  C   UNK A   1      -0.857  10.290  23.223  0.00  0.00    +0.000 C 
ATOM     15  C   UNK A   1       1.408   9.259  22.983  0.00  0.00    +0.000 C 
ENDBRANCH  11  13
ENDBRANCH  10  11
ENDBRANCH   5  10
ENDBRANCH   1   5
BRANCH   2  16
ATOM     16  C   UNK A   0       2.394   7.859  18.003  0.00  0.00    +0.000 C 
BRANCH  16  17
ATOM     17  C   UNK A   0       3.818   8.037  17.455  0.00  0.00    +0.000 C 
BRANCH  17  18
ATOM     18  S   UNK A   0       4.588   6.490  16.889  0.00  0.00    +0.000 S 
ATOM     19  H   UNK A   0       5.850   6.808  17.213  0.00  0.00    +0.000 HD
ENDBRANCH  17  18
ENDBRANCH  16  17
BRANCH  16  20
ATOM     20  C   UNK A   0       2.358   7.253  19.418  0.00  0.00    +0.000 C 
BRANCH  20  21
ATOM     21  C   UNK A   0       1.957   5.798  19.405  0.00  0.00    +0.000 A 
ATOM     22  C   UNK A   0       1.875   5.088  18.197  0.00  0.00    +0.000 A 
ATOM     23  C   UNK A   0       1.386   3.783  18.180  0.00  0.00    +0.000 A 
ATOM     24  C   UNK A   0       1.002   3.167  19.368  0.00  0.00    +0.000 A 
ATOM     25  C   UNK A   0       1.134   3.843  20.580  0.00  0.00    +0.000 A 
ATOM     26  C   UNK A   0       1.612   5.152  20.600  0.00  0.00    +0.000 A 
ENDBRANCH  20  21
ENDBRANCH  16  20
ENDBRANCH   2  16
TORSDOF 11
ENDMDL
MODEL 8
REMARK VINA RESULT:      -5.8      0.873      1.427
REMARK  Name = 
REMARK  14 active torsions:
REMARK  status: ('A' for Active; 'I' for Inactive)
REMARK    1  A    between atoms: C_1  and  C_2
REMARK    2  A    between atoms: C_2  and  C_3
REMARK    3  A    between atoms: C_2  and  C_4
REMARK    4  A    between atoms: C_2  and  S_5
REMARK    5  A    between atoms: S_5  and  C_6
REMARK    6  A    between atoms: C_6  and  C_7
REMARK    7  A    between atoms: C_7  and  N_8
REMARK    8  A    between atoms: C_7  and  C_21
REMARK    9  A    between atoms: C_9  and  C_11
REMARK   10  A    between atoms: C_11  and  C_12
REMARK   11  A    between atoms: C_11  and  C_14
REMARK   12  A    between atoms: C_12  and  S_13
REMARK   13  A    between atoms: C_14  and  C_15
REMARK   14  A    between atoms: C_21  and  O_23
REMARK                            x       y       z     vdW  Elec       q    Type
REMARK                         _______ _______ _______ _____ _____    ______ ____
ROOT
ATOM      1  N   UNK A   1       4.292   6.795  17.833  0.00  0.00    +0.000 N 
ATOM      2  C   UNK A   0       5.316   5.924  18.145  0.00  0.00    +0.000 C 
ATOM      3  O   UNK A   0       5.245   5.221  19.148  0.00  0.00    +0.000 OA
ATOM      4  H   UNK A   1       4.367   7.384  17.009  0.00  0.00    +0.000 HD
ENDROOT
BRANCH   1   5
ATOM      5  C   UNK A   1       3.021   6.808  18.573  0.00  0.00    +0.000 C 
BRANCH   5   6
ATOM      6  C   UNK A   1       2.333   8.160  18.364  0.00  0.00    +0.000 C 
ATOM      7  O   UNK A   1       1.640   8.729  19.205  0.00  0.00    +0.000 OA
BRANCH   6   8
ATOM      8  O   UNK A   1       2.596   8.720  17.159  0.00  0.00    +0.000 OA
ATOM      9  H   UNK A   1       3.053   9.591  17.243  0.00  0.00    +0.000 HD
ENDBRANCH   6   8
ENDBRANCH   5   6
BRANCH   5  10
ATOM     10  C   UNK A   1       2.082   5.670  18.147  0.00  0.00    +0.000 C 
BRANCH  10  11
ATOM     11  S   UNK A   1       1.856   4.474  19.521  0.00  0.00    +0.000 S 
BRANCH  11  13
ATOM     12  C   UNK A   1       3.438   2.184  19.571  0.00  0.00    +0.000 C 
ATOM     13  C   UNK A   1       2.359   2.878  18.731  0.00  0.00    +0.000 C 
ATOM     14  C   UNK A   1       2.850   3.106  17.298  0.00  0.00    +0.000 C 
ATOM     15  C   UNK A   1       1.102   1.994  18.697  0.00  0.00    +0.000 C 
ENDBRANCH  11  13
ENDBRANCH  10  11
ENDBRANCH   5  10
ENDBRANCH   1   5
BRANCH   2  16
ATOM     16  C   UNK A   0       6.571   6.085  17.303  0.00  0.00    +0.000 C 
BRANCH  16  17
ATOM     17  C   UNK A   0       7.557   6.846  18.203  0.00  0.00    +0.000 C 
BRANCH  17  18
ATOM     18  S   UNK A   0       7.898   8.544  17.648  0.00  0.00    +0.000 S 
ATOM     19  H   UNK A   0       9.174   8.342  17.283  0.00  0.00    +0.000 HD
ENDBRANCH  17  18
ENDBRANCH  16  17
BRANCH  16  20
ATOM     20  C   UNK A   0       7.101   4.716  16.841  0.00  0.00    +0.000 C 
BRANCH  20  21
ATOM     21  C   UNK A   0       6.914   4.501  15.358  0.00  0.00    +0.000 A 
ATOM     22  C   UNK A   0       7.732   5.166  14.431  0.00  0.00    +0.000 A 
ATOM     23  C   UNK A   0       7.475   5.060  13.065  0.00  0.00    +0.000 A 
ATOM     24  C   UNK A   0       6.421   4.270  12.613  0.00  0.00    +0.000 A 
ATOM     25  C   UNK A   0       5.639   3.561  13.523  0.00  0.00    +0.000 A 
ATOM     26  C   UNK A   0       5.886   3.673  14.891  0.00  0.00    +0.000 A 
ENDBRANCH  20  21
ENDBRANCH  16  20
ENDBRANCH   2  16
TORSDOF 11
ENDMDL
MODEL 9
REMARK VINA RESULT:      -5.8      2.302      6.495
REMARK  Name = 
REMARK  14 active torsions:
REMARK  status: ('A' for Active; 'I' for Inactive)
REMARK    1  A    between atoms: C_1  and  C_2
REMARK    2  A    between atoms: C_2  and  C_3
REMARK    3  A    between atoms: C_2  and  C_4
REMARK    4  A    between atoms: C_2  and  S_5
REMARK    5  A    between atoms: S_5  and  C_6
REMARK    6  A    between atoms: C_6  and  C_7
REMARK    7  A    between atoms: C_7  and  N_8
REMARK    8  A    between atoms: C_7  and  C_21
REMARK    9  A    between atoms: C_9  and  C_11
REMARK   10  A    between atoms: C_11  and  C_12
REMARK   11  A    between atoms: C_11  and  C_14
REMARK   12  A    between atoms: C_12  and  S_13
REMARK   13  A    between atoms: C_14  and  C_15
REMARK   14  A    between atoms: C_21  and  O_23
REMARK                            x       y       z     vdW  Elec       q    Type
REMARK                         _______ _______ _______ _____ _____    ______ ____
ROOT
ATOM      1  N   UNK A   1       5.792   6.581  17.821  0.00  0.00    +0.000 N 
ATOM      2  C   UNK A   0       4.838   5.787  18.426  0.00  0.00    +0.000 C 
ATOM      3  O   UNK A   0       5.096   4.623  18.715  0.00  0.00    +0.000 OA
ATOM      4  H   UNK A   1       5.564   7.538  17.571  0.00  0.00    +0.000 HD
ENDROOT
BRANCH   1   5
ATOM      5  C   UNK A   1       7.184   6.139  17.647  0.00  0.00    +0.000 C 
BRANCH   5   6
ATOM      6  C   UNK A   1       7.912   6.239  18.991  0.00  0.00    +0.000 C 
ATOM      7  O   UNK A   1       7.912   5.362  19.853  0.00  0.00    +0.000 OA
BRANCH   6   8
ATOM      8  O   UNK A   1       8.618   7.385  19.139  0.00  0.00    +0.000 OA
ATOM      9  H   UNK A   1       9.520   7.323  18.740  0.00  0.00    +0.000 HD
ENDBRANCH   6   8
ENDBRANCH   5   6
BRANCH   5  10
ATOM     10  C   UNK A   1       7.281   4.707  17.103  0.00  0.00    +0.000 C 
BRANCH  10  11
ATOM     11  S   UNK A   1       7.487   4.724  15.279  0.00  0.00    +0.000 S 
BRANCH  11  13
ATOM     12  C   UNK A   1       5.034   3.467  15.677  0.00  0.00    +0.000 C 
ATOM     13  C   UNK A   1       5.763   4.390  14.693  0.00  0.00    +0.000 C 
ATOM     14  C   UNK A   1       5.770   3.786  13.285  0.00  0.00    +0.000 C 
ATOM     15  C   UNK A   1       5.047   5.749  14.654  0.00  0.00    +0.000 C 
ENDBRANCH  11  13
ENDBRANCH  10  11
ENDBRANCH   5  10
ENDBRANCH   1   5
BRANCH   2  16
ATOM     16  C   UNK A   0       3.444   6.390  18.477  0.00  0.00    +0.000 C 
BRANCH  16  17
ATOM     17  C   UNK A   0       3.546   7.694  17.672  0.00  0.00    +0.000 C 
BRANCH  17  18
ATOM     18  S   UNK A   0       2.111   8.793  17.867  0.00  0.00    +0.000 S 
ATOM     19  H   UNK A   0       1.215   8.000  17.260  0.00  0.00    +0.000 HD
ENDBRANCH  17  18
ENDBRANCH  16  17
BRANCH  16  20
ATOM     20  C   UNK A   0       2.401   5.407  17.914  0.00  0.00    +0.000 C 
BRANCH  20  21
ATOM     21  C   UNK A   0       1.969   4.384  18.937  0.00  0.00    +0.000 A 
ATOM     22  C   UNK A   0       1.828   4.738  20.287  0.00  0.00    +0.000 A 
ATOM     23  C   UNK A   0       1.550   3.763  21.244  0.00  0.00    +0.000 A 
ATOM     24  C   UNK A   0       1.384   2.435  20.858  0.00  0.00    +0.000 A 
ATOM     25  C   UNK A   0       1.466   2.083  19.513  0.00  0.00    +0.000 A 
ATOM     26  C   UNK A   0       1.755   3.054  18.554  0.00  0.00    +0.000 A 
ENDBRANCH  20  21
ENDBRANCH  16  20
ENDBRANCH   2  16
TORSDOF 11
ENDMDL
