MODEL 1
REMARK VINA RESULT:      -9.7      0.000      0.000
REMARK  Name = 
REMARK  6 active torsions:
REMARK  status: ('A' for Active; 'I' for Inactive)
REMARK    1  A    between atoms: C_1  and  C_2
REMARK    2  A    between atoms: C_6  and  C_7
REMARK    3  A    between atoms: C_14  and  C_15
REMARK    4  A    between atoms: N_17  and  C_18
REMARK    5  A    between atoms: C_18  and  C_19
REMARK    6  A    between atoms: C_19  and  C_20
REMARK                            x       y       z     vdW  Elec       q    Type
REMARK                         _______ _______ _______ _____ _____    ______ ____
ROOT
ATOM      1  C   UNL     1       5.694   5.130  14.682  0.00  0.00    +0.000 C 
ATOM      2  C   UNL     1       6.577   4.852  15.876  0.00  0.00    +0.000 C 
ATOM      3  O   UNL     1       7.794   4.734  15.757  0.00  0.00    +0.000 OA
ATOM      4  N   UNL     1       5.917   4.741  17.080  0.00  0.00    +0.000 N 
ATOM      5  N   UNL     1       4.560   4.641  17.165  0.00  0.00    +0.000 NA
ATOM      6  C   UNL     1       4.354   4.212  18.365  0.00  0.00    +0.000 C 
ATOM      7  O   UNL     1       5.441   3.987  19.151  0.00  0.00    +0.000 OA
ATOM      8  C   UNL     1       6.546   4.370  18.331  0.00  0.00    +0.000 C 
ENDROOT
BRANCH   6   9
ATOM      9  C   UNL     1       3.053   3.927  18.979  0.00  0.00    +0.000 A 
ATOM     10  C   UNL     1       2.623   4.711  20.060  0.00  0.00    +0.000 A 
ATOM     11  C   UNL     1       1.389   4.459  20.654  0.00  0.00    +0.000 A 
ATOM     12  C   UNL     1       0.583   3.425  20.178  0.00  0.00    +0.000 A 
ATOM     13  C   UNL     1       1.009   2.642  19.106  0.00  0.00    +0.000 A 
ATOM     14  C   UNL     1       2.241   2.891  18.505  0.00  0.00    +0.000 A 
ENDBRANCH   6   9
BRANCH   8  15
ATOM     15  C   UNL     1       7.319   5.558  18.966  0.00  0.00    +0.000 C 
ATOM     16  O   UNL     1       7.722   5.566  20.126  0.00  0.00    +0.000 OA
ATOM     17  N   UNL     1       7.572   6.624  18.108  0.00  0.00    +0.000 N 
ATOM     18  H   UNL     1       7.327   6.512  17.130  0.00  0.00    +0.000 HD
BRANCH  17  19
ATOM     19  C   UNL     1       8.373   7.757  18.540  0.00  0.00    +0.000 C 
BRANCH  19  20
ATOM     20  C   UNL     1       7.994   9.051  17.822  0.00  0.00    +0.000 C 
BRANCH  20  21
ATOM     21  C   UNL     1       8.698  10.253  18.404  0.00  0.00    +0.000 A 
ATOM     22  C   UNL     1       8.709  11.476  17.718  0.00  0.00    +0.000 A 
ATOM     23  C   UNL     1       9.408  12.571  18.231  0.00  0.00    +0.000 A 
ATOM     24  C   UNL     1      10.098  12.451  19.436  0.00  0.00    +0.000 A 
ATOM     25 CL   UNL     1      10.982  13.791  20.054  0.00  0.00    +0.000 Cl
ATOM     26  C   UNL     1      10.083  11.248  20.138  0.00  0.00    +0.000 A 
ATOM     27  C   UNL     1       9.386  10.151  19.623  0.00  0.00    +0.000 A 
ENDBRANCH  20  21
ENDBRANCH  19  20
ENDBRANCH  17  19
ENDBRANCH   8  15
TORSDOF 5
ENDMDL
MODEL 2
REMARK VINA RESULT:      -9.3      0.574      1.107
REMARK  Name = 
REMARK  6 active torsions:
REMARK  status: ('A' for Active; 'I' for Inactive)
REMARK    1  A    between atoms: C_1  and  C_2
REMARK    2  A    between atoms: C_6  and  C_7
REMARK    3  A    between atoms: C_14  and  C_15
REMARK    4  A    between atoms: N_17  and  C_18
REMARK    5  A    between atoms: C_18  and  C_19
REMARK    6  A    between atoms: C_19  and  C_20
REMARK                            x       y       z     vdW  Elec       q    Type
REMARK                         _______ _______ _______ _____ _____    ______ ____
ROOT
ATOM      1  C   UNL     1       5.762   4.949  14.695  0.00  0.00    +0.000 C 
ATOM      2  C   UNL     1       6.655   4.733  15.894  0.00  0.00    +0.000 C 
ATOM      3  O   UNL     1       7.878   4.689  15.780  0.00  0.00    +0.000 OA
ATOM      4  N   UNL     1       5.998   4.589  17.096  0.00  0.00    +0.000 N 
ATOM      5  N   UNL     1       4.650   4.407  17.176  0.00  0.00    +0.000 NA
ATOM      6  C   UNL     1       4.466   3.973  18.379  0.00  0.00    +0.000 C 
ATOM      7  O   UNL     1       5.561   3.820  19.170  0.00  0.00    +0.000 OA
ATOM      8  C   UNL     1       6.643   4.265  18.352  0.00  0.00    +0.000 C 
ENDROOT
BRANCH   6   9
ATOM      9  C   UNL     1       3.182   3.612  18.990  0.00  0.00    +0.000 A 
ATOM     10  C   UNL     1       3.159   3.184  20.325  0.00  0.00    +0.000 A 
ATOM     11  C   UNL     1       1.949   2.841  20.925  0.00  0.00    +0.000 A 
ATOM     12  C   UNL     1       0.763   2.918  20.197  0.00  0.00    +0.000 A 
ATOM     13  C   UNL     1       0.783   3.341  18.868  0.00  0.00    +0.000 A 
ATOM     14  C   UNL     1       1.988   3.689  18.263  0.00  0.00    +0.000 A 
ENDBRANCH   6   9
BRANCH   8  15
ATOM     15  C   UNL     1       7.340   5.502  18.982  0.00  0.00    +0.000 C 
ATOM     16  O   UNL     1       7.668   5.571  20.163  0.00  0.00    +0.000 OA
ATOM     17  N   UNL     1       7.615   6.540  18.096  0.00  0.00    +0.000 N 
ATOM     18  H   UNL     1       7.436   6.381  17.111  0.00  0.00    +0.000 HD
BRANCH  17  19
ATOM     19  C   UNL     1       8.353   7.714  18.529  0.00  0.00    +0.000 C 
BRANCH  19  20
ATOM     20  C   UNL     1       7.974   8.968  17.741  0.00  0.00    +0.000 C 
BRANCH  20  21
ATOM     21  C   UNL     1       8.622  10.211  18.303  0.00  0.00    +0.000 A 
ATOM     22  C   UNL     1       9.361  10.155  19.493  0.00  0.00    +0.000 A 
ATOM     23  C   UNL     1       9.913  11.315  20.041  0.00  0.00    +0.000 A 
ATOM     24  C   UNL     1       9.732  12.538  19.400  0.00  0.00    +0.000 A 
ATOM     25 CL   UNL     1      10.388  13.972  20.089  0.00  0.00    +0.000 Cl
ATOM     26  C   UNL     1       9.015  12.609  18.208  0.00  0.00    +0.000 A 
ATOM     27  C   UNL     1       8.460  11.449  17.661  0.00  0.00    +0.000 A 
ENDBRANCH  20  21
ENDBRANCH  19  20
ENDBRANCH  17  19
ENDBRANCH   8  15
TORSDOF 5
ENDMDL
MODEL 3
REMARK VINA RESULT:      -9.3      1.552      2.076
REMARK  Name = 
REMARK  6 active torsions:
REMARK  status: ('A' for Active; 'I' for Inactive)
REMARK    1  A    between atoms: C_1  and  C_2
REMARK    2  A    between atoms: C_6  and  C_7
REMARK    3  A    between atoms: C_14  and  C_15
REMARK    4  A    between atoms: N_17  and  C_18
REMARK    5  A    between atoms: C_18  and  C_19
REMARK    6  A    between atoms: C_19  and  C_20
REMARK                            x       y       z     vdW  Elec       q    Type
REMARK                         _______ _______ _______ _____ _____    ______ ____
ROOT
ATOM      1  C   UNL     1       5.796   4.086  14.304  0.00  0.00    +0.000 C 
ATOM      2  C   UNL     1       6.733   4.852  15.207  0.00  0.00    +0.000 C 
ATOM      3  O   UNL     1       7.850   5.195  14.826  0.00  0.00    +0.000 OA
ATOM      4  N   UNL     1       6.242   5.126  16.465  0.00  0.00    +0.000 N 
ATOM      5  N   UNL     1       5.108   4.546  16.950  0.00  0.00    +0.000 NA
ATOM      6  C   UNL     1       5.169   4.761  18.223  0.00  0.00    +0.000 C 
ATOM      7  O   UNL     1       6.247   5.439  18.698  0.00  0.00    +0.000 OA
ATOM      8  C   UNL     1       7.004   5.750  17.527  0.00  0.00    +0.000 C 
ENDROOT
BRANCH   6   9
ATOM      9  C   UNL     1       4.188   4.338  19.227  0.00  0.00    +0.000 A 
ATOM     10  C   UNL     1       3.279   5.280  19.731  0.00  0.00    +0.000 A 
ATOM     11  C   UNL     1       2.337   4.896  20.683  0.00  0.00    +0.000 A 
ATOM     12  C   UNL     1       2.300   3.579  21.138  0.00  0.00    +0.000 A 
ATOM     13  C   UNL     1       3.204   2.641  20.641  0.00  0.00    +0.000 A 
ATOM     14  C   UNL     1       4.147   3.017  19.686  0.00  0.00    +0.000 A 
ENDBRANCH   6   9
BRANCH   8  15
ATOM     15  C   UNL     1       7.117   7.287  17.335  0.00  0.00    +0.000 C 
ATOM     16  O   UNL     1       6.390   7.935  16.587  0.00  0.00    +0.000 OA
ATOM     17  N   UNL     1       8.089   7.910  18.112  0.00  0.00    +0.000 N 
ATOM     18  H   UNL     1       8.575   7.347  18.801  0.00  0.00    +0.000 HD
BRANCH  17  19
ATOM     19  C   UNL     1       8.236   9.355  18.108  0.00  0.00    +0.000 C 
BRANCH  19  20
ATOM     20  C   UNL     1       9.262   9.844  19.129  0.00  0.00    +0.000 C 
BRANCH  20  21
ATOM     21  C   UNL     1       9.950  11.112  18.684  0.00  0.00    +0.000 A 
ATOM     22  C   UNL     1      11.283  11.362  19.036  0.00  0.00    +0.000 A 
ATOM     23  C   UNL     1      11.901  12.560  18.671  0.00  0.00    +0.000 A 
ATOM     24  C   UNL     1      11.189  13.515  17.949  0.00  0.00    +0.000 A 
ATOM     25 CL   UNL     1      11.940  15.003  17.523  0.00  0.00    +0.000 Cl
ATOM     26  C   UNL     1       9.868  13.275  17.576  0.00  0.00    +0.000 A 
ATOM     27  C   UNL     1       9.250  12.077  17.944  0.00  0.00    +0.000 A 
ENDBRANCH  20  21
ENDBRANCH  19  20
ENDBRANCH  17  19
ENDBRANCH   8  15
TORSDOF 5
ENDMDL
MODEL 4
REMARK VINA RESULT:      -9.2      1.328      1.478
REMARK  Name = 
REMARK  6 active torsions:
REMARK  status: ('A' for Active; 'I' for Inactive)
REMARK    1  A    between atoms: C_1  and  C_2
REMARK    2  A    between atoms: C_6  and  C_7
REMARK    3  A    between atoms: C_14  and  C_15
REMARK    4  A    between atoms: N_17  and  C_18
REMARK    5  A    between atoms: C_18  and  C_19
REMARK    6  A    between atoms: C_19  and  C_20
REMARK                            x       y       z     vdW  Elec       q    Type
REMARK                         _______ _______ _______ _____ _____    ______ ____
ROOT
ATOM      1  C   UNL     1       5.944   4.154  13.617  0.00  0.00    +0.000 C 
ATOM      2  C   UNL     1       6.611   4.753  14.833  0.00  0.00    +0.000 C 
ATOM      3  O   UNL     1       7.768   5.165  14.790  0.00  0.00    +0.000 OA
ATOM      4  N   UNL     1       5.832   4.793  15.969  0.00  0.00    +0.000 N 
ATOM      5  N   UNL     1       4.647   4.127  16.067  0.00  0.00    +0.000 NA
ATOM      6  C   UNL     1       4.403   4.112  17.336  0.00  0.00    +0.000 C 
ATOM      7  O   UNL     1       5.309   4.701  18.160  0.00  0.00    +0.000 OA
ATOM      8  C   UNL     1       6.298   5.222  17.271  0.00  0.00    +0.000 C 
ENDROOT
BRANCH   6   9
ATOM      9  C   UNL     1       3.239   3.509  17.994  0.00  0.00    +0.000 A 
ATOM     10  C   UNL     1       2.157   4.327  18.347  0.00  0.00    +0.000 A 
ATOM     11  C   UNL     1       1.040   3.773  18.969  0.00  0.00    +0.000 A 
ATOM     12  C   UNL     1       1.001   2.407  19.245  0.00  0.00    +0.000 A 
ATOM     13  C   UNL     1       2.077   1.591  18.897  0.00  0.00    +0.000 A 
ATOM     14  C   UNL     1       3.195   2.138  18.272  0.00  0.00    +0.000 A 
ENDBRANCH   6   9
BRANCH   8  15
ATOM     15  C   UNL     1       6.378   6.769  17.378  0.00  0.00    +0.000 C 
ATOM     16  O   UNL     1       5.393   7.498  17.453  0.00  0.00    +0.000 OA
ATOM     17  N   UNL     1       7.666   7.293  17.429  0.00  0.00    +0.000 N 
ATOM     18  H   UNL     1       8.440   6.639  17.489  0.00  0.00    +0.000 HD
BRANCH  17  19
ATOM     19  C   UNL     1       7.888   8.714  17.631  0.00  0.00    +0.000 C 
BRANCH  19  20
ATOM     20  C   UNL     1       8.805   9.002  18.819  0.00  0.00    +0.000 C 
BRANCH  20  21
ATOM     21  C   UNL     1       9.171  10.464  18.914  0.00  0.00    +0.000 A 
ATOM     22  C   UNL     1       8.943  11.328  17.835  0.00  0.00    +0.000 A 
ATOM     23  C   UNL     1       9.334  12.668  17.903  0.00  0.00    +0.000 A 
ATOM     24  C   UNL     1       9.952  13.151  19.054  0.00  0.00    +0.000 A 
ATOM     25 CL   UNL     1      10.458  14.794  19.129  0.00  0.00    +0.000 Cl
ATOM     26  C   UNL     1      10.171  12.309  20.142  0.00  0.00    +0.000 A 
ATOM     27  C   UNL     1       9.783  10.969  20.072  0.00  0.00    +0.000 A 
ENDBRANCH  20  21
ENDBRANCH  19  20
ENDBRANCH  17  19
ENDBRANCH   8  15
TORSDOF 5
ENDMDL
MODEL 5
REMARK VINA RESULT:      -9.2      2.993      6.857
REMARK  Name = 
REMARK  6 active torsions:
REMARK  status: ('A' for Active; 'I' for Inactive)
REMARK    1  A    between atoms: C_1  and  C_2
REMARK    2  A    between atoms: C_6  and  C_7
REMARK    3  A    between atoms: C_14  and  C_15
REMARK    4  A    between atoms: N_17  and  C_18
REMARK    5  A    between atoms: C_18  and  C_19
REMARK    6  A    between atoms: C_19  and  C_20
REMARK                            x       y       z     vdW  Elec       q    Type
REMARK                         _______ _______ _______ _____ _____    ______ ____
ROOT
ATOM      1  C   UNL     1       7.896   8.624  17.437  0.00  0.00    +0.000 C 
ATOM      2  C   UNL     1       7.945   7.281  18.126  0.00  0.00    +0.000 C 
ATOM      3  O   UNL     1       8.407   7.160  19.258  0.00  0.00    +0.000 OA
ATOM      4  N   UNL     1       7.442   6.228  17.394  0.00  0.00    +0.000 N 
ATOM      5  N   UNL     1       7.152   6.332  16.067  0.00  0.00    +0.000 NA
ATOM      6  C   UNL     1       7.052   5.105  15.674  0.00  0.00    +0.000 C 
ATOM      7  O   UNL     1       7.252   4.127  16.597  0.00  0.00    +0.000 OA
ATOM      8  C   UNL     1       7.488   4.841  17.811  0.00  0.00    +0.000 C 
ENDROOT
BRANCH   6   9
ATOM      9  C   UNL     1       6.752   4.646  14.313  0.00  0.00    +0.000 A 
ATOM     10  C   UNL     1       5.561   3.945  14.078  0.00  0.00    +0.000 A 
ATOM     11  C   UNL     1       5.256   3.504  12.792  0.00  0.00    +0.000 A 
ATOM     12  C   UNL     1       6.136   3.756  11.741  0.00  0.00    +0.000 A 
ATOM     13  C   UNL     1       7.323   4.451  11.972  0.00  0.00    +0.000 A 
ATOM     14  C   UNL     1       7.633   4.897  13.255  0.00  0.00    +0.000 A 
ENDBRANCH   6   9
BRANCH   8  15
ATOM     15  C   UNL     1       6.394   4.516  18.864  0.00  0.00    +0.000 C 
ATOM     16  O   UNL     1       6.273   5.115  19.929  0.00  0.00    +0.000 OA
ATOM     17  N   UNL     1       5.507   3.506  18.502  0.00  0.00    +0.000 N 
ATOM     18  H   UNL     1       5.575   3.132  17.562  0.00  0.00    +0.000 HD
BRANCH  17  19
ATOM     19  C   UNL     1       4.374   3.168  19.347  0.00  0.00    +0.000 C 
BRANCH  19  20
ATOM     20  C   UNL     1       3.039   3.585  18.732  0.00  0.00    +0.000 C 
BRANCH  20  21
ATOM     21  C   UNL     1       2.662   5.001  19.095  0.00  0.00    +0.000 A 
ATOM     22  C   UNL     1       2.070   5.287  20.333  0.00  0.00    +0.000 A 
ATOM     23  C   UNL     1       1.670   6.588  20.645  0.00  0.00    +0.000 A 
ATOM     24  C   UNL     1       1.864   7.613  19.722  0.00  0.00    +0.000 A 
ATOM     25 CL   UNL     1       1.348   9.212  20.095  0.00  0.00    +0.000 Cl
ATOM     26  C   UNL     1       2.467   7.349  18.494  0.00  0.00    +0.000 A 
ATOM     27  C   UNL     1       2.863   6.047  18.180  0.00  0.00    +0.000 A 
ENDBRANCH  20  21
ENDBRANCH  19  20
ENDBRANCH  17  19
ENDBRANCH   8  15
TORSDOF 5
ENDMDL
MODEL 6
REMARK VINA RESULT:      -9.1      3.005      6.982
REMARK  Name = 
REMARK  6 active torsions:
REMARK  status: ('A' for Active; 'I' for Inactive)
REMARK    1  A    between atoms: C_1  and  C_2
REMARK    2  A    between atoms: C_6  and  C_7
REMARK    3  A    between atoms: C_14  and  C_15
REMARK    4  A    between atoms: N_17  and  C_18
REMARK    5  A    between atoms: C_18  and  C_19
REMARK    6  A    between atoms: C_19  and  C_20
REMARK                            x       y       z     vdW  Elec       q    Type
REMARK                         _______ _______ _______ _____ _____    ______ ____
ROOT
ATOM      1  C   UNL     1       8.048   8.409  17.595  0.00  0.00    +0.000 C 
ATOM      2  C   UNL     1       7.875   7.049  18.228  0.00  0.00    +0.000 C 
ATOM      3  O   UNL     1       8.175   6.847  19.402  0.00  0.00    +0.000 OA
ATOM      4  N   UNL     1       7.366   6.075  17.396  0.00  0.00    +0.000 N 
ATOM      5  N   UNL     1       7.257   6.248  16.049  0.00  0.00    +0.000 NA
ATOM      6  C   UNL     1       7.086   5.050  15.595  0.00  0.00    +0.000 C 
ATOM      7  O   UNL     1       7.069   4.031  16.494  0.00  0.00    +0.000 OA
ATOM      8  C   UNL     1       7.219   4.680  17.757  0.00  0.00    +0.000 C 
ENDROOT
BRANCH   6   9
ATOM      9  C   UNL     1       6.917   4.666  14.190  0.00  0.00    +0.000 A 
ATOM     10  C   UNL     1       5.909   3.751  13.851  0.00  0.00    +0.000 A 
ATOM     11  C   UNL     1       5.729   3.376  12.521  0.00  0.00    +0.000 A 
ATOM     12  C   UNL     1       6.553   3.905  11.529  0.00  0.00    +0.000 A 
ATOM     13  C   UNL     1       7.558   4.813  11.863  0.00  0.00    +0.000 A 
ATOM     14  C   UNL     1       7.741   5.195  13.190  0.00  0.00    +0.000 A 
ENDBRANCH   6   9
BRANCH   8  15
ATOM     15  C   UNL     1       5.973   4.440  18.652  0.00  0.00    +0.000 C 
ATOM     16  O   UNL     1       5.709   5.112  19.645  0.00  0.00    +0.000 OA
ATOM     17  N   UNL     1       5.129   3.418  18.228  0.00  0.00    +0.000 N 
ATOM     18  H   UNL     1       5.329   2.980  17.336  0.00  0.00    +0.000 HD
BRANCH  17  19
ATOM     19  C   UNL     1       3.876   3.152  18.914  0.00  0.00    +0.000 C 
BRANCH  19  20
ATOM     20  C   UNL     1       2.685   3.840  18.248  0.00  0.00    +0.000 C 
BRANCH  20  21
ATOM     21  C   UNL     1       2.317   5.133  18.934  0.00  0.00    +0.000 A 
ATOM     22  C   UNL     1       2.543   6.365  18.303  0.00  0.00    +0.000 A 
ATOM     23  C   UNL     1       2.255   7.563  18.961  0.00  0.00    +0.000 A 
ATOM     24  C   UNL     1       1.736   7.536  20.254  0.00  0.00    +0.000 A 
ATOM     25 CL   UNL     1       1.406   9.011  21.076  0.00  0.00    +0.000 Cl
ATOM     26  C   UNL     1       1.490   6.320  20.888  0.00  0.00    +0.000 A 
ATOM     27  C   UNL     1       1.781   5.122  20.231  0.00  0.00    +0.000 A 
ENDBRANCH  20  21
ENDBRANCH  19  20
ENDBRANCH  17  19
ENDBRANCH   8  15
TORSDOF 5
ENDMDL
MODEL 7
REMARK VINA RESULT:      -9.0      3.401      6.774
REMARK  Name = 
REMARK  6 active torsions:
REMARK  status: ('A' for Active; 'I' for Inactive)
REMARK    1  A    between atoms: C_1  and  C_2
REMARK    2  A    between atoms: C_6  and  C_7
REMARK    3  A    between atoms: C_14  and  C_15
REMARK    4  A    between atoms: N_17  and  C_18
REMARK    5  A    between atoms: C_18  and  C_19
REMARK    6  A    between atoms: C_19  and  C_20
REMARK                            x       y       z     vdW  Elec       q    Type
REMARK                         _______ _______ _______ _____ _____    ______ ____
ROOT
ATOM      1  C   UNL     1       7.966   8.117  17.668  0.00  0.00    +0.000 C 
ATOM      2  C   UNL     1       7.622   6.761  18.239  0.00  0.00    +0.000 C 
ATOM      3  O   UNL     1       7.799   6.505  19.428  0.00  0.00    +0.000 OA
ATOM      4  N   UNL     1       7.109   5.857  17.335  0.00  0.00    +0.000 N 
ATOM      5  N   UNL     1       7.137   6.071  15.990  0.00  0.00    +0.000 NA
ATOM      6  C   UNL     1       6.906   4.905  15.484  0.00  0.00    +0.000 C 
ATOM      7  O   UNL     1       6.722   3.869  16.345  0.00  0.00    +0.000 OA
ATOM      8  C   UNL     1       6.813   4.471  17.637  0.00  0.00    +0.000 C 
ENDROOT
BRANCH   6   9
ATOM      9  C   UNL     1       6.831   4.571  14.058  0.00  0.00    +0.000 A 
ATOM     10  C   UNL     1       7.704   5.206  13.163  0.00  0.00    +0.000 A 
ATOM     11  C   UNL     1       7.652   4.900  11.805  0.00  0.00    +0.000 A 
ATOM     12  C   UNL     1       6.728   3.967  11.335  0.00  0.00    +0.000 A 
ATOM     13  C   UNL     1       5.857   3.336  12.222  0.00  0.00    +0.000 A 
ATOM     14  C   UNL     1       5.906   3.635  13.582  0.00  0.00    +0.000 A 
ENDBRANCH   6   9
BRANCH   8  15
ATOM     15  C   UNL     1       5.476   4.319  18.412  0.00  0.00    +0.000 C 
ATOM     16  O   UNL     1       5.347   3.624  19.416  0.00  0.00    +0.000 OA
ATOM     17  N   UNL     1       4.416   5.070  17.914  0.00  0.00    +0.000 N 
ATOM     18  H   UNL     1       4.610   5.721  17.161  0.00  0.00    +0.000 HD
BRANCH  17  19
ATOM     19  C   UNL     1       3.136   5.102  18.601  0.00  0.00    +0.000 C 
BRANCH  19  20
ATOM     20  C   UNL     1       3.128   6.071  19.783  0.00  0.00    +0.000 C 
BRANCH  20  21
ATOM     21  C   UNL     1       2.331   7.319  19.491  0.00  0.00    +0.000 A 
ATOM     22  C   UNL     1       2.332   7.882  18.207  0.00  0.00    +0.000 A 
ATOM     23  C   UNL     1       1.639   9.068  17.950  0.00  0.00    +0.000 A 
ATOM     24  C   UNL     1       0.938   9.696  18.977  0.00  0.00    +0.000 A 
ATOM     25 CL   UNL     1       0.107  11.171  18.670  0.00  0.00    +0.000 Cl
ATOM     26  C   UNL     1       0.913   9.141  20.255  0.00  0.00    +0.000 A 
ATOM     27  C   UNL     1       1.608   7.956  20.511  0.00  0.00    +0.000 A 
ENDBRANCH  20  21
ENDBRANCH  19  20
ENDBRANCH  17  19
ENDBRANCH   8  15
TORSDOF 5
ENDMDL
MODEL 8
REMARK VINA RESULT:      -9.0      2.966      6.750
REMARK  Name = 
REMARK  6 active torsions:
REMARK  status: ('A' for Active; 'I' for Inactive)
REMARK    1  A    between atoms: C_1  and  C_2
REMARK    2  A    between atoms: C_6  and  C_7
REMARK    3  A    between atoms: C_14  and  C_15
REMARK    4  A    between atoms: N_17  and  C_18
REMARK    5  A    between atoms: C_18  and  C_19
REMARK    6  A    between atoms: C_19  and  C_20
REMARK                            x       y       z     vdW  Elec       q    Type
REMARK                         _______ _______ _______ _____ _____    ______ ____
ROOT
ATOM      1  C   UNL     1       7.879   8.650  17.436  0.00  0.00    +0.000 C 
ATOM      2  C   UNL     1       7.988   7.311  18.126  0.00  0.00    +0.000 C 
ATOM      3  O   UNL     1       8.498   7.206  19.240  0.00  0.00    +0.000 OA
ATOM      4  N   UNL     1       7.483   6.243  17.418  0.00  0.00    +0.000 N 
ATOM      5  N   UNL     1       7.137   6.334  16.103  0.00  0.00    +0.000 NA
ATOM      6  C   UNL     1       7.053   5.104  15.718  0.00  0.00    +0.000 C 
ATOM      7  O   UNL     1       7.313   4.135  16.635  0.00  0.00    +0.000 OA
ATOM      8  C   UNL     1       7.579   4.860  17.837  0.00  0.00    +0.000 C 
ENDROOT
BRANCH   6   9
ATOM      9  C   UNL     1       6.711   4.633  14.372  0.00  0.00    +0.000 A 
ATOM     10  C   UNL     1       7.587   4.907  13.311  0.00  0.00    +0.000 A 
ATOM     11  C   UNL     1       7.282   4.464  12.026  0.00  0.00    +0.000 A 
ATOM     12  C   UNL     1       6.105   3.754  11.793  0.00  0.00    +0.000 A 
ATOM     13  C   UNL     1       5.231   3.483  12.845  0.00  0.00    +0.000 A 
ATOM     14  C   UNL     1       5.531   3.919  14.133  0.00  0.00    +0.000 A 
ENDBRANCH   6   9
BRANCH   8  15
ATOM     15  C   UNL     1       6.536   4.512  18.934  0.00  0.00    +0.000 C 
ATOM     16  O   UNL     1       6.527   5.019  20.052  0.00  0.00    +0.000 OA
ATOM     17  N   UNL     1       5.559   3.597  18.551  0.00  0.00    +0.000 N 
ATOM     18  H   UNL     1       5.540   3.305  17.580  0.00  0.00    +0.000 HD
BRANCH  17  19
ATOM     19  C   UNL     1       4.463   3.258  19.442  0.00  0.00    +0.000 C 
BRANCH  19  20
ATOM     20  C   UNL     1       3.095   3.547  18.826  0.00  0.00    +0.000 C 
BRANCH  20  21
ATOM     21  C   UNL     1       2.654   4.971  19.060  0.00  0.00    +0.000 A 
ATOM     22  C   UNL     1       2.830   5.945  18.066  0.00  0.00    +0.000 A 
ATOM     23  C   UNL     1       2.473   7.274  18.304  0.00  0.00    +0.000 A 
ATOM     24  C   UNL     1       1.935   7.637  19.537  0.00  0.00    +0.000 A 
ATOM     25 CL   UNL     1       1.522   9.280  19.841  0.00  0.00    +0.000 Cl
ATOM     26  C   UNL     1       1.739   6.679  20.529  0.00  0.00    +0.000 A 
ATOM     27  C   UNL     1       2.098   5.350  20.292  0.00  0.00    +0.000 A 
ENDBRANCH  20  21
ENDBRANCH  19  20
ENDBRANCH  17  19
ENDBRANCH   8  15
TORSDOF 5
ENDMDL
MODEL 9
REMARK VINA RESULT:      -8.9      1.344      1.598
REMARK  Name = 
REMARK  6 active torsions:
REMARK  status: ('A' for Active; 'I' for Inactive)
REMARK    1  A    between atoms: C_1  and  C_2
REMARK    2  A    between atoms: C_6  and  C_7
REMARK    3  A    between atoms: C_14  and  C_15
REMARK    4  A    between atoms: N_17  and  C_18
REMARK    5  A    between atoms: C_18  and  C_19
REMARK    6  A    between atoms: C_19  and  C_20
REMARK                            x       y       z     vdW  Elec       q    Type
REMARK                         _______ _______ _______ _____ _____    ______ ____
ROOT
ATOM      1  C   UNL     1       5.848   4.142  14.064  0.00  0.00    +0.000 C 
ATOM      2  C   UNL     1       6.614   4.830  15.170  0.00  0.00    +0.000 C 
ATOM      3  O   UNL     1       7.775   5.199  15.008  0.00  0.00    +0.000 OA
ATOM      4  N   UNL     1       5.919   5.001  16.346  0.00  0.00    +0.000 N 
ATOM      5  N   UNL     1       4.727   4.387  16.589  0.00  0.00    +0.000 NA
ATOM      6  C   UNL     1       4.574   4.499  17.866  0.00  0.00    +0.000 C 
ATOM      7  O   UNL     1       5.551   5.132  18.567  0.00  0.00    +0.000 OA
ATOM      8  C   UNL     1       6.488   5.535  17.567  0.00  0.00    +0.000 C 
ENDROOT
BRANCH   6   9
ATOM      9  C   UNL     1       3.444   3.997  18.657  0.00  0.00    +0.000 A 
ATOM     10  C   UNL     1       3.553   2.748  19.284  0.00  0.00    +0.000 A 
ATOM     11  C   UNL     1       2.493   2.256  20.043  0.00  0.00    +0.000 A 
ATOM     12  C   UNL     1       1.323   3.003  20.174  0.00  0.00    +0.000 A 
ATOM     13  C   UNL     1       1.211   4.244  19.549  0.00  0.00    +0.000 A 
ATOM     14  C   UNL     1       2.268   4.744  18.791  0.00  0.00    +0.000 A 
ENDBRANCH   6   9
BRANCH   8  15
ATOM     15  C   UNL     1       6.615   7.082  17.520  0.00  0.00    +0.000 C 
ATOM     16  O   UNL     1       5.665   7.838  17.336  0.00  0.00    +0.000 OA
ATOM     17  N   UNL     1       7.896   7.577  17.748  0.00  0.00    +0.000 N 
ATOM     18  H   UNL     1       8.616   6.917  18.017  0.00  0.00    +0.000 HD
BRANCH  17  19
ATOM     19  C   UNL     1       8.139   9.007  17.833  0.00  0.00    +0.000 C 
BRANCH  19  20
ATOM     20  C   UNL     1       8.887   9.399  19.106  0.00  0.00    +0.000 C 
BRANCH  20  21
ATOM     21  C   UNL     1       9.502  10.774  19.005  0.00  0.00    +0.000 A 
ATOM     22  C   UNL     1       9.277  11.575  17.876  0.00  0.00    +0.000 A 
ATOM     23  C   UNL     1       9.891  12.824  17.758  0.00  0.00    +0.000 A 
ATOM     24  C   UNL     1      10.732  13.281  18.770  0.00  0.00    +0.000 A 
ATOM     25 CL   UNL     1      11.511  14.807  18.612  0.00  0.00    +0.000 Cl
ATOM     26  C   UNL     1      10.953  12.505  19.905  0.00  0.00    +0.000 A 
ATOM     27  C   UNL     1      10.341  11.255  20.022  0.00  0.00    +0.000 A 
ENDBRANCH  20  21
ENDBRANCH  19  20
ENDBRANCH  17  19
ENDBRANCH   8  15
TORSDOF 5
ENDMDL
