MODEL 1
REMARK VINA RESULT:      -8.1      0.000      0.000
REMARK  Name = 
REMARK  11 active torsions:
REMARK  status: ('A' for Active; 'I' for Inactive)
REMARK    1  A    between atoms: C_1  and  O_2
REMARK    2  A    between atoms: O_2  and  C_3
REMARK    3  A    between atoms: C_5  and  N_6
REMARK    4  A    between atoms: N_6  and  C_7
REMARK    5  A    between atoms: C_7  and  C_8
REMARK    6  A    between atoms: C_8  and  C_9
REMARK    7  A    between atoms: C_9  and  C_10
REMARK    8  A    between atoms: C_10  and  C_11
REMARK    9  A    between atoms: C_11  and  C_12
REMARK   10  A    between atoms: C_12  and  N_13
REMARK   11  A    between atoms: C_27  and  C_28
REMARK                            x       y       z     vdW  Elec       q    Type
REMARK                         _______ _______ _______ _____ _____    ______ ____
ROOT
ATOM      1  C   UNL     1       7.202   6.524  18.328  0.00  0.00    +0.000 C 
ENDROOT
BRANCH   1   2
ATOM      2  N   UNL     1       6.344   5.573  17.643  0.00  0.00    +0.000 N 
ATOM      3  H   UNL     1       6.730   4.634  17.599  0.00  0.00    +0.000 HD
BRANCH   2   6
ATOM      4  C   UNL     1       2.895   6.827  17.990  0.00  0.00    +0.000 A 
ATOM      5  C   UNL     1       4.218   6.658  17.606  0.00  0.00    +0.000 A 
ATOM      6  C   UNL     1       4.968   5.542  18.024  0.00  0.00    +0.000 A 
ATOM      7  C   UNL     1       4.363   4.559  18.871  0.00  0.00    +0.000 A 
ATOM      8  N   UNL     1       5.033   3.457  19.296  0.00  0.00    +0.000 NA
ATOM      9  C   UNL     1       4.435   2.546  20.086  0.00  0.00    +0.000 A 
ATOM     10  C   UNL     1       3.137   2.655  20.513  0.00  0.00    +0.000 A 
ATOM     11  C   UNL     1       2.402   3.765  20.099  0.00  0.00    +0.000 A 
ATOM     12  C   UNL     1       0.980   3.890  20.579  0.00  0.00    +0.000 C 
ATOM     13  C   UNL     1       3.013   4.737  19.260  0.00  0.00    +0.000 A 
ATOM     14  C   UNL     1       2.306   5.871  18.809  0.00  0.00    +0.000 A 
BRANCH   4  16
ATOM     15  C   UNL     1       2.010   8.970  18.480  0.00  0.00    +0.000 C 
ATOM     16  O   UNL     1       2.285   7.957  17.520  0.00  0.00    +0.000 OA
ENDBRANCH   4  16
ENDBRANCH   2   6
ENDBRANCH   1   2
BRANCH   1  17
ATOM     17  C   UNL     1       7.919   7.445  17.348  0.00  0.00    +0.000 C 
BRANCH  17  18
ATOM     18  C   UNL     1       7.698   8.913  17.733  0.00  0.00    +0.000 C 
BRANCH  18  19
ATOM     19  C   UNL     1       8.800   9.482  18.634  0.00  0.00    +0.000 C 
BRANCH  19  20
ATOM     20  C   UNL     1       9.241  10.891  18.227  0.00  0.00    +0.000 C 
BRANCH  20  21
ATOM     21  C   UNL     1      10.096  11.581  19.298  0.00  0.00    +0.000 C 
BRANCH  21  22
ATOM     22  N   UNL     1      10.689  12.814  18.797  0.00  0.00    +0.000 N 
ATOM     23  C   UNL     1      11.883  12.739  17.954  0.00  0.00    +0.000 C 
ATOM     24  C   UNL     1      11.639  13.311  16.556  0.00  0.00    +0.000 C 
ATOM     25  N   UNL     1      11.046  14.645  16.567  0.00  0.00    +0.000 N 
ATOM     26  C   UNL     1      10.218  14.944  17.673  0.00  0.00    +0.000 A 
ATOM     27  C   UNL     1       9.542  16.175  17.654  0.00  0.00    +0.000 A 
ATOM     28  C   UNL     1       8.632  16.508  18.646  0.00  0.00    +0.000 A 
ATOM     29  C   UNL     1       8.382  15.613  19.679  0.00  0.00    +0.000 A 
ATOM     30  C   UNL     1       9.048  14.382  19.713  0.00  0.00    +0.000 A 
ATOM     31  C   UNL     1       9.976  14.015  18.723  0.00  0.00    +0.000 A 
ATOM     32  H   UNL     1      11.672  15.411  16.342  0.00  0.00    +0.000 HD
ENDBRANCH  21  22
ENDBRANCH  20  21
ENDBRANCH  19  20
ENDBRANCH  18  19
ENDBRANCH  17  18
ENDBRANCH   1  17
TORSDOF 9
ENDMDL
MODEL 2
REMARK VINA RESULT:      -7.9      1.759      2.451
REMARK  Name = 
REMARK  11 active torsions:
REMARK  status: ('A' for Active; 'I' for Inactive)
REMARK    1  A    between atoms: C_1  and  O_2
REMARK    2  A    between atoms: O_2  and  C_3
REMARK    3  A    between atoms: C_5  and  N_6
REMARK    4  A    between atoms: N_6  and  C_7
REMARK    5  A    between atoms: C_7  and  C_8
REMARK    6  A    between atoms: C_8  and  C_9
REMARK    7  A    between atoms: C_9  and  C_10
REMARK    8  A    between atoms: C_10  and  C_11
REMARK    9  A    between atoms: C_11  and  C_12
REMARK   10  A    between atoms: C_12  and  N_13
REMARK   11  A    between atoms: C_27  and  C_28
REMARK                            x       y       z     vdW  Elec       q    Type
REMARK                         _______ _______ _______ _____ _____    ______ ____
ROOT
ATOM      1  C   UNL     1       6.962   5.786  16.496  0.00  0.00    +0.000 C 
ENDROOT
BRANCH   1   2
ATOM      2  N   UNL     1       5.819   4.926  16.248  0.00  0.00    +0.000 N 
ATOM      3  H   UNL     1       6.046   3.935  16.249  0.00  0.00    +0.000 HD
BRANCH   2   6
ATOM      4  C   UNL     1       3.231   6.954  17.915  0.00  0.00    +0.000 A 
ATOM      5  C   UNL     1       4.291   6.539  17.122  0.00  0.00    +0.000 A 
ATOM      6  C   UNL     1       4.634   5.178  17.006  0.00  0.00    +0.000 A 
ATOM      7  C   UNL     1       3.883   4.194  17.725  0.00  0.00    +0.000 A 
ATOM      8  N   UNL     1       4.161   2.867  17.643  0.00  0.00    +0.000 NA
ATOM      9  C   UNL     1       3.432   1.966  18.326  0.00  0.00    +0.000 A 
ATOM     10  C   UNL     1       2.380   2.304  19.137  0.00  0.00    +0.000 A 
ATOM     11  C   UNL     1       2.049   3.654  19.251  0.00  0.00    +0.000 A 
ATOM     12  C   UNL     1       0.901   4.027  20.151  0.00  0.00    +0.000 C 
ATOM     13  C   UNL     1       2.803   4.624  18.534  0.00  0.00    +0.000 A 
ATOM     14  C   UNL     1       2.499   5.999  18.611  0.00  0.00    +0.000 A 
BRANCH   4  16
ATOM     15  C   UNL     1       1.827   8.732  18.610  0.00  0.00    +0.000 C 
ATOM     16  O   UNL     1       3.009   8.303  17.945  0.00  0.00    +0.000 OA
ENDBRANCH   4  16
ENDBRANCH   2   6
ENDBRANCH   1   2
BRANCH   1  17
ATOM     17  C   UNL     1       7.524   5.590  17.899  0.00  0.00    +0.000 C 
BRANCH  17  18
ATOM     18  C   UNL     1       7.781   6.945  18.567  0.00  0.00    +0.000 C 
BRANCH  18  19
ATOM     19  C   UNL     1       8.042   8.080  17.570  0.00  0.00    +0.000 C 
BRANCH  19  20
ATOM     20  C   UNL     1       8.052   9.465  18.224  0.00  0.00    +0.000 C 
BRANCH  20  21
ATOM     21  C   UNL     1       9.463   9.938  18.595  0.00  0.00    +0.000 C 
BRANCH  21  22
ATOM     22  N   UNL     1       9.455  11.308  19.091  0.00  0.00    +0.000 N 
ATOM     23  C   UNL     1       8.909  11.582  20.421  0.00  0.00    +0.000 C 
ATOM     24  C   UNL     1       9.960  12.166  21.367  0.00  0.00    +0.000 C 
ATOM     25  N   UNL     1      10.676  13.310  20.811  0.00  0.00    +0.000 N 
ATOM     26  C   UNL     1      10.817  13.326  19.405  0.00  0.00    +0.000 A 
ATOM     27  C   UNL     1      11.599  14.352  18.851  0.00  0.00    +0.000 A 
ATOM     28  C   UNL     1      11.875  14.388  17.492  0.00  0.00    +0.000 A 
ATOM     29  C   UNL     1      11.372  13.396  16.660  0.00  0.00    +0.000 A 
ATOM     30  C   UNL     1      10.590  12.365  17.198  0.00  0.00    +0.000 A 
ATOM     31  C   UNL     1      10.292  12.300  18.570  0.00  0.00    +0.000 A 
ATOM     32  H   UNL     1      10.412  14.219  21.177  0.00  0.00    +0.000 HD
ENDBRANCH  21  22
ENDBRANCH  20  21
ENDBRANCH  19  20
ENDBRANCH  18  19
ENDBRANCH  17  18
ENDBRANCH   1  17
TORSDOF 9
ENDMDL
MODEL 3
REMARK VINA RESULT:      -7.7      1.378      1.962
REMARK  Name = 
REMARK  11 active torsions:
REMARK  status: ('A' for Active; 'I' for Inactive)
REMARK    1  A    between atoms: C_1  and  O_2
REMARK    2  A    between atoms: O_2  and  C_3
REMARK    3  A    between atoms: C_5  and  N_6
REMARK    4  A    between atoms: N_6  and  C_7
REMARK    5  A    between atoms: C_7  and  C_8
REMARK    6  A    between atoms: C_8  and  C_9
REMARK    7  A    between atoms: C_9  and  C_10
REMARK    8  A    between atoms: C_10  and  C_11
REMARK    9  A    between atoms: C_11  and  C_12
REMARK   10  A    between atoms: C_12  and  N_13
REMARK   11  A    between atoms: C_27  and  C_28
REMARK                            x       y       z     vdW  Elec       q    Type
REMARK                         _______ _______ _______ _____ _____    ______ ____
ROOT
ATOM      1  C   UNL     1       7.122   6.466  17.835  0.00  0.00    +0.000 C 
ENDROOT
BRANCH   1   2
ATOM      2  N   UNL     1       6.029   6.014  16.991  0.00  0.00    +0.000 N 
ATOM      3  H   UNL     1       6.224   5.144  16.503  0.00  0.00    +0.000 HD
BRANCH   2   6
ATOM      4  C   UNL     1       2.732   7.352  17.952  0.00  0.00    +0.000 A 
ATOM      5  C   UNL     1       3.976   7.173  17.364  0.00  0.00    +0.000 A 
ATOM      6  C   UNL     1       4.722   5.996  17.567  0.00  0.00    +0.000 A 
ATOM      7  C   UNL     1       4.199   4.960  18.404  0.00  0.00    +0.000 A 
ATOM      8  N   UNL     1       4.868   3.800  18.627  0.00  0.00    +0.000 NA
ATOM      9  C   UNL     1       4.346   2.841  19.413  0.00  0.00    +0.000 A 
ATOM     10  C   UNL     1       3.130   2.955  20.035  0.00  0.00    +0.000 A 
ATOM     11  C   UNL     1       2.398   4.124  19.834  0.00  0.00    +0.000 A 
ATOM     12  C   UNL     1       1.068   4.254  20.527  0.00  0.00    +0.000 C 
ATOM     13  C   UNL     1       2.928   5.149  19.002  0.00  0.00    +0.000 A 
ATOM     14  C   UNL     1       2.221   6.344  18.762  0.00  0.00    +0.000 A 
BRANCH   4  16
ATOM     15  C   UNL     1       1.484   9.191  18.777  0.00  0.00    +0.000 C 
ATOM     16  O   UNL     1       2.116   8.542  17.679  0.00  0.00    +0.000 OA
ENDBRANCH   4  16
ENDBRANCH   2   6
ENDBRANCH   1   2
BRANCH   1  17
ATOM     17  C   UNL     1       7.621   7.845  17.422  0.00  0.00    +0.000 C 
BRANCH  17  18
ATOM     18  C   UNL     1       8.547   8.424  18.498  0.00  0.00    +0.000 C 
BRANCH  18  19
ATOM     19  C   UNL     1       8.786   9.932  18.355  0.00  0.00    +0.000 C 
BRANCH  19  20
ATOM     20  C   UNL     1       9.445  10.556  19.587  0.00  0.00    +0.000 C 
BRANCH  20  21
ATOM     21  C   UNL     1      10.453  11.656  19.232  0.00  0.00    +0.000 C 
BRANCH  21  22
ATOM     22  N   UNL     1       9.811  12.959  19.127  0.00  0.00    +0.000 N 
ATOM     23  C   UNL     1       9.401  13.447  17.809  0.00  0.00    +0.000 C 
ATOM     24  C   UNL     1       7.889  13.662  17.718  0.00  0.00    +0.000 C 
ATOM     25  N   UNL     1       7.347  14.470  18.806  0.00  0.00    +0.000 N 
ATOM     26  C   UNL     1       8.037  14.391  20.037  0.00  0.00    +0.000 A 
ATOM     27  C   UNL     1       7.474  15.065  21.132  0.00  0.00    +0.000 A 
ATOM     28  C   UNL     1       8.027  14.960  22.400  0.00  0.00    +0.000 A 
ATOM     29  C   UNL     1       9.157  14.176  22.595  0.00  0.00    +0.000 A 
ATOM     30  C   UNL     1       9.731  13.497  21.512  0.00  0.00    +0.000 A 
ATOM     31  C   UNL     1       9.195  13.584  20.216  0.00  0.00    +0.000 A 
ATOM     32  H   UNL     1       7.100  15.425  18.569  0.00  0.00    +0.000 HD
ENDBRANCH  21  22
ENDBRANCH  20  21
ENDBRANCH  19  20
ENDBRANCH  18  19
ENDBRANCH  17  18
ENDBRANCH   1  17
TORSDOF 9
ENDMDL
MODEL 4
REMARK VINA RESULT:      -7.6      1.702      2.065
REMARK  Name = 
REMARK  11 active torsions:
REMARK  status: ('A' for Active; 'I' for Inactive)
REMARK    1  A    between atoms: C_1  and  O_2
REMARK    2  A    between atoms: O_2  and  C_3
REMARK    3  A    between atoms: C_5  and  N_6
REMARK    4  A    between atoms: N_6  and  C_7
REMARK    5  A    between atoms: C_7  and  C_8
REMARK    6  A    between atoms: C_8  and  C_9
REMARK    7  A    between atoms: C_9  and  C_10
REMARK    8  A    between atoms: C_10  and  C_11
REMARK    9  A    between atoms: C_11  and  C_12
REMARK   10  A    between atoms: C_12  and  N_13
REMARK   11  A    between atoms: C_27  and  C_28
REMARK                            x       y       z     vdW  Elec       q    Type
REMARK                         _______ _______ _______ _____ _____    ______ ____
ROOT
ATOM      1  C   UNL     1       7.405   6.034  17.863  0.00  0.00    +0.000 C 
ENDROOT
BRANCH   1   2
ATOM      2  N   UNL     1       6.352   5.368  17.116  0.00  0.00    +0.000 N 
ATOM      3  H   UNL     1       6.563   4.399  16.890  0.00  0.00    +0.000 HD
BRANCH   2   6
ATOM      4  C   UNL     1       3.091   6.992  17.676  0.00  0.00    +0.000 A 
ATOM      5  C   UNL     1       4.352   6.667  17.195  0.00  0.00    +0.000 A 
ATOM      6  C   UNL     1       5.018   5.499  17.610  0.00  0.00    +0.000 A 
ATOM      7  C   UNL     1       4.393   4.623  18.555  0.00  0.00    +0.000 A 
ATOM      8  N   UNL     1       4.983   3.478  18.983  0.00  0.00    +0.000 NA
ATOM      9  C   UNL     1       4.367   2.672  19.867  0.00  0.00    +0.000 A 
ATOM     10  C   UNL     1       3.129   2.935  20.392  0.00  0.00    +0.000 A 
ATOM     11  C   UNL     1       2.476   4.097  19.980  0.00  0.00    +0.000 A 
ATOM     12  C   UNL     1       1.121   4.392  20.567  0.00  0.00    +0.000 C 
ATOM     13  C   UNL     1       3.107   4.960  19.043  0.00  0.00    +0.000 A 
ATOM     14  C   UNL     1       2.482   6.141  18.591  0.00  0.00    +0.000 A 
BRANCH   4  16
ATOM     15  C   UNL     1       2.193   9.129  18.171  0.00  0.00    +0.000 C 
ATOM     16  O   UNL     1       2.559   8.157  17.198  0.00  0.00    +0.000 OA
ENDBRANCH   4  16
ENDBRANCH   2   6
ENDBRANCH   1   2
BRANCH   1  17
ATOM     17  C   UNL     1       7.484   7.518  17.525  0.00  0.00    +0.000 C 
BRANCH  17  18
ATOM     18  C   UNL     1       8.482   8.225  18.449  0.00  0.00    +0.000 C 
BRANCH  18  19
ATOM     19  C   UNL     1       8.470   9.752  18.310  0.00  0.00    +0.000 C 
BRANCH  19  20
ATOM     20  C   UNL     1       9.712  10.421  18.905  0.00  0.00    +0.000 C 
BRANCH  20  21
ATOM     21  C   UNL     1       9.553  10.757  20.393  0.00  0.00    +0.000 C 
BRANCH  21  22
ATOM     22  N   UNL     1      10.380  11.894  20.777  0.00  0.00    +0.000 N 
ATOM     23  C   UNL     1      11.630  12.141  20.057  0.00  0.00    +0.000 C 
ATOM     24  C   UNL     1      11.627  13.493  19.342  0.00  0.00    +0.000 C 
ATOM     25  N   UNL     1      11.249  14.609  20.203  0.00  0.00    +0.000 N 
ATOM     26  C   UNL     1      10.365  14.300  21.262  0.00  0.00    +0.000 A 
ATOM     27  C   UNL     1       9.892  15.372  22.036  0.00  0.00    +0.000 A 
ATOM     28  C   UNL     1       8.944  15.175  23.030  0.00  0.00    +0.000 A 
ATOM     29  C   UNL     1       8.451  13.898  23.267  0.00  0.00    +0.000 A 
ATOM     30  C   UNL     1       8.913  12.819  22.503  0.00  0.00    +0.000 A 
ATOM     31  C   UNL     1       9.872  12.985  21.490  0.00  0.00    +0.000 A 
ATOM     32  H   UNL     1      12.005  15.214  20.504  0.00  0.00    +0.000 HD
ENDBRANCH  21  22
ENDBRANCH  20  21
ENDBRANCH  19  20
ENDBRANCH  18  19
ENDBRANCH  17  18
ENDBRANCH   1  17
TORSDOF 9
ENDMDL
MODEL 5
REMARK VINA RESULT:      -7.6      1.822      2.505
REMARK  Name = 
REMARK  11 active torsions:
REMARK  status: ('A' for Active; 'I' for Inactive)
REMARK    1  A    between atoms: C_1  and  O_2
REMARK    2  A    between atoms: O_2  and  C_3
REMARK    3  A    between atoms: C_5  and  N_6
REMARK    4  A    between atoms: N_6  and  C_7
REMARK    5  A    between atoms: C_7  and  C_8
REMARK    6  A    between atoms: C_8  and  C_9
REMARK    7  A    between atoms: C_9  and  C_10
REMARK    8  A    between atoms: C_10  and  C_11
REMARK    9  A    between atoms: C_11  and  C_12
REMARK   10  A    between atoms: C_12  and  N_13
REMARK   11  A    between atoms: C_27  and  C_28
REMARK                            x       y       z     vdW  Elec       q    Type
REMARK                         _______ _______ _______ _____ _____    ______ ____
ROOT
ATOM      1  C   UNL     1       6.721   6.523  17.833  0.00  0.00    +0.000 C 
ENDROOT
BRANCH   1   2
ATOM      2  N   UNL     1       5.647   6.186  16.915  0.00  0.00    +0.000 N 
ATOM      3  H   UNL     1       5.890   5.453  16.254  0.00  0.00    +0.000 HD
BRANCH   2   6
ATOM      4  C   UNL     1       2.462   7.062  18.549  0.00  0.00    +0.000 A 
ATOM      5  C   UNL     1       3.679   7.125  17.886  0.00  0.00    +0.000 A 
ATOM      6  C   UNL     1       4.354   5.959  17.477  0.00  0.00    +0.000 A 
ATOM      7  C   UNL     1       3.783   4.675  17.753  0.00  0.00    +0.000 A 
ATOM      8  N   UNL     1       4.383   3.518  17.372  0.00  0.00    +0.000 NA
ATOM      9  C   UNL     1       3.817   2.326  17.640  0.00  0.00    +0.000 A 
ATOM     10  C   UNL     1       2.624   2.189  18.300  0.00  0.00    +0.000 A 
ATOM     11  C   UNL     1       1.963   3.348  18.708  0.00  0.00    +0.000 A 
ATOM     12  C   UNL     1       0.659   3.196  19.443  0.00  0.00    +0.000 C 
ATOM     13  C   UNL     1       2.540   4.618  18.430  0.00  0.00    +0.000 A 
ATOM     14  C   UNL     1       1.905   5.816  18.814  0.00  0.00    +0.000 A 
BRANCH   4  16
ATOM     15  C   UNL     1       1.821   9.238  17.862  0.00  0.00    +0.000 C 
ATOM     16  O   UNL     1       1.917   8.267  18.897  0.00  0.00    +0.000 OA
ENDBRANCH   4  16
ENDBRANCH   2   6
ENDBRANCH   1   2
BRANCH   1  17
ATOM     17  C   UNL     1       7.761   7.424  17.178  0.00  0.00    +0.000 C 
BRANCH  17  18
ATOM     18  C   UNL     1       7.620   8.863  17.690  0.00  0.00    +0.000 C 
BRANCH  18  19
ATOM     19  C   UNL     1       8.787   9.315  18.576  0.00  0.00    +0.000 C 
BRANCH  19  20
ATOM     20  C   UNL     1       9.223  10.758  18.306  0.00  0.00    +0.000 C 
BRANCH  20  21
ATOM     21  C   UNL     1      10.342  11.228  19.243  0.00  0.00    +0.000 C 
BRANCH  21  22
ATOM     22  N   UNL     1      10.024  12.509  19.859  0.00  0.00    +0.000 N 
ATOM     23  C   UNL     1      10.402  13.744  19.170  0.00  0.00    +0.000 C 
ATOM     24  C   UNL     1       9.186  14.599  18.809  0.00  0.00    +0.000 C 
ATOM     25  N   UNL     1       8.286  14.839  19.933  0.00  0.00    +0.000 N 
ATOM     26  C   UNL     1       8.246  13.828  20.920  0.00  0.00    +0.000 A 
ATOM     27  C   UNL     1       7.307  13.976  21.953  0.00  0.00    +0.000 A 
ATOM     28  C   UNL     1       7.128  12.984  22.907  0.00  0.00    +0.000 A 
ATOM     29  C   UNL     1       7.889  11.824  22.844  0.00  0.00    +0.000 A 
ATOM     30  C   UNL     1       8.830  11.661  21.820  0.00  0.00    +0.000 A 
ATOM     31  C   UNL     1       9.035  12.646  20.839  0.00  0.00    +0.000 A 
ATOM     32  H   UNL     1       8.323  15.767  20.342  0.00  0.00    +0.000 HD
ENDBRANCH  21  22
ENDBRANCH  20  21
ENDBRANCH  19  20
ENDBRANCH  18  19
ENDBRANCH  17  18
ENDBRANCH   1  17
TORSDOF 9
ENDMDL
MODEL 6
REMARK VINA RESULT:      -7.6      6.462     10.558
REMARK  Name = 
REMARK  11 active torsions:
REMARK  status: ('A' for Active; 'I' for Inactive)
REMARK    1  A    between atoms: C_1  and  O_2
REMARK    2  A    between atoms: O_2  and  C_3
REMARK    3  A    between atoms: C_5  and  N_6
REMARK    4  A    between atoms: N_6  and  C_7
REMARK    5  A    between atoms: C_7  and  C_8
REMARK    6  A    between atoms: C_8  and  C_9
REMARK    7  A    between atoms: C_9  and  C_10
REMARK    8  A    between atoms: C_10  and  C_11
REMARK    9  A    between atoms: C_11  and  C_12
REMARK   10  A    between atoms: C_12  and  N_13
REMARK   11  A    between atoms: C_27  and  C_28
REMARK                            x       y       z     vdW  Elec       q    Type
REMARK                         _______ _______ _______ _____ _____    ______ ____
ROOT
ATOM      1  C   UNL     1       0.520  11.489  19.254  0.00  0.00    +0.000 C 
ENDROOT
BRANCH   1   2
ATOM      2  N   UNL     1      -0.619  12.381  19.135  0.00  0.00    +0.000 N 
ATOM      3  H   UNL     1      -0.399  13.266  18.685  0.00  0.00    +0.000 HD
BRANCH   2   6
ATOM      4  C   UNL     1      -2.798  10.699  16.684  0.00  0.00    +0.000 A 
ATOM      5  C   UNL     1      -1.695  11.189  17.370  0.00  0.00    +0.000 A 
ATOM      6  C   UNL     1      -1.831  11.831  18.615  0.00  0.00    +0.000 A 
ATOM      7  C   UNL     1      -3.131  11.994  19.192  0.00  0.00    +0.000 A 
ATOM      8  N   UNL     1      -3.321  12.595  20.394  0.00  0.00    +0.000 NA
ATOM      9  C   UNL     1      -4.556  12.727  20.913  0.00  0.00    +0.000 A 
ATOM     10  C   UNL     1      -5.689  12.279  20.286  0.00  0.00    +0.000 A 
ATOM     11  C   UNL     1      -5.548  11.648  19.050  0.00  0.00    +0.000 A 
ATOM     12  C   UNL     1      -6.795  11.166  18.357  0.00  0.00    +0.000 C 
ATOM     13  C   UNL     1      -4.252  11.493  18.486  0.00  0.00    +0.000 A 
ATOM     14  C   UNL     1      -4.060  10.854  17.244  0.00  0.00    +0.000 A 
BRANCH   4  16
ATOM     15  C   UNL     1      -3.530  10.228  14.479  0.00  0.00    +0.000 C 
ATOM     16  O   UNL     1      -2.529  10.104  15.482  0.00  0.00    +0.000 OA
ENDBRANCH   4  16
ENDBRANCH   2   6
ENDBRANCH   1   2
BRANCH   1  17
ATOM     17  C   UNL     1       0.282  10.406  20.299  0.00  0.00    +0.000 C 
BRANCH  17  18
ATOM     18  C   UNL     1       0.905   9.079  19.848  0.00  0.00    +0.000 C 
BRANCH  18  19
ATOM     19  C   UNL     1       1.649   9.176  18.510  0.00  0.00    +0.000 C 
BRANCH  19  20
ATOM     20  C   UNL     1       1.993   7.808  17.914  0.00  0.00    +0.000 C 
BRANCH  20  21
ATOM     21  C   UNL     1       3.333   7.258  18.417  0.00  0.00    +0.000 C 
BRANCH  21  22
ATOM     22  N   UNL     1       3.425   5.816  18.232  0.00  0.00    +0.000 N 
ATOM     23  C   UNL     1       4.250   5.289  17.143  0.00  0.00    +0.000 C 
ATOM     24  C   UNL     1       5.399   4.422  17.659  0.00  0.00    +0.000 C 
ATOM     25  N   UNL     1       4.974   3.382  18.592  0.00  0.00    +0.000 N 
ATOM     26  C   UNL     1       3.830   3.678  19.367  0.00  0.00    +0.000 A 
ATOM     27  C   UNL     1       3.465   2.748  20.353  0.00  0.00    +0.000 A 
ATOM     28  C   UNL     1       2.418   3.003  21.227  0.00  0.00    +0.000 A 
ATOM     29  C   UNL     1       1.715   4.197  21.129  0.00  0.00    +0.000 A 
ATOM     30  C   UNL     1       2.067   5.135  20.150  0.00  0.00    +0.000 A 
ATOM     31  C   UNL     1       3.122   4.907  19.250  0.00  0.00    +0.000 A 
ATOM     32  H   UNL     1       4.949   2.438  18.223  0.00  0.00    +0.000 HD
ENDBRANCH  21  22
ENDBRANCH  20  21
ENDBRANCH  19  20
ENDBRANCH  18  19
ENDBRANCH  17  18
ENDBRANCH   1  17
TORSDOF 9
ENDMDL
MODEL 7
REMARK VINA RESULT:      -7.6      6.048      9.113
REMARK  Name = 
REMARK  11 active torsions:
REMARK  status: ('A' for Active; 'I' for Inactive)
REMARK    1  A    between atoms: C_1  and  O_2
REMARK    2  A    between atoms: O_2  and  C_3
REMARK    3  A    between atoms: C_5  and  N_6
REMARK    4  A    between atoms: N_6  and  C_7
REMARK    5  A    between atoms: C_7  and  C_8
REMARK    6  A    between atoms: C_8  and  C_9
REMARK    7  A    between atoms: C_9  and  C_10
REMARK    8  A    between atoms: C_10  and  C_11
REMARK    9  A    between atoms: C_11  and  C_12
REMARK   10  A    between atoms: C_12  and  N_13
REMARK   11  A    between atoms: C_27  and  C_28
REMARK                            x       y       z     vdW  Elec       q    Type
REMARK                         _______ _______ _______ _____ _____    ______ ____
ROOT
ATOM      1  C   UNL     1       1.924   8.911  18.005  0.00  0.00    +0.000 C 
ENDROOT
BRANCH   1   2
ATOM      2  N   UNL     1       1.288   9.424  19.207  0.00  0.00    +0.000 N 
ATOM      3  H   UNL     1       1.900  10.000  19.778  0.00  0.00    +0.000 HD
BRANCH   2   6
ATOM      4  C   UNL     1      -1.797  10.445  17.467  0.00  0.00    +0.000 A 
ATOM      5  C   UNL     1      -0.601   9.828  17.804  0.00  0.00    +0.000 A 
ATOM      6  C   UNL     1       0.005  10.033  19.058  0.00  0.00    +0.000 A 
ATOM      7  C   UNL     1      -0.616  10.903  20.011  0.00  0.00    +0.000 A 
ATOM      8  N   UNL     1      -0.084  11.131  21.240  0.00  0.00    +0.000 NA
ATOM      9  C   UNL     1      -0.695  11.949  22.116  0.00  0.00    +0.000 A 
ATOM     10  C   UNL     1      -1.871  12.600  21.847  0.00  0.00    +0.000 A 
ATOM     11  C   UNL     1      -2.463  12.395  20.601  0.00  0.00    +0.000 A 
ATOM     12  C   UNL     1      -3.748  13.120  20.302  0.00  0.00    +0.000 C 
ATOM     13  C   UNL     1      -1.837  11.531  19.661  0.00  0.00    +0.000 A 
ATOM     14  C   UNL     1      -2.402  11.287  18.393  0.00  0.00    +0.000 A 
BRANCH   4  16
ATOM     15  C   UNL     1      -3.334  10.990  15.747  0.00  0.00    +0.000 C 
ATOM     16  O   UNL     1      -2.274  10.166  16.216  0.00  0.00    +0.000 OA
ENDBRANCH   4  16
ENDBRANCH   2   6
ENDBRANCH   1   2
BRANCH   1  17
ATOM     17  C   UNL     1       2.324   7.449  18.159  0.00  0.00    +0.000 C 
BRANCH  17  18
ATOM     18  C   UNL     1       2.356   7.055  19.640  0.00  0.00    +0.000 C 
BRANCH  18  19
ATOM     19  C   UNL     1       2.164   5.553  19.879  0.00  0.00    +0.000 C 
BRANCH  19  20
ATOM     20  C   UNL     1       2.524   4.699  18.660  0.00  0.00    +0.000 C 
BRANCH  20  21
ATOM     21  C   UNL     1       3.901   4.037  18.780  0.00  0.00    +0.000 C 
BRANCH  21  22
ATOM     22  N   UNL     1       4.957   4.897  18.262  0.00  0.00    +0.000 N 
ATOM     23  C   UNL     1       5.763   5.679  19.201  0.00  0.00    +0.000 C 
ATOM     24  C   UNL     1       7.244   5.296  19.149  0.00  0.00    +0.000 C 
ATOM     25  N   UNL     1       7.800   5.297  17.799  0.00  0.00    +0.000 N 
ATOM     26  C   UNL     1       6.894   4.996  16.757  0.00  0.00    +0.000 A 
ATOM     27  C   UNL     1       7.422   4.876  15.462  0.00  0.00    +0.000 A 
ATOM     28  C   UNL     1       6.625   4.484  14.396  0.00  0.00    +0.000 A 
ATOM     29  C   UNL     1       5.281   4.206  14.608  0.00  0.00    +0.000 A 
ATOM     30  C   UNL     1       4.738   4.322  15.894  0.00  0.00    +0.000 A 
ATOM     31  C   UNL     1       5.518   4.717  16.994  0.00  0.00    +0.000 A 
ATOM     32  H   UNL     1       8.400   6.081  17.567  0.00  0.00    +0.000 HD
ENDBRANCH  21  22
ENDBRANCH  20  21
ENDBRANCH  19  20
ENDBRANCH  18  19
ENDBRANCH  17  18
ENDBRANCH   1  17
TORSDOF 9
ENDMDL
MODEL 8
REMARK VINA RESULT:      -7.6      1.602      2.025
REMARK  Name = 
REMARK  11 active torsions:
REMARK  status: ('A' for Active; 'I' for Inactive)
REMARK    1  A    between atoms: C_1  and  O_2
REMARK    2  A    between atoms: O_2  and  C_3
REMARK    3  A    between atoms: C_5  and  N_6
REMARK    4  A    between atoms: N_6  and  C_7
REMARK    5  A    between atoms: C_7  and  C_8
REMARK    6  A    between atoms: C_8  and  C_9
REMARK    7  A    between atoms: C_9  and  C_10
REMARK    8  A    between atoms: C_10  and  C_11
REMARK    9  A    between atoms: C_11  and  C_12
REMARK   10  A    between atoms: C_12  and  N_13
REMARK   11  A    between atoms: C_27  and  C_28
REMARK                            x       y       z     vdW  Elec       q    Type
REMARK                         _______ _______ _______ _____ _____    ______ ____
ROOT
ATOM      1  C   UNL     1       6.302   5.850  16.071  0.00  0.00    +0.000 C 
ENDROOT
BRANCH   1   2
ATOM      2  N   UNL     1       5.509   4.702  16.476  0.00  0.00    +0.000 N 
ATOM      3  H   UNL     1       6.059   3.949  16.881  0.00  0.00    +0.000 HD
BRANCH   2   6
ATOM      4  C   UNL     1       3.002   6.733  18.258  0.00  0.00    +0.000 A 
ATOM      5  C   UNL     1       4.042   6.321  17.437  0.00  0.00    +0.000 A 
ATOM      6  C   UNL     1       4.339   4.957  17.254  0.00  0.00    +0.000 A 
ATOM      7  C   UNL     1       3.561   3.965  17.933  0.00  0.00    +0.000 A 
ATOM      8  N   UNL     1       3.795   2.635  17.787  0.00  0.00    +0.000 NA
ATOM      9  C   UNL     1       3.041   1.727  18.434  0.00  0.00    +0.000 A 
ATOM     10  C   UNL     1       2.007   2.061  19.269  0.00  0.00    +0.000 A 
ATOM     11  C   UNL     1       1.722   3.414  19.449  0.00  0.00    +0.000 A 
ATOM     12  C   UNL     1       0.593   3.781  20.375  0.00  0.00    +0.000 C 
ATOM     13  C   UNL     1       2.501   4.392  18.771  0.00  0.00    +0.000 A 
ATOM     14  C   UNL     1       2.244   5.770  18.915  0.00  0.00    +0.000 A 
BRANCH   4  16
ATOM     15  C   UNL     1       1.547   8.582  17.974  0.00  0.00    +0.000 C 
ATOM     16  O   UNL     1       2.825   8.085  18.354  0.00  0.00    +0.000 OA
ENDBRANCH   4  16
ENDBRANCH   2   6
ENDBRANCH   1   2
BRANCH   1  17
ATOM     17  C   UNL     1       7.615   5.928  16.840  0.00  0.00    +0.000 C 
BRANCH  17  18
ATOM     18  C   UNL     1       7.497   6.921  18.002  0.00  0.00    +0.000 C 
BRANCH  18  19
ATOM     19  C   UNL     1       7.769   8.374  17.595  0.00  0.00    +0.000 C 
BRANCH  19  20
ATOM     20  C   UNL     1       8.649   9.125  18.598  0.00  0.00    +0.000 C 
BRANCH  20  21
ATOM     21  C   UNL     1       9.151  10.471  18.062  0.00  0.00    +0.000 C 
BRANCH  21  22
ATOM     22  N   UNL     1       9.139  11.498  19.095  0.00  0.00    +0.000 N 
ATOM     23  C   UNL     1       9.776  11.219  20.384  0.00  0.00    +0.000 C 
ATOM     24  C   UNL     1      10.939  12.171  20.670  0.00  0.00    +0.000 C 
ATOM     25  N   UNL     1      10.594  13.580  20.511  0.00  0.00    +0.000 N 
ATOM     26  C   UNL     1       9.586  13.866  19.563  0.00  0.00    +0.000 A 
ATOM     27  C   UNL     1       9.313  15.219  19.304  0.00  0.00    +0.000 A 
ATOM     28  C   UNL     1       8.413  15.593  18.317  0.00  0.00    +0.000 A 
ATOM     29  C   UNL     1       7.767  14.616  17.569  0.00  0.00    +0.000 A 
ATOM     30  C   UNL     1       8.028  13.262  17.815  0.00  0.00    +0.000 A 
ATOM     31  C   UNL     1       8.934  12.851  18.808  0.00  0.00    +0.000 A 
ATOM     32  H   UNL     1      10.468  14.106  21.370  0.00  0.00    +0.000 HD
ENDBRANCH  21  22
ENDBRANCH  20  21
ENDBRANCH  19  20
ENDBRANCH  18  19
ENDBRANCH  17  18
ENDBRANCH   1  17
TORSDOF 9
ENDMDL
MODEL 9
REMARK VINA RESULT:      -7.5      6.552     10.296
REMARK  Name = 
REMARK  11 active torsions:
REMARK  status: ('A' for Active; 'I' for Inactive)
REMARK    1  A    between atoms: C_1  and  O_2
REMARK    2  A    between atoms: O_2  and  C_3
REMARK    3  A    between atoms: C_5  and  N_6
REMARK    4  A    between atoms: N_6  and  C_7
REMARK    5  A    between atoms: C_7  and  C_8
REMARK    6  A    between atoms: C_8  and  C_9
REMARK    7  A    between atoms: C_9  and  C_10
REMARK    8  A    between atoms: C_10  and  C_11
REMARK    9  A    between atoms: C_11  and  C_12
REMARK   10  A    between atoms: C_12  and  N_13
REMARK   11  A    between atoms: C_27  and  C_28
REMARK                            x       y       z     vdW  Elec       q    Type
REMARK                         _______ _______ _______ _____ _____    ______ ____
ROOT
ATOM      1  C   UNL     1       1.353   9.373  18.761  0.00  0.00    +0.000 C 
ENDROOT
BRANCH   1   2
ATOM      2  N   UNL     1       0.732  10.471  18.039  0.00  0.00    +0.000 N 
ATOM      3  H   UNL     1       0.485  10.240  17.080  0.00  0.00    +0.000 HD
BRANCH   2   6
ATOM      4  C   UNL     1      -0.950  12.334  20.738  0.00  0.00    +0.000 A 
ATOM      5  C   UNL     1       0.004  11.727  19.934  0.00  0.00    +0.000 A 
ATOM      6  C   UNL     1      -0.336  11.160  18.691  0.00  0.00    +0.000 A 
ATOM      7  C   UNL     1      -1.695  11.199  18.241  0.00  0.00    +0.000 A 
ATOM      8  N   UNL     1      -2.079  10.679  17.047  0.00  0.00    +0.000 NA
ATOM      9  C   UNL     1      -3.363  10.738  16.649  0.00  0.00    +0.000 A 
ATOM     10  C   UNL     1      -4.359  11.312  17.396  0.00  0.00    +0.000 A 
ATOM     11  C   UNL     1      -4.016  11.867  18.628  0.00  0.00    +0.000 A 
ATOM     12  C   UNL     1      -5.112  12.486  19.453  0.00  0.00    +0.000 C 
ATOM     13  C   UNL     1      -2.664  11.821  19.066  0.00  0.00    +0.000 A 
ATOM     14  C   UNL     1      -2.269  12.376  20.300  0.00  0.00    +0.000 A 
BRANCH   4  16
ATOM     15  C   UNL     1      -1.365  12.726  23.038  0.00  0.00    +0.000 C 
ATOM     16  O   UNL     1      -0.489  12.838  21.922  0.00  0.00    +0.000 OA
ENDBRANCH   4  16
ENDBRANCH   2   6
ENDBRANCH   1   2
BRANCH   1  17
ATOM     17  C   UNL     1       1.935   8.332  17.812  0.00  0.00    +0.000 C 
BRANCH  17  18
ATOM     18  C   UNL     1       2.571   7.183  18.604  0.00  0.00    +0.000 C 
BRANCH  18  19
ATOM     19  C   UNL     1       2.119   7.124  20.068  0.00  0.00    +0.000 C 
BRANCH  19  20
ATOM     20  C   UNL     1       1.505   5.776  20.453  0.00  0.00    +0.000 C 
BRANCH  20  21
ATOM     21  C   UNL     1       2.534   4.795  21.030  0.00  0.00    +0.000 C 
BRANCH  21  22
ATOM     22  N   UNL     1       2.908   3.776  20.057  0.00  0.00    +0.000 N 
ATOM     23  C   UNL     1       2.014   2.637  19.840  0.00  0.00    +0.000 C 
ATOM     24  C   UNL     1       1.493   2.580  18.403  0.00  0.00    +0.000 C 
ATOM     25  N   UNL     1       2.545   2.665  17.395  0.00  0.00    +0.000 N 
ATOM     26  C   UNL     1       3.695   3.399  17.764  0.00  0.00    +0.000 A 
ATOM     27  C   UNL     1       4.674   3.596  16.776  0.00  0.00    +0.000 A 
ATOM     28  C   UNL     1       5.787   4.388  17.018  0.00  0.00    +0.000 A 
ATOM     29  C   UNL     1       5.941   4.998  18.257  0.00  0.00    +0.000 A 
ATOM     30  C   UNL     1       4.974   4.811  19.252  0.00  0.00    +0.000 A 
ATOM     31  C   UNL     1       3.835   4.015  19.039  0.00  0.00    +0.000 A 
ATOM     32  H   UNL     1       2.782   1.797  16.926  0.00  0.00    +0.000 HD
ENDBRANCH  21  22
ENDBRANCH  20  21
ENDBRANCH  19  20
ENDBRANCH  18  19
ENDBRANCH  17  18
ENDBRANCH   1  17
TORSDOF 9
ENDMDL
