MODEL 1
REMARK VINA RESULT:      -8.0      0.000      0.000
REMARK  Name = 
REMARK  9 active torsions:
REMARK  status: ('A' for Active; 'I' for Inactive)
REMARK    1  A    between atoms: C_1  and  O_2
REMARK    2  A    between atoms: O_2  and  C_3
REMARK    3  A    between atoms: C_8  and  C_9
REMARK    4  A    between atoms: C_9  and  C_10
REMARK    5  A    between atoms: C_11  and  C_12
REMARK    6  A    between atoms: C_12  and  N_13
REMARK    7  A    between atoms: N_13  and  C_14
REMARK    8  A    between atoms: N_13  and  C_15
REMARK    9  A    between atoms: C_15  and  C_16
REMARK                            x       y       z     vdW  Elec       q    Type
REMARK                         _______ _______ _______ _____ _____    ______ ____
ROOT
ATOM      1  C   UNL     1       3.469   6.920  18.077  0.00  0.00    +0.000 C 
ATOM      2  C   UNL     1       4.197   7.215  16.788  0.00  0.00    +0.000 C 
ATOM      3  C   UNL     1       3.745   5.799  18.777  0.00  0.00    +0.000 C 
ENDROOT
BRANCH   1   9
ATOM      4  C   UNL     1      -0.738  10.693  21.398  0.00  0.00    +0.000 A 
ATOM      5  C   UNL     1      -0.158   9.762  22.257  0.00  0.00    +0.000 A 
ATOM      6  C   UNL     1       0.767   8.837  21.768  0.00  0.00    +0.000 A 
ATOM      7  C   UNL     1       1.134   8.833  20.415  0.00  0.00    +0.000 A 
ATOM      8  C   UNL     1       2.052   7.893  19.916  0.00  0.00    +0.000 A 
ATOM      9  C   UNL     1       2.460   7.894  18.574  0.00  0.00    +0.000 A 
ATOM     10  C   UNL     1       1.909   8.871  17.730  0.00  0.00    +0.000 A 
ATOM     11  C   UNL     1       0.974   9.799  18.203  0.00  0.00    +0.000 A 
ATOM     12  C   UNL     1       0.575   9.790  19.547  0.00  0.00    +0.000 A 
ATOM     13  C   UNL     1      -0.362  10.708  20.051  0.00  0.00    +0.000 A 
BRANCH   4  15
ATOM     14  C   UNL     1      -1.873  11.838  23.141  0.00  0.00    +0.000 C 
ATOM     15  O   UNL     1      -1.669  11.631  21.749  0.00  0.00    +0.000 OA
ENDBRANCH   4  15
ENDBRANCH   1   9
BRANCH   3  16
ATOM     16  C   UNL     1       4.719   4.727  18.372  0.00  0.00    +0.000 C 
BRANCH  16  17
ATOM     17  N   UNL     1       4.175   3.824  17.343  0.00  0.00    +0.000 NA
ATOM     18  C   UNL     1       5.100   3.667  16.217  0.00  0.00    +0.000 C 
BRANCH  17  19
ATOM     19  C   UNL     1       3.890   2.492  17.924  0.00  0.00    +0.000 C 
BRANCH  19  20
ATOM     20  C   UNL     1       2.928   2.562  19.091  0.00  0.00    +0.000 A 
ATOM     21  C   UNL     1       1.574   2.847  18.867  0.00  0.00    +0.000 A 
ATOM     22  C   UNL     1       0.711   3.062  19.939  0.00  0.00    +0.000 A 
ATOM     23  C   UNL     1       1.192   2.985  21.245  0.00  0.00    +0.000 A 
ATOM     24  C   UNL     1       2.530   2.672  21.481  0.00  0.00    +0.000 A 
ATOM     25  C   UNL     1       3.396   2.455  20.409  0.00  0.00    +0.000 A 
ENDBRANCH  19  20
ENDBRANCH  17  19
ENDBRANCH  16  17
ENDBRANCH   3  16
TORSDOF 6
ENDMDL
MODEL 2
REMARK VINA RESULT:      -7.7      1.194      1.834
REMARK  Name = 
REMARK  9 active torsions:
REMARK  status: ('A' for Active; 'I' for Inactive)
REMARK    1  A    between atoms: C_1  and  O_2
REMARK    2  A    between atoms: O_2  and  C_3
REMARK    3  A    between atoms: C_8  and  C_9
REMARK    4  A    between atoms: C_9  and  C_10
REMARK    5  A    between atoms: C_11  and  C_12
REMARK    6  A    between atoms: C_12  and  N_13
REMARK    7  A    between atoms: N_13  and  C_14
REMARK    8  A    between atoms: N_13  and  C_15
REMARK    9  A    between atoms: C_15  and  C_16
REMARK                            x       y       z     vdW  Elec       q    Type
REMARK                         _______ _______ _______ _____ _____    ______ ____
ROOT
ATOM      1  C   UNL     1       2.548   6.939  19.627  0.00  0.00    +0.000 C 
ATOM      2  C   UNL     1       2.429   5.686  20.460  0.00  0.00    +0.000 C 
ATOM      3  C   UNL     1       3.434   7.003  18.610  0.00  0.00    +0.000 C 
ENDROOT
BRANCH   1   9
ATOM      4  C   UNL     1      -1.366  11.555  22.145  0.00  0.00    +0.000 A 
ATOM      5  C   UNL     1      -1.060  10.610  23.121  0.00  0.00    +0.000 A 
ATOM      6  C   UNL     1      -0.245   9.519  22.811  0.00  0.00    +0.000 A 
ATOM      7  C   UNL     1       0.284   9.359  21.523  0.00  0.00    +0.000 A 
ATOM      8  C   UNL     1       1.090   8.253  21.203  0.00  0.00    +0.000 A 
ATOM      9  C   UNL     1       1.659   8.092  19.930  0.00  0.00    +0.000 A 
ATOM     10  C   UNL     1       1.387   9.080  18.970  0.00  0.00    +0.000 A 
ATOM     11  C   UNL     1       0.564  10.174  19.263  0.00  0.00    +0.000 A 
ATOM     12  C   UNL     1       0.004  10.326  20.538  0.00  0.00    +0.000 A 
ATOM     13  C   UNL     1      -0.826  11.413  20.862  0.00  0.00    +0.000 A 
BRANCH   4  15
ATOM     14  C   UNL     1      -1.601  13.912  21.982  0.00  0.00    +0.000 C 
ATOM     15  O   UNL     1      -2.167  12.651  22.317  0.00  0.00    +0.000 OA
ENDBRANCH   4  15
ENDBRANCH   1   9
BRANCH   3  16
ATOM     16  C   UNL     1       4.402   5.921  18.219  0.00  0.00    +0.000 C 
BRANCH  16  17
ATOM     17  N   UNL     1       4.238   5.488  16.820  0.00  0.00    +0.000 NA
ATOM     18  C   UNL     1       5.255   6.080  15.947  0.00  0.00    +0.000 C 
BRANCH  17  19
ATOM     19  C   UNL     1       4.318   4.012  16.725  0.00  0.00    +0.000 C 
BRANCH  19  20
ATOM     20  C   UNL     1       3.334   3.318  17.644  0.00  0.00    +0.000 A 
ATOM     21  C   UNL     1       1.957   3.526  17.482  0.00  0.00    +0.000 A 
ATOM     22  C   UNL     1       1.053   3.015  18.410  0.00  0.00    +0.000 A 
ATOM     23  C   UNL     1       1.515   2.283  19.502  0.00  0.00    +0.000 A 
ATOM     24  C   UNL     1       2.880   2.043  19.656  0.00  0.00    +0.000 A 
ATOM     25  C   UNL     1       3.788   2.553  18.728  0.00  0.00    +0.000 A 
ENDBRANCH  19  20
ENDBRANCH  17  19
ENDBRANCH  16  17
ENDBRANCH   3  16
TORSDOF 6
ENDMDL
MODEL 3
REMARK VINA RESULT:      -7.7      1.209      1.935
REMARK  Name = 
REMARK  9 active torsions:
REMARK  status: ('A' for Active; 'I' for Inactive)
REMARK    1  A    between atoms: C_1  and  O_2
REMARK    2  A    between atoms: O_2  and  C_3
REMARK    3  A    between atoms: C_8  and  C_9
REMARK    4  A    between atoms: C_9  and  C_10
REMARK    5  A    between atoms: C_11  and  C_12
REMARK    6  A    between atoms: C_12  and  N_13
REMARK    7  A    between atoms: N_13  and  C_14
REMARK    8  A    between atoms: N_13  and  C_15
REMARK    9  A    between atoms: C_15  and  C_16
REMARK                            x       y       z     vdW  Elec       q    Type
REMARK                         _______ _______ _______ _____ _____    ______ ____
ROOT
ATOM      1  C   UNL     1       2.839   6.860  19.405  0.00  0.00    +0.000 C 
ATOM      2  C   UNL     1       2.822   5.616  20.260  0.00  0.00    +0.000 C 
ATOM      3  C   UNL     1       3.679   6.954  18.352  0.00  0.00    +0.000 C 
ENDROOT
BRANCH   1   9
ATOM      4  C   UNL     1      -1.208  11.308  22.013  0.00  0.00    +0.000 A 
ATOM      5  C   UNL     1      -0.804  10.404  22.993  0.00  0.00    +0.000 A 
ATOM      6  C   UNL     1       0.056   9.353  22.666  0.00  0.00    +0.000 A 
ATOM      7  C   UNL     1       0.533   9.193  21.358  0.00  0.00    +0.000 A 
ATOM      8  C   UNL     1       1.384   8.127  21.022  0.00  0.00    +0.000 A 
ATOM      9  C   UNL     1       1.901   7.968  19.727  0.00  0.00    +0.000 A 
ATOM     10  C   UNL     1       1.529   8.916  18.761  0.00  0.00    +0.000 A 
ATOM     11  C   UNL     1       0.660   9.969  19.071  0.00  0.00    +0.000 A 
ATOM     12  C   UNL     1       0.152  10.119  20.368  0.00  0.00    +0.000 A 
ATOM     13  C   UNL     1      -0.722  11.166  20.709  0.00  0.00    +0.000 A 
BRANCH   4  15
ATOM     14  C   UNL     1      -1.724  13.278  23.233  0.00  0.00    +0.000 C 
ATOM     15  O   UNL     1      -2.062  12.360  22.201  0.00  0.00    +0.000 OA
ENDBRANCH   4  15
ENDBRANCH   1   9
BRANCH   3  16
ATOM     16  C   UNL     1       4.690   5.920  17.939  0.00  0.00    +0.000 C 
BRANCH  16  17
ATOM     17  N   UNL     1       4.423   5.368  16.598  0.00  0.00    +0.000 NA
ATOM     18  C   UNL     1       5.434   5.797  15.626  0.00  0.00    +0.000 C 
BRANCH  17  19
ATOM     19  C   UNL     1       4.395   3.889  16.647  0.00  0.00    +0.000 C 
BRANCH  19  20
ATOM     20  C   UNL     1       3.330   3.360  17.584  0.00  0.00    +0.000 A 
ATOM     21  C   UNL     1       3.651   2.367  18.521  0.00  0.00    +0.000 A 
ATOM     22  C   UNL     1       2.651   1.767  19.283  0.00  0.00    +0.000 A 
ATOM     23  C   UNL     1       1.324   2.161  19.124  0.00  0.00    +0.000 A 
ATOM     24  C   UNL     1       0.997   3.169  18.218  0.00  0.00    +0.000 A 
ATOM     25  C   UNL     1       1.996   3.772  17.454  0.00  0.00    +0.000 A 
ENDBRANCH  19  20
ENDBRANCH  17  19
ENDBRANCH  16  17
ENDBRANCH   3  16
TORSDOF 6
ENDMDL
MODEL 4
REMARK VINA RESULT:      -7.7      1.515      3.385
REMARK  Name = 
REMARK  9 active torsions:
REMARK  status: ('A' for Active; 'I' for Inactive)
REMARK    1  A    between atoms: C_1  and  O_2
REMARK    2  A    between atoms: O_2  and  C_3
REMARK    3  A    between atoms: C_8  and  C_9
REMARK    4  A    between atoms: C_9  and  C_10
REMARK    5  A    between atoms: C_11  and  C_12
REMARK    6  A    between atoms: C_12  and  N_13
REMARK    7  A    between atoms: N_13  and  C_14
REMARK    8  A    between atoms: N_13  and  C_15
REMARK    9  A    between atoms: C_15  and  C_16
REMARK                            x       y       z     vdW  Elec       q    Type
REMARK                         _______ _______ _______ _____ _____    ______ ____
ROOT
ATOM      1  C   UNL     1       2.520   7.125  18.403  0.00  0.00    +0.000 C 
ATOM      2  C   UNL     1       3.719   7.447  17.542  0.00  0.00    +0.000 C 
ATOM      3  C   UNL     1       2.123   5.845  18.568  0.00  0.00    +0.000 C 
ENDROOT
BRANCH   1   9
ATOM      4  C   UNL     1      -0.611  11.261  22.409  0.00  0.00    +0.000 A 
ATOM      5  C   UNL     1      -0.348  10.065  23.074  0.00  0.00    +0.000 A 
ATOM      6  C   UNL     1       0.304   9.023  22.413  0.00  0.00    +0.000 A 
ATOM      7  C   UNL     1       0.712   9.160  21.078  0.00  0.00    +0.000 A 
ATOM      8  C   UNL     1       1.353   8.107  20.405  0.00  0.00    +0.000 A 
ATOM      9  C   UNL     1       1.802   8.235  19.081  0.00  0.00    +0.000 A 
ATOM     10  C   UNL     1       1.579   9.464  18.439  0.00  0.00    +0.000 A 
ATOM     11  C   UNL     1       0.917  10.515  19.085  0.00  0.00    +0.000 A 
ATOM     12  C   UNL     1       0.477  10.376  20.408  0.00  0.00    +0.000 A 
ATOM     13  C   UNL     1      -0.190  11.413  21.083  0.00  0.00    +0.000 A 
BRANCH   4  15
ATOM     14  C   UNL     1      -1.961  13.174  22.021  0.00  0.00    +0.000 C 
ATOM     15  O   UNL     1      -1.260  12.343  22.937  0.00  0.00    +0.000 OA
ENDBRANCH   4  15
ENDBRANCH   1   9
BRANCH   3  16
ATOM     16  C   UNL     1       2.745   4.640  17.919  0.00  0.00    +0.000 C 
BRANCH  16  17
ATOM     17  N   UNL     1       3.516   3.817  18.869  0.00  0.00    +0.000 NA
ATOM     18  C   UNL     1       2.714   2.712  19.403  0.00  0.00    +0.000 C 
BRANCH  17  19
ATOM     19  C   UNL     1       4.722   3.265  18.210  0.00  0.00    +0.000 C 
BRANCH  19  20
ATOM     20  C   UNL     1       5.745   4.333  17.886  0.00  0.00    +0.000 A 
ATOM     21  C   UNL     1       6.306   5.102  18.915  0.00  0.00    +0.000 A 
ATOM     22  C   UNL     1       7.132   6.184  18.617  0.00  0.00    +0.000 A 
ATOM     23  C   UNL     1       7.413   6.500  17.289  0.00  0.00    +0.000 A 
ATOM     24  C   UNL     1       6.885   5.723  16.259  0.00  0.00    +0.000 A 
ATOM     25  C   UNL     1       6.059   4.639  16.554  0.00  0.00    +0.000 A 
ENDBRANCH  19  20
ENDBRANCH  17  19
ENDBRANCH  16  17
ENDBRANCH   3  16
TORSDOF 6
ENDMDL
MODEL 5
REMARK VINA RESULT:      -7.7      3.684      8.275
REMARK  Name = 
REMARK  9 active torsions:
REMARK  status: ('A' for Active; 'I' for Inactive)
REMARK    1  A    between atoms: C_1  and  O_2
REMARK    2  A    between atoms: O_2  and  C_3
REMARK    3  A    between atoms: C_8  and  C_9
REMARK    4  A    between atoms: C_9  and  C_10
REMARK    5  A    between atoms: C_11  and  C_12
REMARK    6  A    between atoms: C_12  and  N_13
REMARK    7  A    between atoms: N_13  and  C_14
REMARK    8  A    between atoms: N_13  and  C_15
REMARK    9  A    between atoms: C_15  and  C_16
REMARK                            x       y       z     vdW  Elec       q    Type
REMARK                         _______ _______ _______ _____ _____    ______ ____
ROOT
ATOM      1  C   UNL     1       0.588   9.432  20.907  0.00  0.00    +0.000 C 
ATOM      2  C   UNL     1      -0.262   8.856  22.014  0.00  0.00    +0.000 C 
ATOM      3  C   UNL     1       0.641  10.767  20.711  0.00  0.00    +0.000 C 
ENDROOT
BRANCH   1   9
ATOM      4  C   UNL     1       3.919   4.537  18.096  0.00  0.00    +0.000 A 
ATOM      5  C   UNL     1       3.501   4.155  19.369  0.00  0.00    +0.000 A 
ATOM      6  C   UNL     1       2.780   5.045  20.167  0.00  0.00    +0.000 A 
ATOM      7  C   UNL     1       2.457   6.329  19.704  0.00  0.00    +0.000 A 
ATOM      8  C   UNL     1       1.746   7.233  20.511  0.00  0.00    +0.000 A 
ATOM      9  C   UNL     1       1.382   8.509  20.054  0.00  0.00    +0.000 A 
ATOM     10  C   UNL     1       1.763   8.862  18.750  0.00  0.00    +0.000 A 
ATOM     11  C   UNL     1       2.495   7.984  17.941  0.00  0.00    +0.000 A 
ATOM     12  C   UNL     1       2.851   6.712  18.407  0.00  0.00    +0.000 A 
ATOM     13  C   UNL     1       3.585   5.809  17.619  0.00  0.00    +0.000 A 
BRANCH   4  15
ATOM     14  C   UNL     1       5.364   4.459  16.214  0.00  0.00    +0.000 C 
ATOM     15  O   UNL     1       4.648   3.768  17.231  0.00  0.00    +0.000 OA
ENDBRANCH   4  15
ENDBRANCH   1   9
BRANCH   3  16
ATOM     16  C   UNL     1      -0.130  11.801  21.484  0.00  0.00    +0.000 C 
BRANCH  16  17
ATOM     17  N   UNL     1      -1.538  11.894  21.060  0.00  0.00    +0.000 NA
ATOM     18  C   UNL     1      -2.333  12.694  21.997  0.00  0.00    +0.000 C 
BRANCH  17  19
ATOM     19  C   UNL     1      -1.631  12.497  19.711  0.00  0.00    +0.000 C 
BRANCH  19  20
ATOM     20  C   UNL     1      -2.250  11.558  18.698  0.00  0.00    +0.000 A 
ATOM     21  C   UNL     1      -1.446  10.637  18.011  0.00  0.00    +0.000 A 
ATOM     22  C   UNL     1      -1.975   9.874  16.973  0.00  0.00    +0.000 A 
ATOM     23  C   UNL     1      -3.315  10.016  16.618  0.00  0.00    +0.000 A 
ATOM     24  C   UNL     1      -4.132  10.906  17.314  0.00  0.00    +0.000 A 
ATOM     25  C   UNL     1      -3.605  11.671  18.354  0.00  0.00    +0.000 A 
ENDBRANCH  19  20
ENDBRANCH  17  19
ENDBRANCH  16  17
ENDBRANCH   3  16
TORSDOF 6
ENDMDL
MODEL 6
REMARK VINA RESULT:      -7.6      1.540      3.953
REMARK  Name = 
REMARK  9 active torsions:
REMARK  status: ('A' for Active; 'I' for Inactive)
REMARK    1  A    between atoms: C_1  and  O_2
REMARK    2  A    between atoms: O_2  and  C_3
REMARK    3  A    between atoms: C_8  and  C_9
REMARK    4  A    between atoms: C_9  and  C_10
REMARK    5  A    between atoms: C_11  and  C_12
REMARK    6  A    between atoms: C_12  and  N_13
REMARK    7  A    between atoms: N_13  and  C_14
REMARK    8  A    between atoms: N_13  and  C_15
REMARK    9  A    between atoms: C_15  and  C_16
REMARK                            x       y       z     vdW  Elec       q    Type
REMARK                         _______ _______ _______ _____ _____    ______ ____
ROOT
ATOM      1  C   UNL     1       1.835   8.185  19.431  0.00  0.00    +0.000 C 
ATOM      2  C   UNL     1       2.188   8.781  18.090  0.00  0.00    +0.000 C 
ATOM      3  C   UNL     1       2.241   6.938  19.753  0.00  0.00    +0.000 C 
ENDROOT
BRANCH   1   9
ATOM      4  C   UNL     1      -2.084  12.333  22.655  0.00  0.00    +0.000 A 
ATOM      5  C   UNL     1      -2.162  12.576  21.286  0.00  0.00    +0.000 A 
ATOM      6  C   UNL     1      -1.401  11.818  20.394  0.00  0.00    +0.000 A 
ATOM      7  C   UNL     1      -0.554  10.800  20.855  0.00  0.00    +0.000 A 
ATOM      8  C   UNL     1       0.227  10.047  19.962  0.00  0.00    +0.000 A 
ATOM      9  C   UNL     1       1.053   9.000  20.398  0.00  0.00    +0.000 A 
ATOM     10  C   UNL     1       1.083   8.730  21.776  0.00  0.00    +0.000 A 
ATOM     11  C   UNL     1       0.333   9.488  22.683  0.00  0.00    +0.000 A 
ATOM     12  C   UNL     1      -0.491  10.529  22.235  0.00  0.00    +0.000 A 
ATOM     13  C   UNL     1      -1.256  11.306  23.122  0.00  0.00    +0.000 A 
BRANCH   4  15
ATOM     14  C   UNL     1      -3.926  12.398  24.151  0.00  0.00    +0.000 C 
ATOM     15  O   UNL     1      -2.758  13.018  23.628  0.00  0.00    +0.000 OA
ENDBRANCH   4  15
ENDBRANCH   1   9
BRANCH   3  16
ATOM     16  C   UNL     1       3.010   6.005  18.858  0.00  0.00    +0.000 C 
BRANCH  16  17
ATOM     17  N   UNL     1       3.581   4.859  19.588  0.00  0.00    +0.000 NA
ATOM     18  C   UNL     1       2.640   4.323  20.575  0.00  0.00    +0.000 C 
BRANCH  17  19
ATOM     19  C   UNL     1       3.957   3.783  18.643  0.00  0.00    +0.000 C 
BRANCH  19  20
ATOM     20  C   UNL     1       5.037   4.213  17.674  0.00  0.00    +0.000 A 
ATOM     21  C   UNL     1       4.808   4.142  16.292  0.00  0.00    +0.000 A 
ATOM     22  C   UNL     1       5.842   4.391  15.392  0.00  0.00    +0.000 A 
ATOM     23  C   UNL     1       7.110   4.725  15.864  0.00  0.00    +0.000 A 
ATOM     24  C   UNL     1       7.341   4.830  17.235  0.00  0.00    +0.000 A 
ATOM     25  C   UNL     1       6.308   4.581  18.138  0.00  0.00    +0.000 A 
ENDBRANCH  19  20
ENDBRANCH  17  19
ENDBRANCH  16  17
ENDBRANCH   3  16
TORSDOF 6
ENDMDL
MODEL 7
REMARK VINA RESULT:      -7.6      3.661      8.198
REMARK  Name = 
REMARK  9 active torsions:
REMARK  status: ('A' for Active; 'I' for Inactive)
REMARK    1  A    between atoms: C_1  and  O_2
REMARK    2  A    between atoms: O_2  and  C_3
REMARK    3  A    between atoms: C_8  and  C_9
REMARK    4  A    between atoms: C_9  and  C_10
REMARK    5  A    between atoms: C_11  and  C_12
REMARK    6  A    between atoms: C_12  and  N_13
REMARK    7  A    between atoms: N_13  and  C_14
REMARK    8  A    between atoms: N_13  and  C_15
REMARK    9  A    between atoms: C_15  and  C_16
REMARK                            x       y       z     vdW  Elec       q    Type
REMARK                         _______ _______ _______ _____ _____    ______ ____
ROOT
ATOM      1  C   UNL     1       0.647   9.702  20.808  0.00  0.00    +0.000 C 
ATOM      2  C   UNL     1      -0.296   9.212  21.881  0.00  0.00    +0.000 C 
ATOM      3  C   UNL     1       0.829  11.026  20.611  0.00  0.00    +0.000 C 
ENDROOT
BRANCH   1   9
ATOM      4  C   UNL     1       3.734   4.544  18.196  0.00  0.00    +0.000 A 
ATOM      5  C   UNL     1       3.334   4.247  19.497  0.00  0.00    +0.000 A 
ATOM      6  C   UNL     1       2.664   5.205  20.261  0.00  0.00    +0.000 A 
ATOM      7  C   UNL     1       2.376   6.472  19.735  0.00  0.00    +0.000 A 
ATOM      8  C   UNL     1       1.717   7.444  20.507  0.00  0.00    +0.000 A 
ATOM      9  C   UNL     1       1.386   8.706  19.989  0.00  0.00    +0.000 A 
ATOM     10  C   UNL     1       1.747   8.973  18.659  0.00  0.00    +0.000 A 
ATOM     11  C   UNL     1       2.427   8.027  17.883  0.00  0.00    +0.000 A 
ATOM     12  C   UNL     1       2.750   6.770  18.411  0.00  0.00    +0.000 A 
ATOM     13  C   UNL     1       3.432   5.799  17.657  0.00  0.00    +0.000 A 
BRANCH   4  15
ATOM     14  C   UNL     1       5.148   4.313  16.304  0.00  0.00    +0.000 C 
ATOM     15  O   UNL     1       4.414   3.704  17.358  0.00  0.00    +0.000 OA
ENDBRANCH   4  15
ENDBRANCH   1   9
BRANCH   3  16
ATOM     16  C   UNL     1       0.125  12.130  21.350  0.00  0.00    +0.000 C 
BRANCH  16  17
ATOM     17  N   UNL     1      -1.262  12.326  20.893  0.00  0.00    +0.000 NA
ATOM     18  C   UNL     1      -1.966  13.318  21.713  0.00  0.00    +0.000 C 
BRANCH  17  19
ATOM     19  C   UNL     1      -1.282  12.766  19.480  0.00  0.00    +0.000 C 
BRANCH  19  20
ATOM     20  C   UNL     1      -2.005  11.788  18.579  0.00  0.00    +0.000 A 
ATOM     21  C   UNL     1      -3.405  11.709  18.610  0.00  0.00    +0.000 A 
ATOM     22  C   UNL     1      -4.071  10.713  17.899  0.00  0.00    +0.000 A 
ATOM     23  C   UNL     1      -3.346   9.794  17.143  0.00  0.00    +0.000 A 
ATOM     24  C   UNL     1      -1.956   9.882  17.080  0.00  0.00    +0.000 A 
ATOM     25  C   UNL     1      -1.286  10.878  17.790  0.00  0.00    +0.000 A 
ENDBRANCH  19  20
ENDBRANCH  17  19
ENDBRANCH  16  17
ENDBRANCH   3  16
TORSDOF 6
ENDMDL
MODEL 8
REMARK VINA RESULT:      -7.5      2.132      4.529
REMARK  Name = 
REMARK  9 active torsions:
REMARK  status: ('A' for Active; 'I' for Inactive)
REMARK    1  A    between atoms: C_1  and  O_2
REMARK    2  A    between atoms: O_2  and  C_3
REMARK    3  A    between atoms: C_8  and  C_9
REMARK    4  A    between atoms: C_9  and  C_10
REMARK    5  A    between atoms: C_11  and  C_12
REMARK    6  A    between atoms: C_12  and  N_13
REMARK    7  A    between atoms: N_13  and  C_14
REMARK    8  A    between atoms: N_13  and  C_15
REMARK    9  A    between atoms: C_15  and  C_16
REMARK                            x       y       z     vdW  Elec       q    Type
REMARK                         _______ _______ _______ _____ _____    ______ ____
ROOT
ATOM      1  C   UNL     1       3.778   4.208  17.693  0.00  0.00    +0.000 C 
ATOM      2  C   UNL     1       3.967   2.814  18.243  0.00  0.00    +0.000 C 
ATOM      3  C   UNL     1       4.188   4.510  16.442  0.00  0.00    +0.000 C 
ENDROOT
BRANCH   1   9
ATOM      4  C   UNL     1       0.912   9.449  20.389  0.00  0.00    +0.000 A 
ATOM      5  C   UNL     1       1.300   9.741  19.084  0.00  0.00    +0.000 A 
ATOM      6  C   UNL     1       1.947   8.775  18.311  0.00  0.00    +0.000 A 
ATOM      7  C   UNL     1       2.209   7.498  18.827  0.00  0.00    +0.000 A 
ATOM      8  C   UNL     1       2.875   6.528  18.057  0.00  0.00    +0.000 A 
ATOM      9  C   UNL     1       3.115   5.233  18.541  0.00  0.00    +0.000 A 
ATOM     10  C   UNL     1       2.671   4.934  19.839  0.00  0.00    +0.000 A 
ATOM     11  C   UNL     1       2.031   5.895  20.630  0.00  0.00    +0.000 A 
ATOM     12  C   UNL     1       1.793   7.185  20.135  0.00  0.00    +0.000 A 
ATOM     13  C   UNL     1       1.153   8.171  20.905  0.00  0.00    +0.000 A 
BRANCH   4  15
ATOM     14  C   UNL     1       0.072   9.841  22.575  0.00  0.00    +0.000 C 
ATOM     15  O   UNL     1       0.295  10.313  21.252  0.00  0.00    +0.000 OA
ENDBRANCH   4  15
ENDBRANCH   1   9
BRANCH   3  16
ATOM     16  C   UNL     1       4.893   3.575  15.498  0.00  0.00    +0.000 C 
BRANCH  16  17
ATOM     17  N   UNL     1       6.222   4.069  15.095  0.00  0.00    +0.000 NA
ATOM     18  C   UNL     1       6.474   3.840  13.669  0.00  0.00    +0.000 C 
BRANCH  17  19
ATOM     19  C   UNL     1       6.343   5.516  15.382  0.00  0.00    +0.000 C 
BRANCH  19  20
ATOM     20  C   UNL     1       7.079   5.790  16.676  0.00  0.00    +0.000 A 
ATOM     21  C   UNL     1       7.433   4.728  17.521  0.00  0.00    +0.000 A 
ATOM     22  C   UNL     1       7.974   4.978  18.780  0.00  0.00    +0.000 A 
ATOM     23  C   UNL     1       8.176   6.291  19.202  0.00  0.00    +0.000 A 
ATOM     24  C   UNL     1       7.858   7.354  18.359  0.00  0.00    +0.000 A 
ATOM     25  C   UNL     1       7.316   7.107  17.097  0.00  0.00    +0.000 A 
ENDBRANCH  19  20
ENDBRANCH  17  19
ENDBRANCH  16  17
ENDBRANCH   3  16
TORSDOF 6
ENDMDL
MODEL 9
REMARK VINA RESULT:      -7.5      1.653      4.158
REMARK  Name = 
REMARK  9 active torsions:
REMARK  status: ('A' for Active; 'I' for Inactive)
REMARK    1  A    between atoms: C_1  and  O_2
REMARK    2  A    between atoms: O_2  and  C_3
REMARK    3  A    between atoms: C_8  and  C_9
REMARK    4  A    between atoms: C_9  and  C_10
REMARK    5  A    between atoms: C_11  and  C_12
REMARK    6  A    between atoms: C_12  and  N_13
REMARK    7  A    between atoms: N_13  and  C_14
REMARK    8  A    between atoms: N_13  and  C_15
REMARK    9  A    between atoms: C_15  and  C_16
REMARK                            x       y       z     vdW  Elec       q    Type
REMARK                         _______ _______ _______ _____ _____    ______ ____
ROOT
ATOM      1  C   UNL     1       1.586   8.615  19.345  0.00  0.00    +0.000 C 
ATOM      2  C   UNL     1       1.784   9.211  17.972  0.00  0.00    +0.000 C 
ATOM      3  C   UNL     1       2.148   7.429  19.663  0.00  0.00    +0.000 C 
ENDROOT
BRANCH   1   9
ATOM      4  C   UNL     1      -2.373  12.573  22.754  0.00  0.00    +0.000 A 
ATOM      5  C   UNL     1      -2.390  12.932  21.408  0.00  0.00    +0.000 A 
ATOM      6  C   UNL     1      -1.608  12.233  20.486  0.00  0.00    +0.000 A 
ATOM      7  C   UNL     1      -0.803  11.160  20.891  0.00  0.00    +0.000 A 
ATOM      8  C   UNL     1      -0.002  10.465  19.969  0.00  0.00    +0.000 A 
ATOM      9  C   UNL     1       0.783   9.365  20.347  0.00  0.00    +0.000 A 
ATOM     10  C   UNL     1       0.749   8.980  21.696  0.00  0.00    +0.000 A 
ATOM     11  C   UNL     1      -0.021   9.676  22.634  0.00  0.00    +0.000 A 
ATOM     12  C   UNL     1      -0.804  10.772  22.245  0.00  0.00    +0.000 A 
ATOM     13  C   UNL     1      -1.588  11.490  23.164  0.00  0.00    +0.000 A 
BRANCH   4  15
ATOM     14  C   UNL     1      -4.073  12.416  24.404  0.00  0.00    +0.000 C 
ATOM     15  O   UNL     1      -3.073  13.191  23.754  0.00  0.00    +0.000 OA
ENDBRANCH   4  15
ENDBRANCH   1   9
BRANCH   3  16
ATOM     16  C   UNL     1       2.957   6.563  18.737  0.00  0.00    +0.000 C 
BRANCH  16  17
ATOM     17  N   UNL     1       3.423   5.322  19.381  0.00  0.00    +0.000 NA
ATOM     18  C   UNL     1       2.531   4.910  20.470  0.00  0.00    +0.000 C 
BRANCH  17  19
ATOM     19  C   UNL     1       3.512   4.228  18.388  0.00  0.00    +0.000 C 
BRANCH  19  20
ATOM     20  C   UNL     1       4.823   4.237  17.631  0.00  0.00    +0.000 A 
ATOM     21  C   UNL     1       6.013   4.571  18.294  0.00  0.00    +0.000 A 
ATOM     22  C   UNL     1       7.198   4.728  17.580  0.00  0.00    +0.000 A 
ATOM     23  C   UNL     1       7.208   4.544  16.199  0.00  0.00    +0.000 A 
ATOM     24  C   UNL     1       6.038   4.181  15.533  0.00  0.00    +0.000 A 
ATOM     25  C   UNL     1       4.849   4.022  16.246  0.00  0.00    +0.000 A 
ENDBRANCH  19  20
ENDBRANCH  17  19
ENDBRANCH  16  17
ENDBRANCH   3  16
TORSDOF 6
ENDMDL
