MODEL 1
REMARK VINA RESULT:      -7.8      0.000      0.000
REMARK  Name = 
REMARK  5 active torsions:
REMARK  status: ('A' for Active; 'I' for Inactive)
REMARK    1  A    between atoms: C_7  and  N_8
REMARK    2  A    between atoms: N_8  and  C_9
REMARK    3  A    between atoms: C_9  and  N_11
REMARK    4  A    between atoms: N_11  and  N_12
REMARK    5  A    between atoms: C_13  and  C_14
REMARK                            x       y       z     vdW  Elec       q    Type
REMARK                         _______ _______ _______ _____ _____    ______ ____
ROOT
ATOM      1  C   UNL     1       7.029   5.521  16.847  0.00  0.00    +0.000 C 
ATOM      2  S   UNL     1       6.419   6.967  17.417  0.00  0.00    +0.000 S 
ENDROOT
BRANCH   1   3
ATOM      3  N   UNL     1       7.587   5.248  15.613  0.00  0.00    +0.000 N 
ATOM      4  H   UNL     1       8.589   5.425  15.592  0.00  0.00    +0.000 HD
BRANCH   3  11
ATOM      5  F   UNL     1       8.785   5.682  13.164  0.00  0.00    +0.000 F 
ATOM      6  C   UNL     1       7.652   4.963  13.210  0.00  0.00    +0.000 A 
ATOM      7  C   UNL     1       7.134   4.453  12.019  0.00  0.00    +0.000 A 
ATOM      8  C   UNL     1       5.971   3.684  12.045  0.00  0.00    +0.000 A 
ATOM      9  C   UNL     1       5.339   3.429  13.259  0.00  0.00    +0.000 A 
ATOM     10  C   UNL     1       5.855   3.955  14.445  0.00  0.00    +0.000 A 
ATOM     11  C   UNL     1       7.005   4.747  14.433  0.00  0.00    +0.000 A 
ENDBRANCH   3  11
ENDBRANCH   1   3
BRANCH   1  12
ATOM     12  N   UNL     1       7.037   4.424  17.692  0.00  0.00    +0.000 N 
ATOM     13  H   UNL     1       7.629   3.633  17.454  0.00  0.00    +0.000 HD
BRANCH  12  14
ATOM     14  N   UNL     1       6.069   4.311  18.631  0.00  0.00    +0.000 NA
ATOM     15  C   UNL     1       4.895   3.923  18.248  0.00  0.00    +0.000 C 
BRANCH  15  16
ATOM     16  C   UNL     1       3.818   3.946  19.248  0.00  0.00    +0.000 A 
ATOM     17  C   UNL     1       3.745   2.835  20.109  0.00  0.00    +0.000 A 
ATOM     18  C   UNL     1       2.739   2.746  21.064  0.00  0.00    +0.000 A 
ATOM     19  C   UNL     1       1.801   3.767  21.167  0.00  0.00    +0.000 A 
ATOM     20  C   UNL     1       1.876   4.880  20.323  0.00  0.00    +0.000 A 
ATOM     21  C   UNL     1       2.887   4.977  19.362  0.00  0.00    +0.000 A 
ATOM     22 BR   UNL     1       2.889   6.498  18.229  0.00  0.00    +0.000 Br
ENDBRANCH  15  16
ENDBRANCH  12  14
ENDBRANCH   1  12
TORSDOF 5
ENDMDL
MODEL 2
REMARK VINA RESULT:      -7.5      1.586      1.888
REMARK  Name = 
REMARK  5 active torsions:
REMARK  status: ('A' for Active; 'I' for Inactive)
REMARK    1  A    between atoms: C_7  and  N_8
REMARK    2  A    between atoms: N_8  and  C_9
REMARK    3  A    between atoms: C_9  and  N_11
REMARK    4  A    between atoms: N_11  and  N_12
REMARK    5  A    between atoms: C_13  and  C_14
REMARK                            x       y       z     vdW  Elec       q    Type
REMARK                         _______ _______ _______ _____ _____    ______ ____
ROOT
ATOM      1  C   UNL     1       6.841   6.312  16.412  0.00  0.00    +0.000 C 
ATOM      2  S   UNL     1       7.523   7.122  17.704  0.00  0.00    +0.000 S 
ENDROOT
BRANCH   1   3
ATOM      3  N   UNL     1       7.434   5.414  15.548  0.00  0.00    +0.000 N 
ATOM      4  H   UNL     1       8.359   5.126  15.862  0.00  0.00    +0.000 HD
BRANCH   3  11
ATOM      5  F   UNL     1       8.782   5.785  13.167  0.00  0.00    +0.000 F 
ATOM      6  C   UNL     1       7.679   5.020  13.172  0.00  0.00    +0.000 A 
ATOM      7  C   UNL     1       7.267   4.431  11.975  0.00  0.00    +0.000 A 
ATOM      8  C   UNL     1       6.137   3.614  11.961  0.00  0.00    +0.000 A 
ATOM      9  C   UNL     1       5.433   3.388  13.141  0.00  0.00    +0.000 A 
ATOM     10  C   UNL     1       5.843   3.992  14.331  0.00  0.00    +0.000 A 
ATOM     11  C   UNL     1       6.957   4.833  14.357  0.00  0.00    +0.000 A 
ENDBRANCH   3  11
ENDBRANCH   1   3
BRANCH   1  12
ATOM     12  N   UNL     1       5.494   6.498  16.148  0.00  0.00    +0.000 N 
ATOM     13  H   UNL     1       5.229   6.954  15.280  0.00  0.00    +0.000 HD
BRANCH  12  14
ATOM     14  N   UNL     1       4.599   6.337  17.151  0.00  0.00    +0.000 NA
ATOM     15  C   UNL     1       4.363   5.133  17.565  0.00  0.00    +0.000 C 
BRANCH  15  16
ATOM     16  C   UNL     1       3.285   4.958  18.549  0.00  0.00    +0.000 A 
ATOM     17  C   UNL     1       2.994   6.072  19.358  0.00  0.00    +0.000 A 
ATOM     18  C   UNL     1       2.017   5.995  20.343  0.00  0.00    +0.000 A 
ATOM     19  C   UNL     1       1.321   4.804  20.525  0.00  0.00    +0.000 A 
ATOM     20  C   UNL     1       1.596   3.697  19.714  0.00  0.00    +0.000 A 
ATOM     21  C   UNL     1       2.577   3.770  18.720  0.00  0.00    +0.000 A 
ATOM     22 BR   UNL     1       2.917   2.210  17.696  0.00  0.00    +0.000 Br
ENDBRANCH  15  16
ENDBRANCH  12  14
ENDBRANCH   1  12
TORSDOF 5
ENDMDL
MODEL 3
REMARK VINA RESULT:      -7.4      1.588      1.698
REMARK  Name = 
REMARK  5 active torsions:
REMARK  status: ('A' for Active; 'I' for Inactive)
REMARK    1  A    between atoms: C_7  and  N_8
REMARK    2  A    between atoms: N_8  and  C_9
REMARK    3  A    between atoms: C_9  and  N_11
REMARK    4  A    between atoms: N_11  and  N_12
REMARK    5  A    between atoms: C_13  and  C_14
REMARK                            x       y       z     vdW  Elec       q    Type
REMARK                         _______ _______ _______ _____ _____    ______ ____
ROOT
ATOM      1  C   UNL     1       6.895   5.819  16.691  0.00  0.00    +0.000 C 
ATOM      2  S   UNL     1       7.565   5.248  18.110  0.00  0.00    +0.000 S 
ENDROOT
BRANCH   1   3
ATOM      3  N   UNL     1       7.408   5.758  15.411  0.00  0.00    +0.000 N 
ATOM      4  H   UNL     1       8.241   6.333  15.298  0.00  0.00    +0.000 HD
BRANCH   3  11
ATOM      5  F   UNL     1       8.804   5.904  13.033  0.00  0.00    +0.000 F 
ATOM      6  C   UNL     1       7.732   5.099  13.104  0.00  0.00    +0.000 A 
ATOM      7  C   UNL     1       7.376   4.356  11.977  0.00  0.00    +0.000 A 
ATOM      8  C   UNL     1       6.280   3.496  12.034  0.00  0.00    +0.000 A 
ATOM      9  C   UNL     1       5.554   3.381  13.217  0.00  0.00    +0.000 A 
ATOM     10  C   UNL     1       5.907   4.137  14.335  0.00  0.00    +0.000 A 
ATOM     11  C   UNL     1       6.986   5.022  14.287  0.00  0.00    +0.000 A 
ENDBRANCH   3  11
ENDBRANCH   1   3
BRANCH   1  12
ATOM     12  N   UNL     1       5.643   6.408  16.738  0.00  0.00    +0.000 N 
ATOM     13  H   UNL     1       5.585   7.420  16.811  0.00  0.00    +0.000 HD
BRANCH  12  14
ATOM     14  N   UNL     1       4.559   5.631  16.972  0.00  0.00    +0.000 NA
ATOM     15  C   UNL     1       4.223   5.414  18.203  0.00  0.00    +0.000 C 
BRANCH  15  16
ATOM     16  C   UNL     1       3.137   4.453  18.446  0.00  0.00    +0.000 A 
ATOM     17  C   UNL     1       3.180   3.263  17.696  0.00  0.00    +0.000 A 
ATOM     18  C   UNL     1       2.180   2.308  17.826  0.00  0.00    +0.000 A 
ATOM     19  C   UNL     1       1.130   2.534  18.710  0.00  0.00    +0.000 A 
ATOM     20  C   UNL     1       1.089   3.708  19.470  0.00  0.00    +0.000 A 
ATOM     21  C   UNL     1       2.094   4.672  19.344  0.00  0.00    +0.000 A 
ATOM     22 BR   UNL     1       1.938   6.255  20.377  0.00  0.00    +0.000 Br
ENDBRANCH  15  16
ENDBRANCH  12  14
ENDBRANCH   1  12
TORSDOF 5
ENDMDL
MODEL 4
REMARK VINA RESULT:      -7.4      1.882      2.409
REMARK  Name = 
REMARK  5 active torsions:
REMARK  status: ('A' for Active; 'I' for Inactive)
REMARK    1  A    between atoms: C_7  and  N_8
REMARK    2  A    between atoms: N_8  and  C_9
REMARK    3  A    between atoms: C_9  and  N_11
REMARK    4  A    between atoms: N_11  and  N_12
REMARK    5  A    between atoms: C_13  and  C_14
REMARK                            x       y       z     vdW  Elec       q    Type
REMARK                         _______ _______ _______ _____ _____    ______ ____
ROOT
ATOM      1  C   UNL     1       6.862   6.414  16.525  0.00  0.00    +0.000 C 
ATOM      2  S   UNL     1       7.563   7.471  17.611  0.00  0.00    +0.000 S 
ENDROOT
BRANCH   1   3
ATOM      3  N   UNL     1       7.446   5.364  15.845  0.00  0.00    +0.000 N 
ATOM      4  H   UNL     1       8.131   4.867  16.412  0.00  0.00    +0.000 HD
BRANCH   3  11
ATOM      5  F   UNL     1       5.621   3.341  15.401  0.00  0.00    +0.000 F 
ATOM      6  C   UNL     1       6.271   3.866  14.350  0.00  0.00    +0.000 A 
ATOM      7  C   UNL     1       5.986   3.378  13.074  0.00  0.00    +0.000 A 
ATOM      8  C   UNL     1       6.631   3.923  11.966  0.00  0.00    +0.000 A 
ATOM      9  C   UNL     1       7.551   4.954  12.141  0.00  0.00    +0.000 A 
ATOM     10  C   UNL     1       7.841   5.428  13.421  0.00  0.00    +0.000 A 
ATOM     11  C   UNL     1       7.222   4.875  14.544  0.00  0.00    +0.000 A 
ENDBRANCH   3  11
ENDBRANCH   1   3
BRANCH   1  12
ATOM     12  N   UNL     1       5.508   6.534  16.261  0.00  0.00    +0.000 N 
ATOM     13  H   UNL     1       5.221   6.958  15.384  0.00  0.00    +0.000 HD
BRANCH  12  14
ATOM     14  N   UNL     1       4.623   6.356  17.270  0.00  0.00    +0.000 NA
ATOM     15  C   UNL     1       4.321   5.142  17.604  0.00  0.00    +0.000 C 
BRANCH  15  16
ATOM     16  C   UNL     1       3.252   4.962  18.597  0.00  0.00    +0.000 A 
ATOM     17  C   UNL     1       2.922   6.093  19.367  0.00  0.00    +0.000 A 
ATOM     18  C   UNL     1       1.950   6.014  20.357  0.00  0.00    +0.000 A 
ATOM     19  C   UNL     1       1.300   4.806  20.584  0.00  0.00    +0.000 A 
ATOM     20  C   UNL     1       1.614   3.682  19.812  0.00  0.00    +0.000 A 
ATOM     21  C   UNL     1       2.589   3.755  18.813  0.00  0.00    +0.000 A 
ATOM     22 BR   UNL     1       2.985   2.173  17.844  0.00  0.00    +0.000 Br
ENDBRANCH  15  16
ENDBRANCH  12  14
ENDBRANCH   1  12
TORSDOF 5
ENDMDL
MODEL 5
REMARK VINA RESULT:      -7.3      1.875      2.296
REMARK  Name = 
REMARK  5 active torsions:
REMARK  status: ('A' for Active; 'I' for Inactive)
REMARK    1  A    between atoms: C_7  and  N_8
REMARK    2  A    between atoms: N_8  and  C_9
REMARK    3  A    between atoms: C_9  and  N_11
REMARK    4  A    between atoms: N_11  and  N_12
REMARK    5  A    between atoms: C_13  and  C_14
REMARK                            x       y       z     vdW  Elec       q    Type
REMARK                         _______ _______ _______ _____ _____    ______ ____
ROOT
ATOM      1  C   UNL     1       6.915   6.292  16.633  0.00  0.00    +0.000 C 
ATOM      2  S   UNL     1       7.647   7.142  17.870  0.00  0.00    +0.000 S 
ENDROOT
BRANCH   1   3
ATOM      3  N   UNL     1       7.386   5.190  15.948  0.00  0.00    +0.000 N 
ATOM      4  H   UNL     1       7.901   4.550  16.549  0.00  0.00    +0.000 HD
BRANCH   3  11
ATOM      5  F   UNL     1       5.648   3.168  15.233  0.00  0.00    +0.000 F 
ATOM      6  C   UNL     1       6.331   3.804  14.268  0.00  0.00    +0.000 A 
ATOM      7  C   UNL     1       6.122   3.427  12.940  0.00  0.00    +0.000 A 
ATOM      8  C   UNL     1       6.802   4.089  11.919  0.00  0.00    +0.000 A 
ATOM      9  C   UNL     1       7.679   5.124  12.232  0.00  0.00    +0.000 A 
ATOM     10  C   UNL     1       7.894   5.486  13.562  0.00  0.00    +0.000 A 
ATOM     11  C   UNL     1       7.240   4.816  14.599  0.00  0.00    +0.000 A 
ENDBRANCH   3  11
ENDBRANCH   1   3
BRANCH   1  12
ATOM     12  N   UNL     1       5.649   6.675  16.223  0.00  0.00    +0.000 N 
ATOM     13  H   UNL     1       5.515   7.621  15.878  0.00  0.00    +0.000 HD
BRANCH  12  14
ATOM     14  N   UNL     1       4.589   5.899  16.552  0.00  0.00    +0.000 NA
ATOM     15  C   UNL     1       4.391   5.641  17.805  0.00  0.00    +0.000 C 
BRANCH  15  16
ATOM     16  C   UNL     1       3.329   4.681  18.137  0.00  0.00    +0.000 A 
ATOM     17  C   UNL     1       3.345   3.466  17.427  0.00  0.00    +0.000 A 
ATOM     18  C   UNL     1       2.361   2.509  17.642  0.00  0.00    +0.000 A 
ATOM     19  C   UNL     1       1.355   2.757  18.570  0.00  0.00    +0.000 A 
ATOM     20  C   UNL     1       1.342   3.958  19.289  0.00  0.00    +0.000 A 
ATOM     21  C   UNL     1       2.330   4.924  19.079  0.00  0.00    +0.000 A 
ATOM     22 BR   UNL     1       2.213   6.541  20.063  0.00  0.00    +0.000 Br
ENDBRANCH  15  16
ENDBRANCH  12  14
ENDBRANCH   1  12
TORSDOF 5
ENDMDL
MODEL 6
REMARK VINA RESULT:      -7.1      4.388      7.366
REMARK  Name = 
REMARK  5 active torsions:
REMARK  status: ('A' for Active; 'I' for Inactive)
REMARK    1  A    between atoms: C_7  and  N_8
REMARK    2  A    between atoms: N_8  and  C_9
REMARK    3  A    between atoms: C_9  and  N_11
REMARK    4  A    between atoms: N_11  and  N_12
REMARK    5  A    between atoms: C_13  and  C_14
REMARK                            x       y       z     vdW  Elec       q    Type
REMARK                         _______ _______ _______ _____ _____    ______ ____
ROOT
ATOM      1  C   UNL     1       2.205   5.396  20.437  0.00  0.00    +0.000 C 
ATOM      2  S   UNL     1       1.059   4.195  20.252  0.00  0.00    +0.000 S 
ENDROOT
BRANCH   1   3
ATOM      3  N   UNL     1       2.018   6.720  20.783  0.00  0.00    +0.000 N 
ATOM      4  H   UNL     1       2.146   6.882  21.779  0.00  0.00    +0.000 HD
BRANCH   3  11
ATOM      5  F   UNL     1       0.562   8.825  21.818  0.00  0.00    +0.000 F 
ATOM      6  C   UNL     1       1.001   8.904  20.552  0.00  0.00    +0.000 A 
ATOM      7  C   UNL     1       0.716  10.055  19.815  0.00  0.00    +0.000 A 
ATOM      8  C   UNL     1       1.181  10.170  18.506  0.00  0.00    +0.000 A 
ATOM      9  C   UNL     1       1.931   9.139  17.947  0.00  0.00    +0.000 A 
ATOM     10  C   UNL     1       2.200   7.985  18.684  0.00  0.00    +0.000 A 
ATOM     11  C   UNL     1       1.719   7.843  19.988  0.00  0.00    +0.000 A 
ENDBRANCH   3  11
ENDBRANCH   1   3
BRANCH   1  12
ATOM     12  N   UNL     1       3.540   5.071  20.270  0.00  0.00    +0.000 N 
ATOM     13  H   UNL     1       4.111   4.924  21.097  0.00  0.00    +0.000 HD
BRANCH  12  14
ATOM     14  N   UNL     1       4.110   5.235  19.052  0.00  0.00    +0.000 NA
ATOM     15  C   UNL     1       4.779   4.242  18.558  0.00  0.00    +0.000 C 
BRANCH  15  16
ATOM     16  C   UNL     1       5.513   4.481  17.307  0.00  0.00    +0.000 A 
ATOM     17  C   UNL     1       4.894   4.032  16.126  0.00  0.00    +0.000 A 
ATOM     18  C   UNL     1       5.525   4.178  14.897  0.00  0.00    +0.000 A 
ATOM     19  C   UNL     1       6.779   4.777  14.839  0.00  0.00    +0.000 A 
ATOM     20  C   UNL     1       7.394   5.238  16.008  0.00  0.00    +0.000 A 
ATOM     21  C   UNL     1       6.763   5.096  17.247  0.00  0.00    +0.000 A 
ATOM     22 BR   UNL     1       7.686   5.707  18.787  0.00  0.00    +0.000 Br
ENDBRANCH  15  16
ENDBRANCH  12  14
ENDBRANCH   1  12
TORSDOF 5
ENDMDL
MODEL 7
REMARK VINA RESULT:      -7.0      3.740      7.126
REMARK  Name = 
REMARK  5 active torsions:
REMARK  status: ('A' for Active; 'I' for Inactive)
REMARK    1  A    between atoms: C_7  and  N_8
REMARK    2  A    between atoms: N_8  and  C_9
REMARK    3  A    between atoms: C_9  and  N_11
REMARK    4  A    between atoms: N_11  and  N_12
REMARK    5  A    between atoms: C_13  and  C_14
REMARK                            x       y       z     vdW  Elec       q    Type
REMARK                         _______ _______ _______ _____ _____    ______ ____
ROOT
ATOM      1  C   UNL     1       2.265   5.113  19.955  0.00  0.00    +0.000 C 
ATOM      2  S   UNL     1       2.077   4.030  21.213  0.00  0.00    +0.000 S 
ENDROOT
BRANCH   1   3
ATOM      3  N   UNL     1       2.716   6.417  20.002  0.00  0.00    +0.000 N 
ATOM      4  H   UNL     1       3.730   6.475  20.081  0.00  0.00    +0.000 HD
BRANCH   3  11
ATOM      5  F   UNL     1       2.679   7.872  17.657  0.00  0.00    +0.000 F 
ATOM      6  C   UNL     1       1.993   8.335  18.714  0.00  0.00    +0.000 A 
ATOM      7  C   UNL     1       1.278   9.526  18.580  0.00  0.00    +0.000 A 
ATOM      8  C   UNL     1       0.540  10.014  19.658  0.00  0.00    +0.000 A 
ATOM      9  C   UNL     1       0.520   9.306  20.857  0.00  0.00    +0.000 A 
ATOM     10  C   UNL     1       1.249   8.123  20.988  0.00  0.00    +0.000 A 
ATOM     11  C   UNL     1       2.014   7.634  19.927  0.00  0.00    +0.000 A 
ENDBRANCH   3  11
ENDBRANCH   1   3
BRANCH   1  12
ATOM     12  N   UNL     1       1.981   4.691  18.668  0.00  0.00    +0.000 N 
ATOM     13  H   UNL     1       1.161   4.110  18.517  0.00  0.00    +0.000 HD
BRANCH  12  14
ATOM     14  N   UNL     1       2.931   4.815  17.711  0.00  0.00    +0.000 NA
ATOM     15  C   UNL     1       4.029   4.145  17.856  0.00  0.00    +0.000 C 
BRANCH  15  16
ATOM     16  C   UNL     1       5.108   4.401  16.891  0.00  0.00    +0.000 A 
ATOM     17  C   UNL     1       4.850   4.031  15.558  0.00  0.00    +0.000 A 
ATOM     18  C   UNL     1       5.820   4.198  14.578  0.00  0.00    +0.000 A 
ATOM     19  C   UNL     1       7.055   4.738  14.922  0.00  0.00    +0.000 A 
ATOM     20  C   UNL     1       7.312   5.121  16.243  0.00  0.00    +0.000 A 
ATOM     21  C   UNL     1       6.339   4.957  17.233  0.00  0.00    +0.000 A 
ATOM     22 BR   UNL     1       6.786   5.460  19.006  0.00  0.00    +0.000 Br
ENDBRANCH  15  16
ENDBRANCH  12  14
ENDBRANCH   1  12
TORSDOF 5
ENDMDL
MODEL 8
REMARK VINA RESULT:      -7.0      4.905      6.921
REMARK  Name = 
REMARK  5 active torsions:
REMARK  status: ('A' for Active; 'I' for Inactive)
REMARK    1  A    between atoms: C_7  and  N_8
REMARK    2  A    between atoms: N_8  and  C_9
REMARK    3  A    between atoms: C_9  and  N_11
REMARK    4  A    between atoms: N_11  and  N_12
REMARK    5  A    between atoms: C_13  and  C_14
REMARK                            x       y       z     vdW  Elec       q    Type
REMARK                         _______ _______ _______ _____ _____    ______ ____
ROOT
ATOM      1  C   UNL     1       3.535   6.833  18.009  0.00  0.00    +0.000 C 
ATOM      2  S   UNL     1       4.769   6.765  16.886  0.00  0.00    +0.000 S 
ENDROOT
BRANCH   1   3
ATOM      3  N   UNL     1       3.246   5.945  19.025  0.00  0.00    +0.000 N 
ATOM      4  H   UNL     1       3.565   6.277  19.934  0.00  0.00    +0.000 HD
BRANCH   3  11
ATOM      5  F   UNL     1       1.263   5.392  20.864  0.00  0.00    +0.000 F 
ATOM      6  C   UNL     1       1.553   4.472  19.931  0.00  0.00    +0.000 A 
ATOM      7  C   UNL     1       0.829   3.278  19.920  0.00  0.00    +0.000 A 
ATOM      8  C   UNL     1       1.096   2.317  18.946  0.00  0.00    +0.000 A 
ATOM      9  C   UNL     1       2.080   2.558  17.990  0.00  0.00    +0.000 A 
ATOM     10  C   UNL     1       2.809   3.748  18.016  0.00  0.00    +0.000 A 
ATOM     11  C   UNL     1       2.571   4.710  19.000  0.00  0.00    +0.000 A 
ENDBRANCH   3  11
ENDBRANCH   1   3
BRANCH   1  12
ATOM     12  N   UNL     1       2.680   7.922  17.990  0.00  0.00    +0.000 N 
ATOM     13  H   UNL     1       2.728   8.564  17.204  0.00  0.00    +0.000 HD
BRANCH  12  14
ATOM     14  N   UNL     1       2.019   8.258  19.123  0.00  0.00    +0.000 NA
ATOM     15  C   UNL     1       1.216   9.273  19.077  0.00  0.00    +0.000 C 
BRANCH  15  16
ATOM     16  C   UNL     1       0.619   9.718  20.345  0.00  0.00    +0.000 A 
ATOM     17  C   UNL     1       0.283   8.706  21.263  0.00  0.00    +0.000 A 
ATOM     18  C   UNL     1      -0.321   9.022  22.474  0.00  0.00    +0.000 A 
ATOM     19  C   UNL     1      -0.590  10.352  22.778  0.00  0.00    +0.000 A 
ATOM     20  C   UNL     1      -0.245  11.364  21.875  0.00  0.00    +0.000 A 
ATOM     21  C   UNL     1       0.364  11.053  20.656  0.00  0.00    +0.000 A 
ATOM     22 BR   UNL     1       0.757  12.480  19.471  0.00  0.00    +0.000 Br
ENDBRANCH  15  16
ENDBRANCH  12  14
ENDBRANCH   1  12
TORSDOF 5
ENDMDL
MODEL 9
REMARK VINA RESULT:      -7.0      1.391      1.743
REMARK  Name = 
REMARK  5 active torsions:
REMARK  status: ('A' for Active; 'I' for Inactive)
REMARK    1  A    between atoms: C_7  and  N_8
REMARK    2  A    between atoms: N_8  and  C_9
REMARK    3  A    between atoms: C_9  and  N_11
REMARK    4  A    between atoms: N_11  and  N_12
REMARK    5  A    between atoms: C_13  and  C_14
REMARK                            x       y       z     vdW  Elec       q    Type
REMARK                         _______ _______ _______ _____ _____    ______ ____
ROOT
ATOM      1  C   UNL     1       7.107   5.530  16.781  0.00  0.00    +0.000 C 
ATOM      2  S   UNL     1       7.355   6.650  17.994  0.00  0.00    +0.000 S 
ENDROOT
BRANCH   1   3
ATOM      3  N   UNL     1       7.445   5.617  15.445  0.00  0.00    +0.000 N 
ATOM      4  H   UNL     1       8.210   6.268  15.280  0.00  0.00    +0.000 HD
BRANCH   3  11
ATOM      5  F   UNL     1       8.795   5.668  13.037  0.00  0.00    +0.000 F 
ATOM      6  C   UNL     1       7.655   4.966  13.123  0.00  0.00    +0.000 A 
ATOM      7  C   UNL     1       7.206   4.277  11.995  0.00  0.00    +0.000 A 
ATOM      8  C   UNL     1       6.036   3.523  12.066  0.00  0.00    +0.000 A 
ATOM      9  C   UNL     1       5.328   3.458  13.264  0.00  0.00    +0.000 A 
ATOM     10  C   UNL     1       5.776   4.160  14.384  0.00  0.00    +0.000 A 
ATOM     11  C   UNL     1       6.932   4.941  14.322  0.00  0.00    +0.000 A 
ENDBRANCH   3  11
ENDBRANCH   1   3
BRANCH   1  12
ATOM     12  N   UNL     1       6.522   4.318  17.106  0.00  0.00    +0.000 N 
ATOM     13  H   UNL     1       6.642   3.535  16.469  0.00  0.00    +0.000 HD
BRANCH  12  14
ATOM     14  N   UNL     1       5.591   4.279  18.088  0.00  0.00    +0.000 NA
ATOM     15  C   UNL     1       4.539   3.548  17.897  0.00  0.00    +0.000 C 
BRANCH  15  16
ATOM     16  C   UNL     1       3.470   3.630  18.903  0.00  0.00    +0.000 A 
ATOM     17  C   UNL     1       2.439   4.551  18.641  0.00  0.00    +0.000 A 
ATOM     18  C   UNL     1       1.402   4.729  19.549  0.00  0.00    +0.000 A 
ATOM     19  C   UNL     1       1.388   3.986  20.725  0.00  0.00    +0.000 A 
ATOM     20  C   UNL     1       2.403   3.059  20.985  0.00  0.00    +0.000 A 
ATOM     21  C   UNL     1       3.448   2.874  20.074  0.00  0.00    +0.000 A 
ATOM     22 BR   UNL     1       4.807   1.630  20.525  0.00  0.00    +0.000 Br
ENDBRANCH  15  16
ENDBRANCH  12  14
ENDBRANCH   1  12
TORSDOF 5
ENDMDL
