MODEL 1
REMARK VINA RESULT:      -8.7      0.000      0.000
REMARK  Name = 
REMARK  5 active torsions:
REMARK  status: ('A' for Active; 'I' for Inactive)
REMARK    1  A    between atoms: N_1  and  C_2
REMARK    2  A    between atoms: C_2  and  C_3
REMARK    3  A    between atoms: C_9  and  S_10
REMARK    4  A    between atoms: S_10  and  C_13
REMARK    5  A    between atoms: C_17  and  O_18
REMARK                            x       y       z     vdW  Elec       q    Type
REMARK                         _______ _______ _______ _____ _____    ______ ____
ROOT
ATOM      1  C   UNL     1       1.475   4.268  18.782  0.00  0.00    +0.000 C 
ATOM      2  C   UNL     1       0.990   2.810  18.689  0.00  0.00    +0.000 C 
ATOM      3  C   UNL     1       2.088   1.808  19.025  0.00  0.00    +0.000 C 
ATOM      4  C   UNL     1       3.284   1.958  18.090  0.00  0.00    +0.000 C 
ATOM      5  C   UNL     1       3.691   3.388  17.830  0.00  0.00    +0.000 A 
ATOM      6  C   UNL     1       4.945   3.642  17.249  0.00  0.00    +0.000 A 
ATOM      7  C   UNL     1       5.330   4.948  16.928  0.00  0.00    +0.000 A 
ATOM      8  C   UNL     1       4.474   6.019  17.188  0.00  0.00    +0.000 A 
ATOM      9  C   UNL     1       3.227   5.771  17.761  0.00  0.00    +0.000 A 
ATOM     10  C   UNL     1       2.823   4.465  18.096  0.00  0.00    +0.000 A 
ENDROOT
BRANCH   7  11
ATOM     11  S   UNL     1       6.959   5.266  16.277  0.00  0.00    +0.000 S 
ATOM     12  O   UNL     1       7.157   6.704  16.359  0.00  0.00    +0.000 OA
ATOM     13  O   UNL     1       7.877   4.363  16.947  0.00  0.00    +0.000 OA
BRANCH  11  14
ATOM     14  C   UNL     1       7.014   4.840  14.555  0.00  0.00    +0.000 A 
ATOM     15  C   UNL     1       7.822   5.601  13.698  0.00  0.00    +0.000 A 
ATOM     16  C   UNL     1       7.854   5.306  12.333  0.00  0.00    +0.000 A 
ATOM     17  C   UNL     1       7.085   4.258  11.830  0.00  0.00    +0.000 A 
ATOM     18  C   UNL     1       6.295   3.505  12.695  0.00  0.00    +0.000 A 
ATOM     19  C   UNL     1       6.251   3.785  14.058  0.00  0.00    +0.000 A 
BRANCH  18  20
ATOM     20  O   UNL     1       5.535   2.470  12.238  0.00  0.00    +0.000 OA
ATOM     21  H   UNL     1       5.333   1.876  12.980  0.00  0.00    +0.000 HD
ENDBRANCH  18  20
ENDBRANCH  11  14
ENDBRANCH   7  11
BRANCH   1  22
ATOM     22  C   UNL     1       1.544   4.805  20.236  0.00  0.00    +0.000 C 
BRANCH  22  23
ATOM     23  N   UNL     1       2.910   5.034  20.711  0.00  0.00    +0.000 NA
ATOM     24  H   UNL     1       3.346   5.754  20.133  0.00  0.00    +0.000 HD
ATOM     25  H   UNL     1       3.473   4.196  20.576  0.00  0.00    +0.000 HD
ENDBRANCH  22  23
ENDBRANCH   1  22
TORSDOF 5
ENDMDL
MODEL 2
REMARK VINA RESULT:      -8.2      4.274      6.353
REMARK  Name = 
REMARK  5 active torsions:
REMARK  status: ('A' for Active; 'I' for Inactive)
REMARK    1  A    between atoms: N_1  and  C_2
REMARK    2  A    between atoms: C_2  and  C_3
REMARK    3  A    between atoms: C_9  and  S_10
REMARK    4  A    between atoms: S_10  and  C_13
REMARK    5  A    between atoms: C_17  and  O_18
REMARK                            x       y       z     vdW  Elec       q    Type
REMARK                         _______ _______ _______ _____ _____    ______ ____
ROOT
ATOM      1  C   UNL     1       0.308  10.523  19.383  0.00  0.00    +0.000 C 
ATOM      2  C   UNL     1      -0.517  10.377  20.675  0.00  0.00    +0.000 C 
ATOM      3  C   UNL     1       0.311   9.853  21.841  0.00  0.00    +0.000 C 
ATOM      4  C   UNL     1       0.919   8.490  21.524  0.00  0.00    +0.000 C 
ATOM      5  C   UNL     1       1.504   8.381  20.137  0.00  0.00    +0.000 A 
ATOM      6  C   UNL     1       2.354   7.300  19.842  0.00  0.00    +0.000 A 
ATOM      7  C   UNL     1       2.860   7.125  18.551  0.00  0.00    +0.000 A 
ATOM      8  C   UNL     1       2.534   8.027  17.536  0.00  0.00    +0.000 A 
ATOM      9  C   UNL     1       1.689   9.098  17.824  0.00  0.00    +0.000 A 
ATOM     10  C   UNL     1       1.172   9.294  19.118  0.00  0.00    +0.000 A 
ENDROOT
BRANCH   7  11
ATOM     11  S   UNL     1       4.010   5.804  18.212  0.00  0.00    +0.000 S 
ATOM     12  O   UNL     1       4.434   5.976  16.832  0.00  0.00    +0.000 OA
ATOM     13  O   UNL     1       4.990   5.798  19.282  0.00  0.00    +0.000 OA
BRANCH  11  14
ATOM     14  C   UNL     1       3.174   4.240  18.298  0.00  0.00    +0.000 A 
ATOM     15  C   UNL     1       1.776   4.229  18.402  0.00  0.00    +0.000 A 
ATOM     16  C   UNL     1       1.098   3.013  18.506  0.00  0.00    +0.000 A 
ATOM     17  C   UNL     1       1.814   1.816  18.505  0.00  0.00    +0.000 A 
ATOM     18  C   UNL     1       3.201   1.843  18.392  0.00  0.00    +0.000 A 
ATOM     19  C   UNL     1       3.893   3.046  18.287  0.00  0.00    +0.000 A 
BRANCH  18  20
ATOM     20  O   UNL     1       3.932   0.692  18.382  0.00  0.00    +0.000 OA
ATOM     21  H   UNL     1       3.546   0.079  17.735  0.00  0.00    +0.000 HD
ENDBRANCH  18  20
ENDBRANCH  11  14
ENDBRANCH   7  11
BRANCH   1  22
ATOM     22  C   UNL     1       1.189  11.800  19.353  0.00  0.00    +0.000 C 
BRANCH  22  23
ATOM     23  N   UNL     1       0.948  12.651  18.186  0.00  0.00    +0.000 NA
ATOM     24  H   UNL     1       1.502  12.302  17.402  0.00  0.00    +0.000 HD
ATOM     25  H   UNL     1       1.290  13.593  18.365  0.00  0.00    +0.000 HD
ENDBRANCH  22  23
ENDBRANCH   1  22
TORSDOF 5
ENDMDL
MODEL 3
REMARK VINA RESULT:      -8.1      4.379      6.268
REMARK  Name = 
REMARK  5 active torsions:
REMARK  status: ('A' for Active; 'I' for Inactive)
REMARK    1  A    between atoms: N_1  and  C_2
REMARK    2  A    between atoms: C_2  and  C_3
REMARK    3  A    between atoms: C_9  and  S_10
REMARK    4  A    between atoms: S_10  and  C_13
REMARK    5  A    between atoms: C_17  and  O_18
REMARK                            x       y       z     vdW  Elec       q    Type
REMARK                         _______ _______ _______ _____ _____    ______ ____
ROOT
ATOM      1  C   UNL     1       0.431  10.781  19.453  0.00  0.00    +0.000 C 
ATOM      2  C   UNL     1      -0.444  10.845  20.718  0.00  0.00    +0.000 C 
ATOM      3  C   UNL     1       0.263  10.286  21.946  0.00  0.00    +0.000 C 
ATOM      4  C   UNL     1       0.671   8.830  21.740  0.00  0.00    +0.000 C 
ATOM      5  C   UNL     1       1.275   8.543  20.387  0.00  0.00    +0.000 A 
ATOM      6  C   UNL     1       1.963   7.333  20.194  0.00  0.00    +0.000 A 
ATOM      7  C   UNL     1       2.476   6.998  18.937  0.00  0.00    +0.000 A 
ATOM      8  C   UNL     1       2.318   7.867  17.856  0.00  0.00    +0.000 A 
ATOM      9  C   UNL     1       1.632   9.067  18.042  0.00  0.00    +0.000 A 
ATOM     10  C   UNL     1       1.112   9.423  19.300  0.00  0.00    +0.000 A 
ENDROOT
BRANCH   7  11
ATOM     11  S   UNL     1       3.428   5.504  18.727  0.00  0.00    +0.000 S 
ATOM     12  O   UNL     1       3.327   4.777  19.982  0.00  0.00    +0.000 OA
ATOM     13  O   UNL     1       2.995   4.886  17.488  0.00  0.00    +0.000 OA
BRANCH  11  14
ATOM     14  C   UNL     1       5.142   5.908  18.508  0.00  0.00    +0.000 A 
ATOM     15  C   UNL     1       5.512   6.706  17.416  0.00  0.00    +0.000 A 
ATOM     16  C   UNL     1       6.858   7.008  17.202  0.00  0.00    +0.000 A 
ATOM     17  C   UNL     1       7.828   6.517  18.075  0.00  0.00    +0.000 A 
ATOM     18  C   UNL     1       7.445   5.734  19.161  0.00  0.00    +0.000 A 
ATOM     19  C   UNL     1       6.108   5.423  19.389  0.00  0.00    +0.000 A 
BRANCH  18  20
ATOM     20  O   UNL     1       8.366   5.242  20.037  0.00  0.00    +0.000 OA
ATOM     21  H   UNL     1       8.890   4.556  19.592  0.00  0.00    +0.000 HD
ENDBRANCH  18  20
ENDBRANCH  11  14
ENDBRANCH   7  11
BRANCH   1  22
ATOM     22  C   UNL     1       1.492  11.910  19.378  0.00  0.00    +0.000 C 
BRANCH  22  23
ATOM     23  N   UNL     1       1.477  12.645  18.111  0.00  0.00    +0.000 NA
ATOM     24  H   UNL     1       1.927  13.551  18.249  0.00  0.00    +0.000 HD
ATOM     25  H   UNL     1       0.519  12.853  17.839  0.00  0.00    +0.000 HD
ENDBRANCH  22  23
ENDBRANCH   1  22
TORSDOF 5
ENDMDL
MODEL 4
REMARK VINA RESULT:      -8.0      4.894      7.271
REMARK  Name = 
REMARK  5 active torsions:
REMARK  status: ('A' for Active; 'I' for Inactive)
REMARK    1  A    between atoms: N_1  and  C_2
REMARK    2  A    between atoms: C_2  and  C_3
REMARK    3  A    between atoms: C_9  and  S_10
REMARK    4  A    between atoms: S_10  and  C_13
REMARK    5  A    between atoms: C_17  and  O_18
REMARK                            x       y       z     vdW  Elec       q    Type
REMARK                         _______ _______ _______ _____ _____    ______ ____
ROOT
ATOM      1  C   UNL     1       0.420  10.972  19.123  0.00  0.00    +0.000 C 
ATOM      2  C   UNL     1      -0.521  11.053  20.339  0.00  0.00    +0.000 C 
ATOM      3  C   UNL     1       0.127  10.529  21.614  0.00  0.00    +0.000 C 
ATOM      4  C   UNL     1       0.560   9.073  21.461  0.00  0.00    +0.000 C 
ATOM      5  C   UNL     1       1.237   8.765  20.147  0.00  0.00    +0.000 A 
ATOM      6  C   UNL     1       1.946   7.558  20.017  0.00  0.00    +0.000 A 
ATOM      7  C   UNL     1       2.527   7.203  18.796  0.00  0.00    +0.000 A 
ATOM      8  C   UNL     1       2.416   8.047  17.690  0.00  0.00    +0.000 A 
ATOM      9  C   UNL     1       1.710   9.242  17.813  0.00  0.00    +0.000 A 
ATOM     10  C   UNL     1       1.121   9.620  19.035  0.00  0.00    +0.000 A 
ENDROOT
BRANCH   7  11
ATOM     11  S   UNL     1       3.503   5.715  18.668  0.00  0.00    +0.000 S 
ATOM     12  O   UNL     1       3.784   5.532  17.254  0.00  0.00    +0.000 OA
ATOM     13  O   UNL     1       4.592   5.829  19.622  0.00  0.00    +0.000 OA
BRANCH  11  14
ATOM     14  C   UNL     1       2.539   4.316  19.183  0.00  0.00    +0.000 A 
ATOM     15  C   UNL     1       1.819   3.602  18.215  0.00  0.00    +0.000 A 
ATOM     16  C   UNL     1       1.026   2.519  18.601  0.00  0.00    +0.000 A 
ATOM     17  C   UNL     1       0.954   2.153  19.945  0.00  0.00    +0.000 A 
ATOM     18  C   UNL     1       1.683   2.866  20.893  0.00  0.00    +0.000 A 
ATOM     19  C   UNL     1       2.478   3.948  20.526  0.00  0.00    +0.000 A 
BRANCH  18  20
ATOM     20  O   UNL     1       1.641   2.533  22.214  0.00  0.00    +0.000 OA
ATOM     21  H   UNL     1       2.187   3.161  22.715  0.00  0.00    +0.000 HD
ENDBRANCH  18  20
ENDBRANCH  11  14
ENDBRANCH   7  11
BRANCH   1  22
ATOM     22  C   UNL     1       1.473  12.112  19.078  0.00  0.00    +0.000 C 
BRANCH  22  23
ATOM     23  N   UNL     1       1.131  13.188  18.146  0.00  0.00    +0.000 NA
ATOM     24  H   UNL     1       1.763  13.975  18.303  0.00  0.00    +0.000 HD
ATOM     25  H   UNL     1       0.198  13.542  18.348  0.00  0.00    +0.000 HD
ENDBRANCH  22  23
ENDBRANCH   1  22
TORSDOF 5
ENDMDL
MODEL 5
REMARK VINA RESULT:      -8.0      1.104      1.510
REMARK  Name = 
REMARK  5 active torsions:
REMARK  status: ('A' for Active; 'I' for Inactive)
REMARK    1  A    between atoms: N_1  and  C_2
REMARK    2  A    between atoms: C_2  and  C_3
REMARK    3  A    between atoms: C_9  and  S_10
REMARK    4  A    between atoms: S_10  and  C_13
REMARK    5  A    between atoms: C_17  and  O_18
REMARK                            x       y       z     vdW  Elec       q    Type
REMARK                         _______ _______ _______ _____ _____    ______ ____
ROOT
ATOM      1  C   UNL     1       1.619   4.414  19.115  0.00  0.00    +0.000 C 
ATOM      2  C   UNL     1       0.979   3.033  18.884  0.00  0.00    +0.000 C 
ATOM      3  C   UNL     1       1.977   1.893  19.042  0.00  0.00    +0.000 C 
ATOM      4  C   UNL     1       3.141   2.032  18.065  0.00  0.00    +0.000 C 
ATOM      5  C   UNL     1       3.686   3.435  17.948  0.00  0.00    +0.000 A 
ATOM      6  C   UNL     1       4.933   3.629  17.330  0.00  0.00    +0.000 A 
ATOM      7  C   UNL     1       5.440   4.918  17.139  0.00  0.00    +0.000 A 
ATOM      8  C   UNL     1       4.715   6.032  17.566  0.00  0.00    +0.000 A 
ATOM      9  C   UNL     1       3.475   5.844  18.176  0.00  0.00    +0.000 A 
ATOM     10  C   UNL     1       2.950   4.554  18.381  0.00  0.00    +0.000 A 
ENDROOT
BRANCH   7  11
ATOM     11  S   UNL     1       7.065   5.147  16.439  0.00  0.00    +0.000 S 
ATOM     12  O   UNL     1       7.395   6.550  16.625  0.00  0.00    +0.000 OA
ATOM     13  O   UNL     1       7.923   4.115  16.991  0.00  0.00    +0.000 OA
BRANCH  11  14
ATOM     14  C   UNL     1       7.011   4.862  14.688  0.00  0.00    +0.000 A 
ATOM     15  C   UNL     1       6.284   3.765  14.206  0.00  0.00    +0.000 A 
ATOM     16  C   UNL     1       6.256   3.500  12.835  0.00  0.00    +0.000 A 
ATOM     17  C   UNL     1       6.949   4.328  11.953  0.00  0.00    +0.000 A 
ATOM     18  C   UNL     1       7.659   5.419  12.446  0.00  0.00    +0.000 A 
ATOM     19  C   UNL     1       7.699   5.697  13.809  0.00  0.00    +0.000 A 
BRANCH  18  20
ATOM     20  O   UNL     1       8.345   6.252  11.611  0.00  0.00    +0.000 OA
ATOM     21  H   UNL     1       8.777   6.941  12.141  0.00  0.00    +0.000 HD
ENDBRANCH  18  20
ENDBRANCH  11  14
ENDBRANCH   7  11
BRANCH   1  22
ATOM     22  C   UNL     1       1.809   4.765  20.614  0.00  0.00    +0.000 C 
BRANCH  22  23
ATOM     23  N   UNL     1       1.802   6.204  20.885  0.00  0.00    +0.000 NA
ATOM     24  H   UNL     1       0.856   6.489  21.141  0.00  0.00    +0.000 HD
ATOM     25  H   UNL     1       2.023   6.720  20.035  0.00  0.00    +0.000 HD
ENDBRANCH  22  23
ENDBRANCH   1  22
TORSDOF 5
ENDMDL
MODEL 6
REMARK VINA RESULT:      -7.9      2.826      3.921
REMARK  Name = 
REMARK  5 active torsions:
REMARK  status: ('A' for Active; 'I' for Inactive)
REMARK    1  A    between atoms: N_1  and  C_2
REMARK    2  A    between atoms: C_2  and  C_3
REMARK    3  A    between atoms: C_9  and  S_10
REMARK    4  A    between atoms: S_10  and  C_13
REMARK    5  A    between atoms: C_17  and  O_18
REMARK                            x       y       z     vdW  Elec       q    Type
REMARK                         _______ _______ _______ _____ _____    ______ ____
ROOT
ATOM      1  C   UNL     1       0.899   3.703  19.450  0.00  0.00    +0.000 C 
ATOM      2  C   UNL     1       0.524   2.251  19.101  0.00  0.00    +0.000 C 
ATOM      3  C   UNL     1       1.747   1.361  18.917  0.00  0.00    +0.000 C 
ATOM      4  C   UNL     1       2.654   1.884  17.807  0.00  0.00    +0.000 C 
ATOM      5  C   UNL     1       2.867   3.379  17.835  0.00  0.00    +0.000 A 
ATOM      6  C   UNL     1       3.911   3.929  17.072  0.00  0.00    +0.000 A 
ATOM      7  C   UNL     1       4.097   5.314  17.015  0.00  0.00    +0.000 A 
ATOM      8  C   UNL     1       3.252   6.169  17.724  0.00  0.00    +0.000 A 
ATOM      9  C   UNL     1       2.213   5.627  18.479  0.00  0.00    +0.000 A 
ATOM     10  C   UNL     1       2.011   4.236  18.552  0.00  0.00    +0.000 A 
ENDROOT
BRANCH   7  11
ATOM     11  S   UNL     1       5.481   5.995  16.119  0.00  0.00    +0.000 S 
ATOM     12  O   UNL     1       6.093   4.885  15.408  0.00  0.00    +0.000 OA
ATOM     13  O   UNL     1       4.996   7.152  15.389  0.00  0.00    +0.000 OA
BRANCH  11  14
ATOM     14  C   UNL     1       6.697   6.604  17.260  0.00  0.00    +0.000 A 
ATOM     15  C   UNL     1       7.182   7.909  17.095  0.00  0.00    +0.000 A 
ATOM     16  C   UNL     1       8.165   8.397  17.959  0.00  0.00    +0.000 A 
ATOM     17  C   UNL     1       8.657   7.587  18.981  0.00  0.00    +0.000 A 
ATOM     18  C   UNL     1       8.157   6.297  19.139  0.00  0.00    +0.000 A 
ATOM     19  C   UNL     1       7.179   5.794  18.287  0.00  0.00    +0.000 A 
BRANCH  18  20
ATOM     20  O   UNL     1       8.612   5.480  20.131  0.00  0.00    +0.000 OA
ATOM     21  H   UNL     1       9.515   5.746  20.370  0.00  0.00    +0.000 HD
ENDBRANCH  18  20
ENDBRANCH  11  14
ENDBRANCH   7  11
BRANCH   1  22
ATOM     22  C   UNL     1       1.288   3.900  20.939  0.00  0.00    +0.000 C 
BRANCH  22  23
ATOM     23  N   UNL     1       1.185   2.678  21.739  0.00  0.00    +0.000 NA
ATOM     24  H   UNL     1       2.081   2.188  21.711  0.00  0.00    +0.000 HD
ATOM     25  H   UNL     1       0.512   2.041  21.317  0.00  0.00    +0.000 HD
ENDBRANCH  22  23
ENDBRANCH   1  22
TORSDOF 5
ENDMDL
MODEL 7
REMARK VINA RESULT:      -7.8      1.515      1.857
REMARK  Name = 
REMARK  5 active torsions:
REMARK  status: ('A' for Active; 'I' for Inactive)
REMARK    1  A    between atoms: N_1  and  C_2
REMARK    2  A    between atoms: C_2  and  C_3
REMARK    3  A    between atoms: C_9  and  S_10
REMARK    4  A    between atoms: S_10  and  C_13
REMARK    5  A    between atoms: C_17  and  O_18
REMARK                            x       y       z     vdW  Elec       q    Type
REMARK                         _______ _______ _______ _____ _____    ______ ____
ROOT
ATOM      1  C   UNL     1       2.189   4.105  20.097  0.00  0.00    +0.000 C 
ATOM      2  C   UNL     1       1.018   3.472  19.322  0.00  0.00    +0.000 C 
ATOM      3  C   UNL     1       1.466   2.336  18.412  0.00  0.00    +0.000 C 
ATOM      4  C   UNL     1       2.492   2.814  17.388  0.00  0.00    +0.000 C 
ATOM      5  C   UNL     1       3.554   3.724  17.956  0.00  0.00    +0.000 A 
ATOM      6  C   UNL     1       4.710   3.974  17.196  0.00  0.00    +0.000 A 
ATOM      7  C   UNL     1       5.685   4.865  17.656  0.00  0.00    +0.000 A 
ATOM      8  C   UNL     1       5.525   5.515  18.881  0.00  0.00    +0.000 A 
ATOM      9  C   UNL     1       4.378   5.273  19.635  0.00  0.00    +0.000 A 
ATOM     10  C   UNL     1       3.388   4.376  19.192  0.00  0.00    +0.000 A 
ENDROOT
BRANCH   7  11
ATOM     11  S   UNL     1       7.190   5.102  16.728  0.00  0.00    +0.000 S 
ATOM     12  O   UNL     1       7.481   6.525  16.781  0.00  0.00    +0.000 OA
ATOM     13  O   UNL     1       8.157   4.139  17.219  0.00  0.00    +0.000 OA
BRANCH  11  14
ATOM     14  C   UNL     1       6.914   4.701  15.021  0.00  0.00    +0.000 A 
ATOM     15  C   UNL     1       6.049   3.643  14.709  0.00  0.00    +0.000 A 
ATOM     16  C   UNL     1       5.843   3.286  13.375  0.00  0.00    +0.000 A 
ATOM     17  C   UNL     1       6.497   3.983  12.360  0.00  0.00    +0.000 A 
ATOM     18  C   UNL     1       7.346   5.038  12.685  0.00  0.00    +0.000 A 
ATOM     19  C   UNL     1       7.563   5.407  14.009  0.00  0.00    +0.000 A 
BRANCH  18  20
ATOM     20  O   UNL     1       7.997   5.745  11.718  0.00  0.00    +0.000 OA
ATOM     21  H   UNL     1       8.401   5.122  11.091  0.00  0.00    +0.000 HD
ENDBRANCH  18  20
ENDBRANCH  11  14
ENDBRANCH   7  11
BRANCH   1  22
ATOM     22  C   UNL     1       2.638   3.273  21.327  0.00  0.00    +0.000 C 
BRANCH  22  23
ATOM     23  N   UNL     1       1.534   2.604  22.017  0.00  0.00    +0.000 NA
ATOM     24  H   UNL     1       0.738   3.242  22.064  0.00  0.00    +0.000 HD
ATOM     25  H   UNL     1       1.790   2.414  22.984  0.00  0.00    +0.000 HD
ENDBRANCH  22  23
ENDBRANCH   1  22
TORSDOF 5
ENDMDL
MODEL 8
REMARK VINA RESULT:      -7.8      3.420      5.179
REMARK  Name = 
REMARK  5 active torsions:
REMARK  status: ('A' for Active; 'I' for Inactive)
REMARK    1  A    between atoms: N_1  and  C_2
REMARK    2  A    between atoms: C_2  and  C_3
REMARK    3  A    between atoms: C_9  and  S_10
REMARK    4  A    between atoms: S_10  and  C_13
REMARK    5  A    between atoms: C_17  and  O_18
REMARK                            x       y       z     vdW  Elec       q    Type
REMARK                         _______ _______ _______ _____ _____    ______ ____
ROOT
ATOM      1  C   UNL     1       1.088   9.034  20.915  0.00  0.00    +0.000 C 
ATOM      2  C   UNL     1       1.281  10.333  20.111  0.00  0.00    +0.000 C 
ATOM      3  C   UNL     1       0.902  10.174  18.644  0.00  0.00    +0.000 C 
ATOM      4  C   UNL     1       1.733   9.086  17.970  0.00  0.00    +0.000 C 
ATOM      5  C   UNL     1       1.898   7.833  18.796  0.00  0.00    +0.000 A 
ATOM      6  C   UNL     1       2.368   6.666  18.169  0.00  0.00    +0.000 A 
ATOM      7  C   UNL     1       2.601   5.504  18.913  0.00  0.00    +0.000 A 
ATOM      8  C   UNL     1       2.364   5.488  20.288  0.00  0.00    +0.000 A 
ATOM      9  C   UNL     1       1.902   6.645  20.914  0.00  0.00    +0.000 A 
ATOM     10  C   UNL     1       1.657   7.822  20.182  0.00  0.00    +0.000 A 
ENDROOT
BRANCH   7  11
ATOM     11  S   UNL     1       3.108   4.003  18.093  0.00  0.00    +0.000 S 
ATOM     12  O   UNL     1       3.352   3.028  19.142  0.00  0.00    +0.000 OA
ATOM     13  O   UNL     1       2.133   3.729  17.053  0.00  0.00    +0.000 OA
BRANCH  11  14
ATOM     14  C   UNL     1       4.656   4.262  17.265  0.00  0.00    +0.000 A 
ATOM     15  C   UNL     1       4.658   4.412  15.871  0.00  0.00    +0.000 A 
ATOM     16  C   UNL     1       5.868   4.582  15.194  0.00  0.00    +0.000 A 
ATOM     17  C   UNL     1       7.066   4.604  15.906  0.00  0.00    +0.000 A 
ATOM     18  C   UNL     1       7.047   4.464  17.291  0.00  0.00    +0.000 A 
ATOM     19  C   UNL     1       5.851   4.293  17.982  0.00  0.00    +0.000 A 
BRANCH  18  20
ATOM     20  O   UNL     1       8.199   4.485  18.020  0.00  0.00    +0.000 OA
ATOM     21  H   UNL     1       8.035   4.954  18.855  0.00  0.00    +0.000 HD
ENDBRANCH  18  20
ENDBRANCH  11  14
ENDBRANCH   7  11
BRANCH   1  22
ATOM     22  C   UNL     1      -0.389   8.763  21.307  0.00  0.00    +0.000 C 
BRANCH  22  23
ATOM     23  N   UNL     1      -0.654   8.922  22.738  0.00  0.00    +0.000 NA
ATOM     24  H   UNL     1      -0.089   9.694  23.095  0.00  0.00    +0.000 HD
ATOM     25  H   UNL     1      -0.341   8.097  23.245  0.00  0.00    +0.000 HD
ENDBRANCH  22  23
ENDBRANCH   1  22
TORSDOF 5
ENDMDL
MODEL 9
REMARK VINA RESULT:      -7.7      1.453      1.790
REMARK  Name = 
REMARK  5 active torsions:
REMARK  status: ('A' for Active; 'I' for Inactive)
REMARK    1  A    between atoms: N_1  and  C_2
REMARK    2  A    between atoms: C_2  and  C_3
REMARK    3  A    between atoms: C_9  and  S_10
REMARK    4  A    between atoms: S_10  and  C_13
REMARK    5  A    between atoms: C_17  and  O_18
REMARK                            x       y       z     vdW  Elec       q    Type
REMARK                         _______ _______ _______ _____ _____    ______ ____
ROOT
ATOM      1  C   UNL     1       1.553   3.891  19.543  0.00  0.00    +0.000 C 
ATOM      2  C   UNL     1       1.576   2.582  20.355  0.00  0.00    +0.000 C 
ATOM      3  C   UNL     1       2.833   2.444  21.204  0.00  0.00    +0.000 C 
ATOM      4  C   UNL     1       4.093   2.476  20.343  0.00  0.00    +0.000 C 
ATOM      5  C   UNL     1       4.080   3.536  19.268  0.00  0.00    +0.000 A 
ATOM      6  C   UNL     1       5.287   3.865  18.626  0.00  0.00    +0.000 A 
ATOM      7  C   UNL     1       5.306   4.790  17.577  0.00  0.00    +0.000 A 
ATOM      8  C   UNL     1       4.125   5.405  17.158  0.00  0.00    +0.000 A 
ATOM      9  C   UNL     1       2.926   5.079  17.790  0.00  0.00    +0.000 A 
ATOM     10  C   UNL     1       2.887   4.153  18.850  0.00  0.00    +0.000 A 
ENDROOT
BRANCH   7  11
ATOM     11  S   UNL     1       6.855   5.268  16.833  0.00  0.00    +0.000 S 
ATOM     12  O   UNL     1       6.929   6.716  16.942  0.00  0.00    +0.000 OA
ATOM     13  O   UNL     1       7.891   4.437  17.418  0.00  0.00    +0.000 OA
BRANCH  11  14
ATOM     14  C   UNL     1       6.833   4.886  15.100  0.00  0.00    +0.000 A 
ATOM     15  C   UNL     1       6.062   3.802  14.658  0.00  0.00    +0.000 A 
ATOM     16  C   UNL     1       6.057   3.461  13.304  0.00  0.00    +0.000 A 
ATOM     17  C   UNL     1       6.817   4.200  12.398  0.00  0.00    +0.000 A 
ATOM     18  C   UNL     1       7.570   5.280  12.850  0.00  0.00    +0.000 A 
ATOM     19  C   UNL     1       7.587   5.634  14.196  0.00  0.00    +0.000 A 
BRANCH  18  20
ATOM     20  O   UNL     1       8.320   6.028  11.992  0.00  0.00    +0.000 OA
ATOM     21  H   UNL     1       8.626   6.825  12.454  0.00  0.00    +0.000 HD
ENDBRANCH  18  20
ENDBRANCH  11  14
ENDBRANCH   7  11
BRANCH   1  22
ATOM     22  C   UNL     1       1.145   5.131  20.381  0.00  0.00    +0.000 C 
BRANCH  22  23
ATOM     23  N   UNL     1       2.268   5.763  21.077  0.00  0.00    +0.000 NA
ATOM     24  H   UNL     1       2.840   6.263  20.395  0.00  0.00    +0.000 HD
ATOM     25  H   UNL     1       2.876   5.052  21.476  0.00  0.00    +0.000 HD
ENDBRANCH  22  23
ENDBRANCH   1  22
TORSDOF 5
ENDMDL
