MODEL 1
REMARK VINA RESULT:      -6.9      0.000      0.000
REMARK  Name = 
REMARK  3 active torsions:
REMARK  status: ('A' for Active; 'I' for Inactive)
REMARK    1  A    between atoms: C_1  and  C_2
REMARK    2  A    between atoms: C_5  and  C_6
REMARK    3  A    between atoms: C_11  and  C_13
REMARK                            x       y       z     vdW  Elec       q    Type
REMARK                         _______ _______ _______ _____ _____    ______ ____
ROOT
ATOM      1  C   UNL     1       4.027   2.923  18.041  0.00  0.00    +0.000 C 
ATOM      2  C   UNL     1       2.697   2.574  17.336  0.00  0.00    +0.000 C 
ATOM      3  C   UNL     1       1.625   3.666  17.466  0.00  0.00    +0.000 C 
ATOM      4  C   UNL     1       1.494   4.181  18.906  0.00  0.00    +0.000 C 
ATOM      5  N   UNL     1       2.803   4.563  19.431  0.00  0.00    +0.000 N 
ATOM      6  C   UNL     1       3.359   5.843  19.556  0.00  0.00    +0.000 C 
ATOM      7  O   UNL     1       4.510   5.976  19.984  0.00  0.00    +0.000 OA
ATOM      8  C   UNL     1       3.734   3.426  19.473  0.00  0.00    +0.000 C 
ENDROOT
BRANCH   6   9
ATOM      9  C   UNL     1       2.597   7.086  19.189  0.00  0.00    +0.000 A 
ATOM     10  C   UNL     1       2.766   7.742  18.030  0.00  0.00    +0.000 A 
ATOM     11  N   UNL     1       2.070   8.868  17.696  0.00  0.00    +0.000 N 
ATOM     12  C   UNL     1       1.220   9.502  18.550  0.00  0.00    +0.000 A 
ATOM     13  O   UNL     1       0.594  10.505  18.219  0.00  0.00    +0.000 OA
ATOM     14  N   UNL     1       1.126   8.952  19.790  0.00  0.00    +0.000 N 
ATOM     15  C   UNL     1       1.730   7.786  20.195  0.00  0.00    +0.000 A 
ATOM     16  O   UNL     1       1.526   7.373  21.333  0.00  0.00    +0.000 OA
ATOM     17  H   UNL     1       2.170   9.283  16.775  0.00  0.00    +0.000 HD
ATOM     18  H   UNL     1       0.538   9.423  20.459  0.00  0.00    +0.000 HD
ENDBRANCH   6   9
BRANCH   1  23
ATOM     19  C   UNL     1       7.364   6.897  17.058  0.00  0.00    +0.000 C 
ATOM     20  C   UNL     1       6.333   5.837  16.933  0.00  0.00    +0.000 A 
ATOM     21  C   UNL     1       5.222   5.788  16.119  0.00  0.00    +0.000 A 
ATOM     22  N   UNL     1       4.388   4.704  16.307  0.00  0.00    +0.000 NA
ATOM     23  C   UNL     1       4.835   3.973  17.306  0.00  0.00    +0.000 A 
ATOM     24  S   UNL     1       6.391   4.425  17.901  0.00  0.00    +0.000 S 
ENDBRANCH   1  23
TORSDOF 2
ENDMDL
MODEL 2
REMARK VINA RESULT:      -6.6      3.116      5.786
REMARK  Name = 
REMARK  3 active torsions:
REMARK  status: ('A' for Active; 'I' for Inactive)
REMARK    1  A    between atoms: C_1  and  C_2
REMARK    2  A    between atoms: C_5  and  C_6
REMARK    3  A    between atoms: C_11  and  C_13
REMARK                            x       y       z     vdW  Elec       q    Type
REMARK                         _______ _______ _______ _____ _____    ______ ____
ROOT
ATOM      1  C   UNL     1       2.947   5.756  19.530  0.00  0.00    +0.000 C 
ATOM      2  C   UNL     1       2.254   6.801  18.626  0.00  0.00    +0.000 C 
ATOM      3  C   UNL     1       2.975   7.039  17.293  0.00  0.00    +0.000 C 
ATOM      4  C   UNL     1       4.488   7.225  17.476  0.00  0.00    +0.000 C 
ATOM      5  N   UNL     1       5.042   6.130  18.268  0.00  0.00    +0.000 N 
ATOM      6  C   UNL     1       5.741   4.996  17.831  0.00  0.00    +0.000 C 
ATOM      7  O   UNL     1       6.099   4.141  18.647  0.00  0.00    +0.000 OA
ATOM      8  C   UNL     1       4.457   6.072  19.616  0.00  0.00    +0.000 C 
ENDROOT
BRANCH   6   9
ATOM      9  C   UNL     1       6.085   4.777  16.385  0.00  0.00    +0.000 A 
ATOM     10  C   UNL     1       5.630   3.739  15.666  0.00  0.00    +0.000 A 
ATOM     11  N   UNL     1       5.938   3.542  14.350  0.00  0.00    +0.000 N 
ATOM     12  C   UNL     1       6.827   4.315  13.669  0.00  0.00    +0.000 A 
ATOM     13  O   UNL     1       7.076   4.127  12.481  0.00  0.00    +0.000 OA
ATOM     14  N   UNL     1       7.423   5.295  14.398  0.00  0.00    +0.000 N 
ATOM     15  C   UNL     1       7.129   5.613  15.702  0.00  0.00    +0.000 A 
ATOM     16  O   UNL     1       7.710   6.554  16.233  0.00  0.00    +0.000 OA
ATOM     17  H   UNL     1       5.505   2.789  13.824  0.00  0.00    +0.000 HD
ATOM     18  H   UNL     1       8.119   5.858  13.934  0.00  0.00    +0.000 HD
ENDBRANCH   6   9
BRANCH   1  23
ATOM     19  C   UNL     1       3.810   0.626  18.618  0.00  0.00    +0.000 C 
ATOM     20  C   UNL     1       3.255   2.001  18.608  0.00  0.00    +0.000 A 
ATOM     21  C   UNL     1       2.608   2.676  17.596  0.00  0.00    +0.000 A 
ATOM     22  N   UNL     1       2.297   3.996  17.859  0.00  0.00    +0.000 NA
ATOM     23  C   UNL     1       2.768   4.333  19.040  0.00  0.00    +0.000 A 
ATOM     24  S   UNL     1       3.392   3.023  19.976  0.00  0.00    +0.000 S 
ENDBRANCH   1  23
TORSDOF 2
ENDMDL
MODEL 3
REMARK VINA RESULT:      -6.6      1.946      3.889
REMARK  Name = 
REMARK  3 active torsions:
REMARK  status: ('A' for Active; 'I' for Inactive)
REMARK    1  A    between atoms: C_1  and  C_2
REMARK    2  A    between atoms: C_5  and  C_6
REMARK    3  A    between atoms: C_11  and  C_13
REMARK                            x       y       z     vdW  Elec       q    Type
REMARK                         _______ _______ _______ _____ _____    ______ ____
ROOT
ATOM      1  C   UNL     1       5.468   3.832  17.261  0.00  0.00    +0.000 C 
ATOM      2  C   UNL     1       6.671   4.645  17.791  0.00  0.00    +0.000 C 
ATOM      3  C   UNL     1       6.279   5.991  18.417  0.00  0.00    +0.000 C 
ATOM      4  C   UNL     1       5.289   6.771  17.543  0.00  0.00    +0.000 C 
ATOM      5  N   UNL     1       4.152   5.926  17.182  0.00  0.00    +0.000 N 
ATOM      6  C   UNL     1       2.866   5.899  17.738  0.00  0.00    +0.000 C 
ATOM      7  O   UNL     1       2.038   5.078  17.334  0.00  0.00    +0.000 OA
ATOM      8  C   UNL     1       4.566   4.748  16.404  0.00  0.00    +0.000 C 
ENDROOT
BRANCH   6   9
ATOM      9  C   UNL     1       2.444   6.851  18.822  0.00  0.00    +0.000 A 
ATOM     10  C   UNL     1       2.213   6.473  20.089  0.00  0.00    +0.000 A 
ATOM     11  N   UNL     1       1.834   7.339  21.075  0.00  0.00    +0.000 N 
ATOM     12  C   UNL     1       1.542   8.648  20.846  0.00  0.00    +0.000 A 
ATOM     13  O   UNL     1       1.217   9.410  21.753  0.00  0.00    +0.000 OA
ATOM     14  N   UNL     1       1.624   9.043  19.548  0.00  0.00    +0.000 N 
ATOM     15  C   UNL     1       2.061   8.267  18.502  0.00  0.00    +0.000 A 
ATOM     16  O   UNL     1       2.131   8.761  17.381  0.00  0.00    +0.000 OA
ATOM     17  H   UNL     1       1.751   7.023  22.036  0.00  0.00    +0.000 HD
ATOM     18  H   UNL     1       1.372   9.997  19.340  0.00  0.00    +0.000 HD
ENDBRANCH   6   9
BRANCH   1  23
ATOM     19  C   UNL     1       1.343   1.947  19.968  0.00  0.00    +0.000 C 
ATOM     20  C   UNL     1       2.693   2.420  19.573  0.00  0.00    +0.000 A 
ATOM     21  C   UNL     1       3.661   3.039  20.334  0.00  0.00    +0.000 A 
ATOM     22  N   UNL     1       4.785   3.456  19.649  0.00  0.00    +0.000 NA
ATOM     23  C   UNL     1       4.635   3.213  18.365  0.00  0.00    +0.000 A 
ATOM     24  S   UNL     1       3.250   2.266  17.961  0.00  0.00    +0.000 S 
ENDBRANCH   1  23
TORSDOF 2
ENDMDL
MODEL 4
REMARK VINA RESULT:      -6.3      1.078      1.211
REMARK  Name = 
REMARK  3 active torsions:
REMARK  status: ('A' for Active; 'I' for Inactive)
REMARK    1  A    between atoms: C_1  and  C_2
REMARK    2  A    between atoms: C_5  and  C_6
REMARK    3  A    between atoms: C_11  and  C_13
REMARK                            x       y       z     vdW  Elec       q    Type
REMARK                         _______ _______ _______ _____ _____    ______ ____
ROOT
ATOM      1  C   UNL     1       3.955   2.629  18.405  0.00  0.00    +0.000 C 
ATOM      2  C   UNL     1       2.706   2.327  17.546  0.00  0.00    +0.000 C 
ATOM      3  C   UNL     1       1.699   3.484  17.494  0.00  0.00    +0.000 C 
ATOM      4  C   UNL     1       1.417   4.072  18.884  0.00  0.00    +0.000 C 
ATOM      5  N   UNL     1       2.670   4.401  19.560  0.00  0.00    +0.000 N 
ATOM      6  C   UNL     1       3.287   5.651  19.707  0.00  0.00    +0.000 C 
ATOM      7  O   UNL     1       4.379   5.735  20.276  0.00  0.00    +0.000 OA
ATOM      8  C   UNL     1       3.514   3.214  19.766  0.00  0.00    +0.000 C 
ENDROOT
BRANCH   6   9
ATOM      9  C   UNL     1       2.659   6.917  19.197  0.00  0.00    +0.000 A 
ATOM     10  C   UNL     1       2.960   7.467  18.010  0.00  0.00    +0.000 A 
ATOM     11  N   UNL     1       2.386   8.615  17.545  0.00  0.00    +0.000 N 
ATOM     12  C   UNL     1       1.536   9.378  18.287  0.00  0.00    +0.000 A 
ATOM     13  O   UNL     1       1.021  10.399  17.840  0.00  0.00    +0.000 OA
ATOM     14  N   UNL     1       1.312   8.934  19.552  0.00  0.00    +0.000 N 
ATOM     15  C   UNL     1       1.787   7.760  20.084  0.00  0.00    +0.000 A 
ATOM     16  O   UNL     1       1.473   7.453  21.230  0.00  0.00    +0.000 OA
ATOM     17  H   UNL     1       2.583   8.949  16.607  0.00  0.00    +0.000 HD
ATOM     18  H   UNL     1       0.722   9.500  20.141  0.00  0.00    +0.000 HD
ENDBRANCH   6   9
BRANCH   1  23
ATOM     19  C   UNL     1       6.980   4.985  14.773  0.00  0.00    +0.000 C 
ATOM     20  C   UNL     1       6.326   4.590  16.045  0.00  0.00    +0.000 A 
ATOM     21  C   UNL     1       6.824   4.617  17.330  0.00  0.00    +0.000 A 
ATOM     22  N   UNL     1       6.001   4.083  18.302  0.00  0.00    +0.000 NA
ATOM     23  C   UNL     1       4.915   3.596  17.741  0.00  0.00    +0.000 A 
ATOM     24  S   UNL     1       4.732   3.966  16.065  0.00  0.00    +0.000 S 
ENDBRANCH   1  23
TORSDOF 2
ENDMDL
MODEL 5
REMARK VINA RESULT:      -6.3      1.342      1.912
REMARK  Name = 
REMARK  3 active torsions:
REMARK  status: ('A' for Active; 'I' for Inactive)
REMARK    1  A    between atoms: C_1  and  C_2
REMARK    2  A    between atoms: C_5  and  C_6
REMARK    3  A    between atoms: C_11  and  C_13
REMARK                            x       y       z     vdW  Elec       q    Type
REMARK                         _______ _______ _______ _____ _____    ______ ____
ROOT
ATOM      1  C   UNL     1       4.055   2.644  18.094  0.00  0.00    +0.000 C 
ATOM      2  C   UNL     1       2.714   2.404  17.364  0.00  0.00    +0.000 C 
ATOM      3  C   UNL     1       1.730   3.576  17.481  0.00  0.00    +0.000 C 
ATOM      4  C   UNL     1       1.613   4.095  18.921  0.00  0.00    +0.000 C 
ATOM      5  N   UNL     1       2.939   4.371  19.470  0.00  0.00    +0.000 N 
ATOM      6  C   UNL     1       3.592   5.603  19.611  0.00  0.00    +0.000 C 
ATOM      7  O   UNL     1       4.742   5.643  20.059  0.00  0.00    +0.000 OA
ATOM      8  C   UNL     1       3.777   3.164  19.523  0.00  0.00    +0.000 C 
ENDROOT
BRANCH   6   9
ATOM      9  C   UNL     1       2.936   6.903  19.237  0.00  0.00    +0.000 A 
ATOM     10  C   UNL     1       1.999   7.501  19.988  0.00  0.00    +0.000 A 
ATOM     11  N   UNL     1       1.407   8.685  19.651  0.00  0.00    +0.000 N 
ATOM     12  C   UNL     1       1.627   9.317  18.465  0.00  0.00    +0.000 A 
ATOM     13  O   UNL     1       1.094  10.389  18.192  0.00  0.00    +0.000 OA
ATOM     14  N   UNL     1       2.463   8.673  17.609  0.00  0.00    +0.000 N 
ATOM     15  C   UNL     1       3.156   7.519  17.886  0.00  0.00    +0.000 A 
ATOM     16  O   UNL     1       3.918   7.063  17.038  0.00  0.00    +0.000 OA
ATOM     17  H   UNL     1       0.764   9.142  20.289  0.00  0.00    +0.000 HD
ATOM     18  H   UNL     1       2.612   9.094  16.706  0.00  0.00    +0.000 HD
ENDBRANCH   6   9
BRANCH   1  23
ATOM     19  C   UNL     1       6.917   4.994  14.328  0.00  0.00    +0.000 C 
ATOM     20  C   UNL     1       6.296   4.622  15.623  0.00  0.00    +0.000 A 
ATOM     21  C   UNL     1       6.802   4.734  16.900  0.00  0.00    +0.000 A 
ATOM     22  N   UNL     1       6.017   4.201  17.904  0.00  0.00    +0.000 NA
ATOM     23  C   UNL     1       4.956   3.630  17.378  0.00  0.00    +0.000 A 
ATOM     24  S   UNL     1       4.738   3.913  15.689  0.00  0.00    +0.000 S 
ENDBRANCH   1  23
TORSDOF 2
ENDMDL
MODEL 6
REMARK VINA RESULT:      -6.1      8.490     10.010
REMARK  Name = 
REMARK  3 active torsions:
REMARK  status: ('A' for Active; 'I' for Inactive)
REMARK    1  A    between atoms: C_1  and  C_2
REMARK    2  A    between atoms: C_5  and  C_6
REMARK    3  A    between atoms: C_11  and  C_13
REMARK                            x       y       z     vdW  Elec       q    Type
REMARK                         _______ _______ _______ _____ _____    ______ ____
ROOT
ATOM      1  C   UNL     1      11.313  12.402  18.509  0.00  0.00    +0.000 C 
ATOM      2  C   UNL     1      10.439  11.289  17.886  0.00  0.00    +0.000 C 
ATOM      3  C   UNL     1       9.143  11.016  18.662  0.00  0.00    +0.000 C 
ATOM      4  C   UNL     1       9.385  10.895  20.173  0.00  0.00    +0.000 C 
ATOM      5  N   UNL     1      10.141  12.047  20.660  0.00  0.00    +0.000 N 
ATOM      6  C   UNL     1       9.672  13.184  21.332  0.00  0.00    +0.000 C 
ATOM      7  O   UNL     1      10.457  14.090  21.631  0.00  0.00    +0.000 OA
ATOM      8  C   UNL     1      11.465  12.147  20.027  0.00  0.00    +0.000 C 
ENDROOT
BRANCH   6   9
ATOM      9  C   UNL     1       8.229  13.348  21.717  0.00  0.00    +0.000 A 
ATOM     10  C   UNL     1       7.443  14.327  21.243  0.00  0.00    +0.000 A 
ATOM     11  N   UNL     1       6.130  14.472  21.589  0.00  0.00    +0.000 N 
ATOM     12  C   UNL     1       5.520  13.708  22.536  0.00  0.00    +0.000 A 
ATOM     13  O   UNL     1       4.333  13.849  22.818  0.00  0.00    +0.000 OA
ATOM     14  N   UNL     1       6.318  12.794  23.148  0.00  0.00    +0.000 N 
ATOM     15  C   UNL     1       7.626  12.528  22.821  0.00  0.00    +0.000 A 
ATOM     16  O   UNL     1       8.223  11.642  23.424  0.00  0.00    +0.000 OA
ATOM     17  H   UNL     1       5.553  15.178  21.142  0.00  0.00    +0.000 HD
ATOM     18  H   UNL     1       5.906  12.242  23.884  0.00  0.00    +0.000 HD
ENDBRANCH   6   9
BRANCH   1  23
ATOM     19  C   UNL     1      10.317  17.552  19.124  0.00  0.00    +0.000 C 
ATOM     20  C   UNL     1      10.291  16.139  18.672  0.00  0.00    +0.000 A 
ATOM     21  C   UNL     1       9.232  15.388  18.209  0.00  0.00    +0.000 A 
ATOM     22  N   UNL     1       9.506  14.057  17.960  0.00  0.00    +0.000 NA
ATOM     23  C   UNL     1      10.749  13.792  18.297  0.00  0.00    +0.000 A 
ATOM     24  S   UNL     1      11.704  15.172  18.703  0.00  0.00    +0.000 S 
ENDBRANCH   1  23
TORSDOF 2
ENDMDL
MODEL 7
REMARK VINA RESULT:      -5.9      1.003      1.259
REMARK  Name = 
REMARK  3 active torsions:
REMARK  status: ('A' for Active; 'I' for Inactive)
REMARK    1  A    between atoms: C_1  and  C_2
REMARK    2  A    between atoms: C_5  and  C_6
REMARK    3  A    between atoms: C_11  and  C_13
REMARK                            x       y       z     vdW  Elec       q    Type
REMARK                         _______ _______ _______ _____ _____    ______ ____
ROOT
ATOM      1  C   UNL     1       3.050   2.386  19.273  0.00  0.00    +0.000 C 
ATOM      2  C   UNL     1       1.551   2.114  19.014  0.00  0.00    +0.000 C 
ATOM      3  C   UNL     1       0.681   3.378  19.043  0.00  0.00    +0.000 C 
ATOM      4  C   UNL     1       0.990   4.268  20.255  0.00  0.00    +0.000 C 
ATOM      5  N   UNL     1       2.425   4.528  20.342  0.00  0.00    +0.000 N 
ATOM      6  C   UNL     1       3.135   5.672  19.953  0.00  0.00    +0.000 C 
ATOM      7  O   UNL     1       4.365   5.700  20.059  0.00  0.00    +0.000 OA
ATOM      8  C   UNL     1       3.201   3.291  20.517  0.00  0.00    +0.000 C 
ENDROOT
BRANCH   6   9
ATOM      9  C   UNL     1       2.448   6.893  19.408  0.00  0.00    +0.000 A 
ATOM     10  C   UNL     1       2.573   7.306  18.137  0.00  0.00    +0.000 A 
ATOM     11  N   UNL     1       1.944   8.413  17.641  0.00  0.00    +0.000 N 
ATOM     12  C   UNL     1       1.222   9.270  18.413  0.00  0.00    +0.000 A 
ATOM     13  O   UNL     1       0.654  10.250  17.939  0.00  0.00    +0.000 OA
ATOM     14  N   UNL     1       1.187   8.968  19.738  0.00  0.00    +0.000 N 
ATOM     15  C   UNL     1       1.727   7.846  20.317  0.00  0.00    +0.000 A 
ATOM     16  O   UNL     1       1.585   7.670  21.523  0.00  0.00    +0.000 OA
ATOM     17  H   UNL     1       2.002   8.640  16.653  0.00  0.00    +0.000 HD
ATOM     18  H   UNL     1       0.696   9.608  20.343  0.00  0.00    +0.000 HD
ENDBRANCH   6   9
BRANCH   1  23
ATOM     19  C   UNL     1       6.329   5.412  16.448  0.00  0.00    +0.000 C 
ATOM     20  C   UNL     1       5.240   4.497  16.867  0.00  0.00    +0.000 A 
ATOM     21  C   UNL     1       3.988   4.318  16.319  0.00  0.00    +0.000 A 
ATOM     22  N   UNL     1       3.152   3.457  17.004  0.00  0.00    +0.000 NA
ATOM     23  C   UNL     1       3.749   3.041  18.099  0.00  0.00    +0.000 A 
ATOM     24  S   UNL     1       5.414   3.476  18.232  0.00  0.00    +0.000 S 
ENDBRANCH   1  23
TORSDOF 2
ENDMDL
MODEL 8
REMARK VINA RESULT:      -5.8      3.952      6.673
REMARK  Name = 
REMARK  3 active torsions:
REMARK  status: ('A' for Active; 'I' for Inactive)
REMARK    1  A    between atoms: C_1  and  C_2
REMARK    2  A    between atoms: C_5  and  C_6
REMARK    3  A    between atoms: C_11  and  C_13
REMARK                            x       y       z     vdW  Elec       q    Type
REMARK                         _______ _______ _______ _____ _____    ______ ____
ROOT
ATOM      1  C   UNL     1       5.269   6.085  18.887  0.00  0.00    +0.000 C 
ATOM      2  C   UNL     1       4.217   6.991  18.206  0.00  0.00    +0.000 C 
ATOM      3  C   UNL     1       4.274   6.958  16.673  0.00  0.00    +0.000 C 
ATOM      4  C   UNL     1       5.706   7.098  16.142  0.00  0.00    +0.000 C 
ATOM      5  N   UNL     1       6.587   6.130  16.793  0.00  0.00    +0.000 N 
ATOM      6  C   UNL     1       7.060   4.905  16.304  0.00  0.00    +0.000 C 
ATOM      7  O   UNL     1       7.767   4.188  17.019  0.00  0.00    +0.000 OA
ATOM      8  C   UNL     1       6.654   6.337  18.248  0.00  0.00    +0.000 C 
ENDROOT
BRANCH   6   9
ATOM      9  C   UNL     1       6.742   4.421  14.917  0.00  0.00    +0.000 A 
ATOM     10  C   UNL     1       5.890   3.415  14.662  0.00  0.00    +0.000 A 
ATOM     11  N   UNL     1       5.598   2.979  13.402  0.00  0.00    +0.000 N 
ATOM     12  C   UNL     1       6.226   3.443  12.287  0.00  0.00    +0.000 A 
ATOM     13  O   UNL     1       5.933   3.045  11.163  0.00  0.00    +0.000 OA
ATOM     14  N   UNL     1       7.200   4.364  12.511  0.00  0.00    +0.000 N 
ATOM     15  C   UNL     1       7.517   4.913  13.729  0.00  0.00    +0.000 A 
ATOM     16  O   UNL     1       8.392   5.772  13.788  0.00  0.00    +0.000 OA
ATOM     17  H   UNL     1       4.886   2.271  13.252  0.00  0.00    +0.000 HD
ATOM     18  H   UNL     1       7.714   4.695  11.709  0.00  0.00    +0.000 HD
ENDBRANCH   6   9
BRANCH   1  23
ATOM     19  C   UNL     1       2.567   1.581  18.333  0.00  0.00    +0.000 C 
ATOM     20  C   UNL     1       3.633   2.583  18.584  0.00  0.00    +0.000 A 
ATOM     21  C   UNL     1       4.706   2.521  19.447  0.00  0.00    +0.000 A 
ATOM     22  N   UNL     1       5.472   3.666  19.532  0.00  0.00    +0.000 NA
ATOM     23  C   UNL     1       4.940   4.610  18.786  0.00  0.00    +0.000 A 
ATOM     24  S   UNL     1       3.640   4.092  17.775  0.00  0.00    +0.000 S 
ENDBRANCH   1  23
TORSDOF 2
ENDMDL
MODEL 9
REMARK VINA RESULT:      -5.7      3.333      6.104
REMARK  Name = 
REMARK  3 active torsions:
REMARK  status: ('A' for Active; 'I' for Inactive)
REMARK    1  A    between atoms: C_1  and  C_2
REMARK    2  A    between atoms: C_5  and  C_6
REMARK    3  A    between atoms: C_11  and  C_13
REMARK                            x       y       z     vdW  Elec       q    Type
REMARK                         _______ _______ _______ _____ _____    ______ ____
ROOT
ATOM      1  C   UNL     1       3.367   5.831  19.660  0.00  0.00    +0.000 C 
ATOM      2  C   UNL     1       2.651   6.897  18.800  0.00  0.00    +0.000 C 
ATOM      3  C   UNL     1       3.237   7.048  17.390  0.00  0.00    +0.000 C 
ATOM      4  C   UNL     1       4.769   7.133  17.405  0.00  0.00    +0.000 C 
ATOM      5  N   UNL     1       5.333   6.024  18.171  0.00  0.00    +0.000 N 
ATOM      6  C   UNL     1       5.904   4.833  17.701  0.00  0.00    +0.000 C 
ATOM      7  O   UNL     1       6.291   3.977  18.503  0.00  0.00    +0.000 OA
ATOM      8  C   UNL     1       4.896   6.044  19.574  0.00  0.00    +0.000 C 
ENDROOT
BRANCH   6   9
ATOM      9  C   UNL     1       6.072   4.551  16.234  0.00  0.00    +0.000 A 
ATOM     10  C   UNL     1       5.485   3.519  15.607  0.00  0.00    +0.000 A 
ATOM     11  N   UNL     1       5.635   3.266  14.273  0.00  0.00    +0.000 N 
ATOM     12  C   UNL     1       6.484   3.966  13.472  0.00  0.00    +0.000 A 
ATOM     13  O   UNL     1       6.588   3.728  12.272  0.00  0.00    +0.000 OA
ATOM     14  N   UNL     1       7.209   4.932  14.097  0.00  0.00    +0.000 N 
ATOM     15  C   UNL     1       7.078   5.304  15.412  0.00  0.00    +0.000 A 
ATOM     16  O   UNL     1       7.764   6.226  15.842  0.00  0.00    +0.000 OA
ATOM     17  H   UNL     1       5.106   2.524  13.826  0.00  0.00    +0.000 HD
ATOM     18  H   UNL     1       7.878   5.439  13.539  0.00  0.00    +0.000 HD
ENDBRANCH   6   9
BRANCH   1  23
ATOM     19  C   UNL     1       0.662   1.500  18.311  0.00  0.00    +0.000 C 
ATOM     20  C   UNL     1       1.739   2.448  18.690  0.00  0.00    +0.000 A 
ATOM     21  C   UNL     1       2.895   2.219  19.404  0.00  0.00    +0.000 A 
ATOM     22  N   UNL     1       3.657   3.336  19.686  0.00  0.00    +0.000 NA
ATOM     23  C   UNL     1       3.042   4.411  19.242  0.00  0.00    +0.000 A 
ATOM     24  S   UNL     1       1.650   4.105  18.268  0.00  0.00    +0.000 S 
ENDBRANCH   1  23
TORSDOF 2
ENDMDL
