MODEL 1
REMARK VINA RESULT:      -6.7      0.000      0.000
REMARK  Name = 
REMARK  5 active torsions:
REMARK  status: ('A' for Active; 'I' for Inactive)
REMARK    1  A    between atoms: C_1  and  C_2
REMARK    2  A    between atoms: C_7  and  C_9
REMARK    3  A    between atoms: C_9  and  C_10
REMARK    4  A    between atoms: C_10  and  C_11
REMARK    5  A    between atoms: N_14  and  C_15
REMARK                            x       y       z     vdW  Elec       q    Type
REMARK                         _______ _______ _______ _____ _____    ______ ____
ROOT
ATOM      1  C   UNL     1       6.906   3.890  12.399  0.00  0.00    +0.000 C 
ATOM      2  C   UNL     1       6.612   4.326  13.790  0.00  0.00    +0.000 A 
ATOM      3  C   UNL     1       5.603   3.827  14.588  0.00  0.00    +0.000 A 
ATOM      4  S   UNL     1       5.638   4.580  16.115  0.00  0.00    +0.000 S 
ATOM      5  C   UNL     1       6.980   5.520  15.623  0.00  0.00    +0.000 A 
ATOM      6  N   UNL     1       7.552   6.457  16.458  0.00  0.00    +0.000 N 
ATOM      7  C   UNL     1       7.448   6.455  17.835  0.00  0.00    +0.000 C 
ATOM      8  O   UNL     1       6.794   5.662  18.509  0.00  0.00    +0.000 OA
ATOM      9  N   UNL     1       7.377   5.330  14.384  0.00  0.00    +0.000 NA
ATOM     10  H   UNL     1       8.220   7.061  15.995  0.00  0.00    +0.000 HD
ENDROOT
BRANCH   7  11
ATOM     11  C   UNL     1       8.236   7.562  18.519  0.00  0.00    +0.000 C 
BRANCH  11  12
ATOM     12  C   UNL     1       8.015   8.875  17.760  0.00  0.00    +0.000 C 
BRANCH  12  13
ATOM     13  C   UNL     1       8.727  10.043  18.345  0.00  0.00    +0.000 A 
ATOM     14  C   UNL     1       8.863  11.336  17.788  0.00  0.00    +0.000 A 
ATOM     15  N   UNL     1       9.501  12.182  18.601  0.00  0.00    +0.000 NA
ATOM     16  N   UNL     1       9.760  11.441  19.691  0.00  0.00    +0.000 N 
ATOM     17  C   UNL     1      10.389  12.038  20.843  0.00  0.00    +0.000 C 
ATOM     18  C   UNL     1       9.338  10.147  19.579  0.00  0.00    +0.000 A 
ENDBRANCH  12  13
ENDBRANCH  11  12
ENDBRANCH   7  11
TORSDOF 3
ENDMDL
MODEL 2
REMARK VINA RESULT:      -6.5      5.339      7.774
REMARK  Name = 
REMARK  5 active torsions:
REMARK  status: ('A' for Active; 'I' for Inactive)
REMARK    1  A    between atoms: C_1  and  C_2
REMARK    2  A    between atoms: C_7  and  C_9
REMARK    3  A    between atoms: C_9  and  C_10
REMARK    4  A    between atoms: C_10  and  C_11
REMARK    5  A    between atoms: N_14  and  C_15
REMARK                            x       y       z     vdW  Elec       q    Type
REMARK                         _______ _______ _______ _____ _____    ______ ____
ROOT
ATOM      1  C   UNL     1       1.680   2.637  21.750  0.00  0.00    +0.000 C 
ATOM      2  C   UNL     1       2.123   3.191  20.444  0.00  0.00    +0.000 A 
ATOM      3  C   UNL     1       1.323   3.875  19.552  0.00  0.00    +0.000 A 
ATOM      4  S   UNL     1       2.236   4.359  18.198  0.00  0.00    +0.000 S 
ATOM      5  C   UNL     1       3.628   3.630  18.874  0.00  0.00    +0.000 A 
ATOM      6  N   UNL     1       4.838   3.630  18.213  0.00  0.00    +0.000 N 
ATOM      7  C   UNL     1       5.199   4.527  17.227  0.00  0.00    +0.000 C 
ATOM      8  O   UNL     1       4.485   5.412  16.759  0.00  0.00    +0.000 OA
ATOM      9  N   UNL     1       3.443   3.022  20.025  0.00  0.00    +0.000 NA
ATOM     10  H   UNL     1       5.533   3.024  18.633  0.00  0.00    +0.000 HD
ENDROOT
BRANCH   7  11
ATOM     11  C   UNL     1       6.619   4.349  16.714  0.00  0.00    +0.000 C 
BRANCH  11  12
ATOM     12  C   UNL     1       6.864   5.337  15.568  0.00  0.00    +0.000 C 
BRANCH  12  13
ATOM     13  C   UNL     1       6.751   4.737  14.212  0.00  0.00    +0.000 A 
ATOM     14  C   UNL     1       7.568   4.993  13.085  0.00  0.00    +0.000 A 
ATOM     15  N   UNL     1       7.248   4.234  12.034  0.00  0.00    +0.000 NA
ATOM     16  N   UNL     1       6.239   3.473  12.487  0.00  0.00    +0.000 N 
ATOM     17  C   UNL     1       5.663   2.453  11.646  0.00  0.00    +0.000 C 
ATOM     18  C   UNL     1       5.888   3.751  13.778  0.00  0.00    +0.000 A 
ENDBRANCH  12  13
ENDBRANCH  11  12
ENDBRANCH   7  11
TORSDOF 3
ENDMDL
MODEL 3
REMARK VINA RESULT:      -6.4      0.714      1.136
REMARK  Name = 
REMARK  5 active torsions:
REMARK  status: ('A' for Active; 'I' for Inactive)
REMARK    1  A    between atoms: C_1  and  C_2
REMARK    2  A    between atoms: C_7  and  C_9
REMARK    3  A    between atoms: C_9  and  C_10
REMARK    4  A    between atoms: C_10  and  C_11
REMARK    5  A    between atoms: N_14  and  C_15
REMARK                            x       y       z     vdW  Elec       q    Type
REMARK                         _______ _______ _______ _____ _____    ______ ____
ROOT
ATOM      1  C   UNL     1       7.148   4.148  12.106  0.00  0.00    +0.000 C 
ATOM      2  C   UNL     1       6.865   4.390  13.545  0.00  0.00    +0.000 A 
ATOM      3  C   UNL     1       6.007   3.645  14.328  0.00  0.00    +0.000 A 
ATOM      4  S   UNL     1       6.000   4.244  15.923  0.00  0.00    +0.000 S 
ATOM      5  C   UNL     1       7.127   5.451  15.476  0.00  0.00    +0.000 A 
ATOM      6  N   UNL     1       7.575   6.392  16.379  0.00  0.00    +0.000 N 
ATOM      7  C   UNL     1       7.554   6.241  17.752  0.00  0.00    +0.000 C 
ATOM      8  O   UNL     1       7.089   5.282  18.366  0.00  0.00    +0.000 OA
ATOM      9  N   UNL     1       7.477   5.454  14.209  0.00  0.00    +0.000 NA
ATOM     10  H   UNL     1       8.100   7.147  15.955  0.00  0.00    +0.000 HD
ENDROOT
BRANCH   7  11
ATOM     11  C   UNL     1       8.176   7.400  18.514  0.00  0.00    +0.000 C 
BRANCH  11  12
ATOM     12  C   UNL     1       7.952   8.695  17.725  0.00  0.00    +0.000 C 
BRANCH  12  13
ATOM     13  C   UNL     1       8.578   9.897  18.339  0.00  0.00    +0.000 A 
ATOM     14  C   UNL     1       9.226   9.986  19.593  0.00  0.00    +0.000 A 
ATOM     15  N   UNL     1       9.747  11.194  19.820  0.00  0.00    +0.000 NA
ATOM     16  N   UNL     1       9.453  11.881  18.703  0.00  0.00    +0.000 N 
ATOM     17  C   UNL     1       9.923  13.234  18.537  0.00  0.00    +0.000 C 
ATOM     18  C   UNL     1       8.734  11.156  17.794  0.00  0.00    +0.000 A 
ENDBRANCH  12  13
ENDBRANCH  11  12
ENDBRANCH   7  11
TORSDOF 3
ENDMDL
MODEL 4
REMARK VINA RESULT:      -6.1      6.761      9.527
REMARK  Name = 
REMARK  5 active torsions:
REMARK  status: ('A' for Active; 'I' for Inactive)
REMARK    1  A    between atoms: C_1  and  C_2
REMARK    2  A    between atoms: C_7  and  C_9
REMARK    3  A    between atoms: C_9  and  C_10
REMARK    4  A    between atoms: C_10  and  C_11
REMARK    5  A    between atoms: N_14  and  C_15
REMARK                            x       y       z     vdW  Elec       q    Type
REMARK                         _______ _______ _______ _____ _____    ______ ____
ROOT
ATOM      1  C   UNL     1       0.026   9.544  23.420  0.00  0.00    +0.000 C 
ATOM      2  C   UNL     1       0.278   9.509  21.956  0.00  0.00    +0.000 A 
ATOM      3  C   UNL     1      -0.307  10.341  21.024  0.00  0.00    +0.000 A 
ATOM      4  S   UNL     1       0.282   9.983  19.466  0.00  0.00    +0.000 S 
ATOM      5  C   UNL     1       1.270   8.749  20.122  0.00  0.00    +0.000 A 
ATOM      6  N   UNL     1       2.071   7.962  19.323  0.00  0.00    +0.000 N 
ATOM      7  C   UNL     1       2.516   8.312  18.063  0.00  0.00    +0.000 C 
ATOM      8  O   UNL     1       2.224   9.339  17.453  0.00  0.00    +0.000 OA
ATOM      9  N   UNL     1       1.158   8.569  21.420  0.00  0.00    +0.000 NA
ATOM     10  H   UNL     1       2.470   7.165  19.804  0.00  0.00    +0.000 HD
ENDROOT
BRANCH   7  11
ATOM     11  C   UNL     1       3.447   7.292  17.427  0.00  0.00    +0.000 C 
BRANCH  11  12
ATOM     12  C   UNL     1       3.727   6.173  18.436  0.00  0.00    +0.000 C 
BRANCH  12  13
ATOM     13  C   UNL     1       2.965   4.920  18.182  0.00  0.00    +0.000 A 
ATOM     14  C   UNL     1       3.188   3.968  17.160  0.00  0.00    +0.000 A 
ATOM     15  N   UNL     1       2.373   2.914  17.251  0.00  0.00    +0.000 NA
ATOM     16  N   UNL     1       1.637   3.176  18.344  0.00  0.00    +0.000 N 
ATOM     17  C   UNL     1       0.674   2.213  18.818  0.00  0.00    +0.000 C 
ATOM     18  C   UNL     1       1.936   4.375  18.925  0.00  0.00    +0.000 A 
ENDBRANCH  12  13
ENDBRANCH  11  12
ENDBRANCH   7  11
TORSDOF 3
ENDMDL
MODEL 5
REMARK VINA RESULT:      -6.0      3.940      6.003
REMARK  Name = 
REMARK  5 active torsions:
REMARK  status: ('A' for Active; 'I' for Inactive)
REMARK    1  A    between atoms: C_1  and  C_2
REMARK    2  A    between atoms: C_7  and  C_9
REMARK    3  A    between atoms: C_9  and  C_10
REMARK    4  A    between atoms: C_10  and  C_11
REMARK    5  A    between atoms: N_14  and  C_15
REMARK                            x       y       z     vdW  Elec       q    Type
REMARK                         _______ _______ _______ _____ _____    ______ ____
ROOT
ATOM      1  C   UNL     1       1.117   7.290  21.121  0.00  0.00    +0.000 C 
ATOM      2  C   UNL     1       1.896   6.198  20.480  0.00  0.00    +0.000 A 
ATOM      3  C   UNL     1       1.980   4.900  20.940  0.00  0.00    +0.000 A 
ATOM      4  S   UNL     1       2.950   3.969  19.893  0.00  0.00    +0.000 S 
ATOM      5  C   UNL     1       3.199   5.342  18.902  0.00  0.00    +0.000 A 
ATOM      6  N   UNL     1       3.997   5.288  17.778  0.00  0.00    +0.000 N 
ATOM      7  C   UNL     1       4.306   4.134  17.084  0.00  0.00    +0.000 C 
ATOM      8  O   UNL     1       3.966   2.993  17.393  0.00  0.00    +0.000 OA
ATOM      9  N   UNL     1       2.635   6.452  19.324  0.00  0.00    +0.000 NA
ATOM     10  H   UNL     1       4.202   6.196  17.379  0.00  0.00    +0.000 HD
ENDROOT
BRANCH   7  11
ATOM     11  C   UNL     1       5.146   4.364  15.838  0.00  0.00    +0.000 C 
BRANCH  11  12
ATOM     12  C   UNL     1       6.630   4.284  16.213  0.00  0.00    +0.000 C 
BRANCH  12  13
ATOM     13  C   UNL     1       7.100   5.400  17.078  0.00  0.00    +0.000 A 
ATOM     14  C   UNL     1       7.637   5.310  18.383  0.00  0.00    +0.000 A 
ATOM     15  N   UNL     1       8.033   6.493  18.860  0.00  0.00    +0.000 NA
ATOM     16  N   UNL     1       7.771   7.344  17.854  0.00  0.00    +0.000 N 
ATOM     17  C   UNL     1       8.136   8.734  17.965  0.00  0.00    +0.000 C 
ATOM     18  C   UNL     1       7.191   6.743  16.773  0.00  0.00    +0.000 A 
ENDBRANCH  12  13
ENDBRANCH  11  12
ENDBRANCH   7  11
TORSDOF 3
ENDMDL
MODEL 6
REMARK VINA RESULT:      -6.0      6.537      8.949
REMARK  Name = 
REMARK  5 active torsions:
REMARK  status: ('A' for Active; 'I' for Inactive)
REMARK    1  A    between atoms: C_1  and  C_2
REMARK    2  A    between atoms: C_7  and  C_9
REMARK    3  A    between atoms: C_9  and  C_10
REMARK    4  A    between atoms: C_10  and  C_11
REMARK    5  A    between atoms: N_14  and  C_15
REMARK                            x       y       z     vdW  Elec       q    Type
REMARK                         _______ _______ _______ _____ _____    ______ ____
ROOT
ATOM      1  C   UNL     1      -0.073   9.627  23.443  0.00  0.00    +0.000 C 
ATOM      2  C   UNL     1       0.218   9.582  21.986  0.00  0.00    +0.000 A 
ATOM      3  C   UNL     1      -0.299  10.444  21.041  0.00  0.00    +0.000 A 
ATOM      4  S   UNL     1       0.316  10.059  19.499  0.00  0.00    +0.000 S 
ATOM      5  C   UNL     1       1.223   8.778  20.179  0.00  0.00    +0.000 A 
ATOM      6  N   UNL     1       2.007   7.953  19.400  0.00  0.00    +0.000 N 
ATOM      7  C   UNL     1       2.504   8.283  18.154  0.00  0.00    +0.000 C 
ATOM      8  O   UNL     1       2.280   9.324  17.540  0.00  0.00    +0.000 OA
ATOM      9  N   UNL     1       1.066   8.601  21.473  0.00  0.00    +0.000 NA
ATOM     10  H   UNL     1       2.352   7.137  19.890  0.00  0.00    +0.000 HD
ENDROOT
BRANCH   7  11
ATOM     11  C   UNL     1       3.401   7.219  17.542  0.00  0.00    +0.000 C 
BRANCH  11  12
ATOM     12  C   UNL     1       2.766   5.842  17.761  0.00  0.00    +0.000 C 
BRANCH  12  13
ATOM     13  C   UNL     1       3.669   4.850  18.402  0.00  0.00    +0.000 A 
ATOM     14  C   UNL     1       5.070   4.944  18.573  0.00  0.00    +0.000 A 
ATOM     15  N   UNL     1       5.577   3.915  19.256  0.00  0.00    +0.000 NA
ATOM     16  N   UNL     1       4.501   3.166  19.545  0.00  0.00    +0.000 N 
ATOM     17  C   UNL     1       4.637   1.980  20.354  0.00  0.00    +0.000 C 
ATOM     18  C   UNL     1       3.337   3.669  19.037  0.00  0.00    +0.000 A 
ENDBRANCH  12  13
ENDBRANCH  11  12
ENDBRANCH   7  11
TORSDOF 3
ENDMDL
MODEL 7
REMARK VINA RESULT:      -6.0      4.713      6.277
REMARK  Name = 
REMARK  5 active torsions:
REMARK  status: ('A' for Active; 'I' for Inactive)
REMARK    1  A    between atoms: C_1  and  C_2
REMARK    2  A    between atoms: C_7  and  C_9
REMARK    3  A    between atoms: C_9  and  C_10
REMARK    4  A    between atoms: C_10  and  C_11
REMARK    5  A    between atoms: N_14  and  C_15
REMARK                            x       y       z     vdW  Elec       q    Type
REMARK                         _______ _______ _______ _____ _____    ______ ____
ROOT
ATOM      1  C   UNL     1       4.874   2.917  11.476  0.00  0.00    +0.000 C 
ATOM      2  C   UNL     1       5.742   3.589  12.479  0.00  0.00    +0.000 A 
ATOM      3  C   UNL     1       6.917   4.256  12.200  0.00  0.00    +0.000 A 
ATOM      4  S   UNL     1       7.578   4.903  13.631  0.00  0.00    +0.000 S 
ATOM      5  C   UNL     1       6.271   4.257  14.527  0.00  0.00    +0.000 A 
ATOM      6  N   UNL     1       6.190   4.405  15.896  0.00  0.00    +0.000 N 
ATOM      7  C   UNL     1       6.828   5.390  16.623  0.00  0.00    +0.000 C 
ATOM      8  O   UNL     1       7.597   6.238  16.171  0.00  0.00    +0.000 OA
ATOM      9  N   UNL     1       5.399   3.563  13.830  0.00  0.00    +0.000 NA
ATOM     10  H   UNL     1       5.470   3.836  16.325  0.00  0.00    +0.000 HD
ENDROOT
BRANCH   7  11
ATOM     11  C   UNL     1       6.511   5.370  18.109  0.00  0.00    +0.000 C 
BRANCH  11  12
ATOM     12  C   UNL     1       5.047   5.774  18.314  0.00  0.00    +0.000 C 
BRANCH  12  13
ATOM     13  C   UNL     1       4.224   4.748  19.009  0.00  0.00    +0.000 A 
ATOM     14  C   UNL     1       4.611   3.437  19.375  0.00  0.00    +0.000 A 
ATOM     15  N   UNL     1       3.660   2.790  20.054  0.00  0.00    +0.000 NA
ATOM     16  N   UNL     1       2.667   3.690  20.145  0.00  0.00    +0.000 N 
ATOM     17  C   UNL     1       1.471   3.380  20.888  0.00  0.00    +0.000 C 
ATOM     18  C   UNL     1       2.945   4.870  19.515  0.00  0.00    +0.000 A 
ENDBRANCH  12  13
ENDBRANCH  11  12
ENDBRANCH   7  11
TORSDOF 3
ENDMDL
MODEL 8
REMARK VINA RESULT:      -5.9      6.597      8.795
REMARK  Name = 
REMARK  5 active torsions:
REMARK  status: ('A' for Active; 'I' for Inactive)
REMARK    1  A    between atoms: C_1  and  C_2
REMARK    2  A    between atoms: C_7  and  C_9
REMARK    3  A    between atoms: C_9  and  C_10
REMARK    4  A    between atoms: C_10  and  C_11
REMARK    5  A    between atoms: N_14  and  C_15
REMARK                            x       y       z     vdW  Elec       q    Type
REMARK                         _______ _______ _______ _____ _____    ______ ____
ROOT
ATOM      1  C   UNL     1      -0.817  10.302  23.246  0.00  0.00    +0.000 C 
ATOM      2  C   UNL     1      -0.375  10.306  21.826  0.00  0.00    +0.000 A 
ATOM      3  C   UNL     1      -0.652  11.296  20.906  0.00  0.00    +0.000 A 
ATOM      4  S   UNL     1       0.068  10.920  19.408  0.00  0.00    +0.000 S 
ATOM      5  C   UNL     1       0.697   9.474  20.071  0.00  0.00    +0.000 A 
ATOM      6  N   UNL     1       1.434   8.590  19.311  0.00  0.00    +0.000 N 
ATOM      7  C   UNL     1       2.110   8.919  18.152  0.00  0.00    +0.000 C 
ATOM      8  O   UNL     1       2.110  10.019  17.604  0.00  0.00    +0.000 OA
ATOM      9  N   UNL     1       0.373   9.241  21.324  0.00  0.00    +0.000 NA
ATOM     10  H   UNL     1       1.600   7.701  19.766  0.00  0.00    +0.000 HD
ENDROOT
BRANCH   7  11
ATOM     11  C   UNL     1       2.905   7.771  17.550  0.00  0.00    +0.000 C 
BRANCH  11  12
ATOM     12  C   UNL     1       2.934   6.606  18.546  0.00  0.00    +0.000 C 
BRANCH  12  13
ATOM     13  C   UNL     1       4.200   5.824  18.530  0.00  0.00    +0.000 A 
ATOM     14  C   UNL     1       4.577   4.779  19.406  0.00  0.00    +0.000 A 
ATOM     15  N   UNL     1       5.750   4.231  19.079  0.00  0.00    +0.000 NA
ATOM     16  N   UNL     1       6.121   4.908  17.979  0.00  0.00    +0.000 N 
ATOM     17  C   UNL     1       7.327   4.548  17.276  0.00  0.00    +0.000 C 
ATOM     18  C   UNL     1       5.238   5.889  17.623  0.00  0.00    +0.000 A 
ENDBRANCH  12  13
ENDBRANCH  11  12
ENDBRANCH   7  11
TORSDOF 3
ENDMDL
MODEL 9
REMARK VINA RESULT:      -5.8      4.816      7.402
REMARK  Name = 
REMARK  5 active torsions:
REMARK  status: ('A' for Active; 'I' for Inactive)
REMARK    1  A    between atoms: C_1  and  C_2
REMARK    2  A    between atoms: C_7  and  C_9
REMARK    3  A    between atoms: C_9  and  C_10
REMARK    4  A    between atoms: C_10  and  C_11
REMARK    5  A    between atoms: N_14  and  C_15
REMARK                            x       y       z     vdW  Elec       q    Type
REMARK                         _______ _______ _______ _____ _____    ______ ____
ROOT
ATOM      1  C   UNL     1       1.595   2.521  21.831  0.00  0.00    +0.000 C 
ATOM      2  C   UNL     1       2.269   3.429  20.867  0.00  0.00    +0.000 A 
ATOM      3  C   UNL     1       1.739   4.601  20.367  0.00  0.00    +0.000 A 
ATOM      4  S   UNL     1       2.854   5.348  19.318  0.00  0.00    +0.000 S 
ATOM      5  C   UNL     1       3.964   4.075  19.588  0.00  0.00    +0.000 A 
ATOM      6  N   UNL     1       5.189   4.037  18.956  0.00  0.00    +0.000 N 
ATOM      7  C   UNL     1       5.840   5.135  18.429  0.00  0.00    +0.000 C 
ATOM      8  O   UNL     1       5.405   6.285  18.397  0.00  0.00    +0.000 OA
ATOM      9  N   UNL     1       3.539   3.115  20.381  0.00  0.00    +0.000 NA
ATOM     10  H   UNL     1       5.676   3.155  19.064  0.00  0.00    +0.000 HD
ENDROOT
BRANCH   7  11
ATOM     11  C   UNL     1       7.212   4.827  17.852  0.00  0.00    +0.000 C 
BRANCH  11  12
ATOM     12  C   UNL     1       7.380   5.584  16.529  0.00  0.00    +0.000 C 
BRANCH  12  13
ATOM     13  C   UNL     1       6.777   4.898  15.355  0.00  0.00    +0.000 A 
ATOM     14  C   UNL     1       5.420   4.552  15.162  0.00  0.00    +0.000 A 
ATOM     15  N   UNL     1       5.191   4.009  13.964  0.00  0.00    +0.000 NA
ATOM     16  N   UNL     1       6.398   4.023  13.374  0.00  0.00    +0.000 N 
ATOM     17  C   UNL     1       6.546   3.574  12.012  0.00  0.00    +0.000 C 
ATOM     18  C   UNL     1       7.386   4.524  14.173  0.00  0.00    +0.000 A 
ENDBRANCH  12  13
ENDBRANCH  11  12
ENDBRANCH   7  11
TORSDOF 3
ENDMDL
