MODEL 1
REMARK VINA RESULT:      -6.8      0.000      0.000
REMARK  Name = 
REMARK  5 active torsions:
REMARK  status: ('A' for Active; 'I' for Inactive)
REMARK    1  A    between atoms: C_1  and  C_2
REMARK    2  A    between atoms: C_2  and  N_3
REMARK    3  A    between atoms: C_10  and  C_11
REMARK    4  A    between atoms: N_22  and  C_23
REMARK    5  A    between atoms: C_23  and  C_24
REMARK                            x       y       z     vdW  Elec       q    Type
REMARK                         _______ _______ _______ _____ _____    ______ ____
ROOT
ATOM      1  N   UNL     1      -3.337  11.681  18.931  0.00  0.00    +0.000 N 
ATOM      2  C   UNL     1      -2.179  11.941  18.266  0.00  0.00    +0.000 C 
ATOM      3  O   UNL     1      -1.835  11.525  17.170  0.00  0.00    +0.000 OA
ATOM      4  C   UNL     1      -1.367  12.894  19.075  0.00  0.00    +0.000 C 
ATOM      5  C   UNL     1      -2.375  13.482  20.068  0.00  0.00    +0.000 C 
ATOM      6  C   UNL     1      -3.614  12.637  19.858  0.00  0.00    +0.000 C 
ATOM      7  O   UNL     1      -4.705  12.849  20.375  0.00  0.00    +0.000 OA
ATOM      8  C   UNL     1      -1.704  13.358  21.427  0.00  0.00    +0.000 C 
ATOM      9  N   UNL     1      -0.794  12.174  21.298  0.00  0.00    +0.000 NA
ATOM     10  C   UNL     1      -0.239  12.189  19.878  0.00  0.00    +0.000 C 
ATOM     11  C   UNL     1       0.994  13.102  19.844  0.00  0.00    +0.000 C 
ATOM     12  C   UNL     1       1.693  12.912  18.505  0.00  0.00    +0.000 C 
ATOM     13  C   UNL     1       2.375  11.562  18.561  0.00  0.00    +0.000 C 
ATOM     14  N   UNL     1       1.397  10.490  18.620  0.00  0.00    +0.000 N 
ATOM     15  C   UNL     1       0.179  10.665  19.351  0.00  0.00    +0.000 C 
ATOM     16  O   UNL     1      -0.612   9.733  19.527  0.00  0.00    +0.000 OA
ATOM     17  H   UNL     1      -1.338  11.315  21.405  0.00  0.00    +0.000 HD
ENDROOT
BRANCH   8  18
ATOM     18  C   UNL     1      -2.698  13.441  22.588  0.00  0.00    +0.000 A 
ATOM     19  C   UNL     1      -3.042  12.332  23.370  0.00  0.00    +0.000 A 
ATOM     20  C   UNL     1      -4.117  12.384  24.273  0.00  0.00    +0.000 A 
ATOM     21  C   UNL     1      -4.856  13.554  24.435  0.00  0.00    +0.000 A 
ATOM     22  C   UNL     1      -4.510  14.683  23.702  0.00  0.00    +0.000 A 
ATOM     23  C   UNL     1      -3.446  14.627  22.788  0.00  0.00    +0.000 A 
ENDBRANCH   8  18
BRANCH   1  25
ATOM     24  C   UNL     1      -5.282  11.176  17.480  0.00  0.00    +0.000 C 
ATOM     25  C   UNL     1      -4.284  10.673  18.516  0.00  0.00    +0.000 C 
ENDBRANCH   1  25
BRANCH  14  26
ATOM     26  C   UNL     1       1.664   9.324  17.705  0.00  0.00    +0.000 C 
BRANCH  26  27
ATOM     27  C   UNL     1       2.515   8.118  18.161  0.00  0.00    +0.000 A 
ATOM     28  C   UNL     1       2.184   7.399  19.317  0.00  0.00    +0.000 A 
ATOM     29  C   UNL     1       2.801   6.165  19.621  0.00  0.00    +0.000 A 
ATOM     30  C   UNL     1       3.766   5.620  18.783  0.00  0.00    +0.000 A 
ATOM     31  C   UNL     1       4.127   6.310  17.630  0.00  0.00    +0.000 A 
ATOM     32  C   UNL     1       3.506   7.541  17.322  0.00  0.00    +0.000 A 
ENDBRANCH  26  27
ENDBRANCH  14  26
TORSDOF 4
ENDMDL
MODEL 2
REMARK VINA RESULT:      -6.8      1.991      3.131
REMARK  Name = 
REMARK  5 active torsions:
REMARK  status: ('A' for Active; 'I' for Inactive)
REMARK    1  A    between atoms: C_1  and  C_2
REMARK    2  A    between atoms: C_2  and  N_3
REMARK    3  A    between atoms: C_10  and  C_11
REMARK    4  A    between atoms: N_22  and  C_23
REMARK    5  A    between atoms: C_23  and  C_24
REMARK                            x       y       z     vdW  Elec       q    Type
REMARK                         _______ _______ _______ _____ _____    ______ ____
ROOT
ATOM      1  N   UNL     1       0.043  13.753  19.992  0.00  0.00    +0.000 N 
ATOM      2  C   UNL     1       0.954  12.791  20.301  0.00  0.00    +0.000 C 
ATOM      3  O   UNL     1       2.020  12.564  19.747  0.00  0.00    +0.000 OA
ATOM      4  C   UNL     1       0.475  12.046  21.500  0.00  0.00    +0.000 C 
ATOM      5  C   UNL     1      -0.594  12.965  22.098  0.00  0.00    +0.000 C 
ATOM      6  C   UNL     1      -0.764  14.043  21.049  0.00  0.00    +0.000 C 
ATOM      7  O   UNL     1      -1.446  15.052  21.182  0.00  0.00    +0.000 OA
ATOM      8  C   UNL     1      -1.798  12.065  22.331  0.00  0.00    +0.000 C 
ATOM      9  N   UNL     1      -1.676  10.986  21.298  0.00  0.00    +0.000 NA
ATOM     10  C   UNL     1      -0.188  10.689  21.136  0.00  0.00    +0.000 C 
ATOM     11  C   UNL     1       0.225   9.669  22.205  0.00  0.00    +0.000 C 
ATOM     12  C   UNL     1       1.631   9.180  21.882  0.00  0.00    +0.000 C 
ATOM     13  C   UNL     1       1.504   8.261  20.687  0.00  0.00    +0.000 C 
ATOM     14  N   UNL     1       1.091   9.001  19.507  0.00  0.00    +0.000 N 
ATOM     15  C   UNL     1       0.171  10.091  19.624  0.00  0.00    +0.000 C 
ATOM     16  O   UNL     1      -0.297  10.654  18.630  0.00  0.00    +0.000 OA
ATOM     17  H   UNL     1      -2.017  11.336  20.400  0.00  0.00    +0.000 HD
ENDROOT
BRANCH   8  18
ATOM     18  C   UNL     1      -3.106  12.849  22.473  0.00  0.00    +0.000 A 
ATOM     19  C   UNL     1      -3.446  13.547  23.639  0.00  0.00    +0.000 A 
ATOM     20  C   UNL     1      -4.739  14.062  23.826  0.00  0.00    +0.000 A 
ATOM     21  C   UNL     1      -5.714  13.915  22.842  0.00  0.00    +0.000 A 
ATOM     22  C   UNL     1      -5.392  13.264  21.658  0.00  0.00    +0.000 A 
ATOM     23  C   UNL     1      -4.104  12.734  21.476  0.00  0.00    +0.000 A 
ENDBRANCH   8  18
BRANCH   1  25
ATOM     24  C   UNL     1       1.031  15.757  18.919  0.00  0.00    +0.000 C 
ATOM     25  C   UNL     1       0.105  14.553  18.793  0.00  0.00    +0.000 C 
ENDBRANCH   1  25
BRANCH  14  26
ATOM     26  C   UNL     1       1.852   8.679  18.247  0.00  0.00    +0.000 C 
BRANCH  26  27
ATOM     27  C   UNL     1       2.633   7.354  18.092  0.00  0.00    +0.000 A 
ATOM     28  C   UNL     1       1.988   6.118  18.233  0.00  0.00    +0.000 A 
ATOM     29  C   UNL     1       2.621   4.909  17.868  0.00  0.00    +0.000 A 
ATOM     30  C   UNL     1       3.914   4.902  17.357  0.00  0.00    +0.000 A 
ATOM     31  C   UNL     1       4.588   6.110  17.210  0.00  0.00    +0.000 A 
ATOM     32  C   UNL     1       3.954   7.320  17.570  0.00  0.00    +0.000 A 
ENDBRANCH  26  27
ENDBRANCH  14  26
TORSDOF 4
ENDMDL
MODEL 3
REMARK VINA RESULT:      -6.4      3.731      7.918
REMARK  Name = 
REMARK  5 active torsions:
REMARK  status: ('A' for Active; 'I' for Inactive)
REMARK    1  A    between atoms: C_1  and  C_2
REMARK    2  A    between atoms: C_2  and  N_3
REMARK    3  A    between atoms: C_10  and  C_11
REMARK    4  A    between atoms: N_22  and  C_23
REMARK    5  A    between atoms: C_23  and  C_24
REMARK                            x       y       z     vdW  Elec       q    Type
REMARK                         _______ _______ _______ _____ _____    ______ ____
ROOT
ATOM      1  N   UNL     1       0.034  15.994  19.618  0.00  0.00    +0.000 N 
ATOM      2  C   UNL     1      -0.713  14.882  19.861  0.00  0.00    +0.000 C 
ATOM      3  O   UNL     1      -1.903  14.824  20.132  0.00  0.00    +0.000 OA
ATOM      4  C   UNL     1       0.151  13.680  19.691  0.00  0.00    +0.000 C 
ATOM      5  C   UNL     1       1.358  14.204  18.907  0.00  0.00    +0.000 C 
ATOM      6  C   UNL     1       1.153  15.704  18.901  0.00  0.00    +0.000 C 
ATOM      7  O   UNL     1       1.836  16.504  18.272  0.00  0.00    +0.000 OA
ATOM      8  C   UNL     1       2.571  13.699  19.672  0.00  0.00    +0.000 C 
ATOM      9  N   UNL     1       2.105  13.574  21.091  0.00  0.00    +0.000 NA
ATOM     10  C   UNL     1       0.654  13.107  21.045  0.00  0.00    +0.000 C 
ATOM     11  C   UNL     1       0.637  11.577  20.938  0.00  0.00    +0.000 C 
ATOM     12  C   UNL     1      -0.793  11.099  21.155  0.00  0.00    +0.000 C 
ATOM     13  C   UNL     1      -1.081  11.255  22.632  0.00  0.00    +0.000 C 
ATOM     14  N   UNL     1      -1.101  12.658  23.010  0.00  0.00    +0.000 N 
ATOM     15  C   UNL     1      -0.201  13.583  22.393  0.00  0.00    +0.000 C 
ATOM     16  O   UNL     1      -0.104  14.752  22.782  0.00  0.00    +0.000 OA
ATOM     17  H   UNL     1       2.117  14.496  21.533  0.00  0.00    +0.000 HD
ENDROOT
BRANCH   8  18
ATOM     18  C   UNL     1       3.845  14.483  19.346  0.00  0.00    +0.000 A 
ATOM     19  C   UNL     1       4.504  14.378  18.115  0.00  0.00    +0.000 A 
ATOM     20  C   UNL     1       5.783  14.926  17.927  0.00  0.00    +0.000 A 
ATOM     21  C   UNL     1       6.423  15.615  18.955  0.00  0.00    +0.000 A 
ATOM     22  C   UNL     1       5.774  15.771  20.174  0.00  0.00    +0.000 A 
ATOM     23  C   UNL     1       4.502  15.210  20.369  0.00  0.00    +0.000 A 
ENDBRANCH   8  18
BRANCH   1  25
ATOM     24  C   UNL     1      -1.317  17.870  18.725  0.00  0.00    +0.000 C 
ATOM     25  C   UNL     1      -0.440  17.337  19.851  0.00  0.00    +0.000 C 
ENDBRANCH   1  25
BRANCH  14  26
ATOM     26  C   UNL     1      -2.247  13.068  23.896  0.00  0.00    +0.000 C 
BRANCH  26  27
ATOM     27  C   UNL     1      -3.716  12.803  23.492  0.00  0.00    +0.000 A 
ATOM     28  C   UNL     1      -4.709  12.626  24.464  0.00  0.00    +0.000 A 
ATOM     29  C   UNL     1      -6.081  12.617  24.125  0.00  0.00    +0.000 A 
ATOM     30  C   UNL     1      -6.495  12.780  22.808  0.00  0.00    +0.000 A 
ATOM     31  C   UNL     1      -5.536  12.950  21.815  0.00  0.00    +0.000 A 
ATOM     32  C   UNL     1      -4.165  12.965  22.154  0.00  0.00    +0.000 A 
ENDBRANCH  26  27
ENDBRANCH  14  26
TORSDOF 4
ENDMDL
MODEL 4
REMARK VINA RESULT:      -6.4      1.998      3.241
REMARK  Name = 
REMARK  5 active torsions:
REMARK  status: ('A' for Active; 'I' for Inactive)
REMARK    1  A    between atoms: C_1  and  C_2
REMARK    2  A    between atoms: C_2  and  N_3
REMARK    3  A    between atoms: C_10  and  C_11
REMARK    4  A    between atoms: N_22  and  C_23
REMARK    5  A    between atoms: C_23  and  C_24
REMARK                            x       y       z     vdW  Elec       q    Type
REMARK                         _______ _______ _______ _____ _____    ______ ____
ROOT
ATOM      1  N   UNL     1       0.026  13.839  20.134  0.00  0.00    +0.000 N 
ATOM      2  C   UNL     1       0.935  12.874  20.441  0.00  0.00    +0.000 C 
ATOM      3  O   UNL     1       2.027  12.684  19.928  0.00  0.00    +0.000 OA
ATOM      4  C   UNL     1       0.413  12.072  21.584  0.00  0.00    +0.000 C 
ATOM      5  C   UNL     1      -0.694  12.952  22.173  0.00  0.00    +0.000 C 
ATOM      6  C   UNL     1      -0.831  14.073  21.165  0.00  0.00    +0.000 C 
ATOM      7  O   UNL     1      -1.531  15.068  21.310  0.00  0.00    +0.000 OA
ATOM      8  C   UNL     1      -1.896  12.030  22.312  0.00  0.00    +0.000 C 
ATOM      9  N   UNL     1      -1.713  10.998  21.241  0.00  0.00    +0.000 NA
ATOM     10  C   UNL     1      -0.216  10.725  21.133  0.00  0.00    +0.000 C 
ATOM     11  C   UNL     1       0.162   9.664  22.175  0.00  0.00    +0.000 C 
ATOM     12  C   UNL     1       1.588   9.206  21.895  0.00  0.00    +0.000 C 
ATOM     13  C   UNL     1       1.526   8.338  20.656  0.00  0.00    +0.000 C 
ATOM     14  N   UNL     1       1.156   9.124  19.492  0.00  0.00    +0.000 N 
ATOM     15  C   UNL     1       0.218  10.197  19.614  0.00  0.00    +0.000 C 
ATOM     16  O   UNL     1      -0.213  10.799  18.625  0.00  0.00    +0.000 OA
ATOM     17  H   UNL     1      -2.019  11.384  20.344  0.00  0.00    +0.000 HD
ENDROOT
BRANCH   8  18
ATOM     18  C   UNL     1      -3.218  12.792  22.429  0.00  0.00    +0.000 A 
ATOM     19  C   UNL     1      -4.128  12.894  21.370  0.00  0.00    +0.000 A 
ATOM     20  C   UNL     1      -5.215  13.782  21.429  0.00  0.00    +0.000 A 
ATOM     21  C   UNL     1      -5.433  14.568  22.557  0.00  0.00    +0.000 A 
ATOM     22  C   UNL     1      -4.570  14.457  23.640  0.00  0.00    +0.000 A 
ATOM     23  C   UNL     1      -3.473  13.582  23.577  0.00  0.00    +0.000 A 
ENDBRANCH   8  18
BRANCH   1  25
ATOM     24  C   UNL     1       1.063  15.879  19.182  0.00  0.00    +0.000 C 
ATOM     25  C   UNL     1       0.131  14.690  18.974  0.00  0.00    +0.000 C 
ENDBRANCH   1  25
BRANCH  14  26
ATOM     26  C   UNL     1       1.977   8.866  18.255  0.00  0.00    +0.000 C 
BRANCH  26  27
ATOM     27  C   UNL     1       2.511   7.455  17.920  0.00  0.00    +0.000 A 
ATOM     28  C   UNL     1       3.855   7.256  17.578  0.00  0.00    +0.000 A 
ATOM     29  C   UNL     1       4.414   5.961  17.498  0.00  0.00    +0.000 A 
ATOM     30  C   UNL     1       3.644   4.831  17.753  0.00  0.00    +0.000 A 
ATOM     31  C   UNL     1       2.303   4.990  18.088  0.00  0.00    +0.000 A 
ATOM     32  C   UNL     1       1.746   6.285  18.174  0.00  0.00    +0.000 A 
ENDBRANCH  26  27
ENDBRANCH  14  26
TORSDOF 4
ENDMDL
MODEL 5
REMARK VINA RESULT:      -6.3      3.247      5.052
REMARK  Name = 
REMARK  5 active torsions:
REMARK  status: ('A' for Active; 'I' for Inactive)
REMARK    1  A    between atoms: C_1  and  C_2
REMARK    2  A    between atoms: C_2  and  N_3
REMARK    3  A    between atoms: C_10  and  C_11
REMARK    4  A    between atoms: N_22  and  C_23
REMARK    5  A    between atoms: C_23  and  C_24
REMARK                            x       y       z     vdW  Elec       q    Type
REMARK                         _______ _______ _______ _____ _____    ______ ____
ROOT
ATOM      1  N   UNL     1      -4.157  14.255  22.507  0.00  0.00    +0.000 N 
ATOM      2  C   UNL     1      -3.688  14.122  21.237  0.00  0.00    +0.000 C 
ATOM      3  O   UNL     1      -4.156  13.447  20.332  0.00  0.00    +0.000 OA
ATOM      4  C   UNL     1      -2.492  14.997  21.075  0.00  0.00    +0.000 C 
ATOM      5  C   UNL     1      -2.586  15.967  22.257  0.00  0.00    +0.000 C 
ATOM      6  C   UNL     1      -3.715  15.401  23.092  0.00  0.00    +0.000 C 
ATOM      7  O   UNL     1      -4.201  15.944  24.077  0.00  0.00    +0.000 OA
ATOM      8  C   UNL     1      -1.206  15.944  22.895  0.00  0.00    +0.000 C 
ATOM      9  N   UNL     1      -0.663  14.581  22.583  0.00  0.00    +0.000 NA
ATOM     10  C   UNL     1      -1.155  14.213  21.188  0.00  0.00    +0.000 C 
ATOM     11  C   UNL     1      -0.184  14.801  20.156  0.00  0.00    +0.000 C 
ATOM     12  C   UNL     1      -0.525  14.219  18.791  0.00  0.00    +0.000 C 
ATOM     13  C   UNL     1      -0.047  12.783  18.803  0.00  0.00    +0.000 C 
ATOM     14  N   UNL     1      -0.817  11.989  19.744  0.00  0.00    +0.000 N 
ATOM     15  C   UNL     1      -1.265  12.564  20.976  0.00  0.00    +0.000 C 
ATOM     16  O   UNL     1      -1.809  11.883  21.851  0.00  0.00    +0.000 OA
ATOM     17  H   UNL     1      -1.059  13.902  23.237  0.00  0.00    +0.000 HD
ENDROOT
BRANCH   8  18
ATOM     18  C   UNL     1      -1.211  16.459  24.337  0.00  0.00    +0.000 A 
ATOM     19  C   UNL     1      -1.258  17.822  24.652  0.00  0.00    +0.000 A 
ATOM     20  C   UNL     1      -1.031  18.272  25.963  0.00  0.00    +0.000 A 
ATOM     21  C   UNL     1      -0.779  17.370  26.994  0.00  0.00    +0.000 A 
ATOM     22  C   UNL     1      -0.769  16.009  26.717  0.00  0.00    +0.000 A 
ATOM     23  C   UNL     1      -0.979  15.558  25.404  0.00  0.00    +0.000 A 
ENDBRANCH   8  18
BRANCH   1  25
ATOM     24  C   UNL     1      -6.605  13.921  22.710  0.00  0.00    +0.000 C 
ATOM     25  C   UNL     1      -5.204  13.430  23.059  0.00  0.00    +0.000 C 
ENDBRANCH   1  25
BRANCH  14  26
ATOM     26  C   UNL     1      -1.272  10.647  19.233  0.00  0.00    +0.000 C 
BRANCH  26  27
ATOM     27  C   UNL     1      -2.256  10.526  18.047  0.00  0.00    +0.000 A 
ATOM     28  C   UNL     1      -3.429  11.292  18.004  0.00  0.00    +0.000 A 
ATOM     29  C   UNL     1      -4.216  11.371  16.833  0.00  0.00    +0.000 A 
ATOM     30  C   UNL     1      -3.856  10.685  15.679  0.00  0.00    +0.000 A 
ATOM     31  C   UNL     1      -2.702   9.908  15.688  0.00  0.00    +0.000 A 
ATOM     32  C   UNL     1      -1.911   9.833  16.856  0.00  0.00    +0.000 A 
ENDBRANCH  26  27
ENDBRANCH  14  26
TORSDOF 4
ENDMDL
MODEL 6
REMARK VINA RESULT:      -6.3      2.272      4.503
REMARK  Name = 
REMARK  5 active torsions:
REMARK  status: ('A' for Active; 'I' for Inactive)
REMARK    1  A    between atoms: C_1  and  C_2
REMARK    2  A    between atoms: C_2  and  N_3
REMARK    3  A    between atoms: C_10  and  C_11
REMARK    4  A    between atoms: N_22  and  C_23
REMARK    5  A    between atoms: C_23  and  C_24
REMARK                            x       y       z     vdW  Elec       q    Type
REMARK                         _______ _______ _______ _____ _____    ______ ____
ROOT
ATOM      1  N   UNL     1      -1.396  12.159  20.472  0.00  0.00    +0.000 N 
ATOM      2  C   UNL     1      -1.129  11.049  19.732  0.00  0.00    +0.000 C 
ATOM      3  O   UNL     1      -1.664   9.953  19.806  0.00  0.00    +0.000 OA
ATOM      4  C   UNL     1      -0.075  11.383  18.733  0.00  0.00    +0.000 C 
ATOM      5  C   UNL     1      -0.078  12.914  18.697  0.00  0.00    +0.000 C 
ATOM      6  C   UNL     1      -0.988  13.295  19.844  0.00  0.00    +0.000 C 
ATOM      7  O   UNL     1      -1.363  14.435  20.097  0.00  0.00    +0.000 OA
ATOM      8  C   UNL     1       1.383  13.313  18.843  0.00  0.00    +0.000 C 
ATOM      9  N   UNL     1       2.009  12.196  19.622  0.00  0.00    +0.000 NA
ATOM     10  C   UNL     1       1.338  10.904  19.167  0.00  0.00    +0.000 C 
ATOM     11  C   UNL     1       2.061  10.393  17.914  0.00  0.00    +0.000 C 
ATOM     12  C   UNL     1       1.565   8.983  17.618  0.00  0.00    +0.000 C 
ATOM     13  C   UNL     1       2.189   8.079  18.659  0.00  0.00    +0.000 C 
ATOM     14  N   UNL     1       1.670   8.380  19.982  0.00  0.00    +0.000 N 
ATOM     15  C   UNL     1       1.370   9.730  20.349  0.00  0.00    +0.000 C 
ATOM     16  O   UNL     1       1.052  10.034  21.504  0.00  0.00    +0.000 OA
ATOM     17  H   UNL     1       1.799  12.317  20.615  0.00  0.00    +0.000 HD
ENDROOT
BRANCH   8  18
ATOM     18  C   UNL     1       1.559  14.763  19.301  0.00  0.00    +0.000 A 
ATOM     19  C   UNL     1       1.328  15.856  18.456  0.00  0.00    +0.000 A 
ATOM     20  C   UNL     1       1.713  17.154  18.827  0.00  0.00    +0.000 A 
ATOM     21  C   UNL     1       2.313  17.396  20.061  0.00  0.00    +0.000 A 
ATOM     22  C   UNL     1       2.516  16.336  20.936  0.00  0.00    +0.000 A 
ATOM     23  C   UNL     1       2.146  15.035  20.560  0.00  0.00    +0.000 A 
ENDBRANCH   8  18
BRANCH   1  25
ATOM     24  C   UNL     1      -1.469  12.129  22.949  0.00  0.00    +0.000 C 
ATOM     25  C   UNL     1      -2.246  12.152  21.638  0.00  0.00    +0.000 C 
ENDBRANCH   1  25
BRANCH  14  26
ATOM     26  C   UNL     1       1.284   7.182  20.810  0.00  0.00    +0.000 C 
BRANCH  26  27
ATOM     27  C   UNL     1       1.824   5.770  20.487  0.00  0.00    +0.000 A 
ATOM     28  C   UNL     1       0.960   4.670  20.404  0.00  0.00    +0.000 A 
ATOM     29  C   UNL     1       1.392   3.429  19.886  0.00  0.00    +0.000 A 
ATOM     30  C   UNL     1       2.698   3.253  19.443  0.00  0.00    +0.000 A 
ATOM     31  C   UNL     1       3.587   4.320  19.518  0.00  0.00    +0.000 A 
ATOM     32  C   UNL     1       3.153   5.564  20.031  0.00  0.00    +0.000 A 
ENDBRANCH  26  27
ENDBRANCH  14  26
TORSDOF 4
ENDMDL
MODEL 7
REMARK VINA RESULT:      -6.3      5.137      9.218
REMARK  Name = 
REMARK  5 active torsions:
REMARK  status: ('A' for Active; 'I' for Inactive)
REMARK    1  A    between atoms: C_1  and  C_2
REMARK    2  A    between atoms: C_2  and  N_3
REMARK    3  A    between atoms: C_10  and  C_11
REMARK    4  A    between atoms: N_22  and  C_23
REMARK    5  A    between atoms: C_23  and  C_24
REMARK                            x       y       z     vdW  Elec       q    Type
REMARK                         _______ _______ _______ _____ _____    ______ ____
ROOT
ATOM      1  N   UNL     1       5.431  14.548  21.439  0.00  0.00    +0.000 N 
ATOM      2  C   UNL     1       4.356  15.352  21.218  0.00  0.00    +0.000 C 
ATOM      3  O   UNL     1       3.394  15.535  21.949  0.00  0.00    +0.000 OA
ATOM      4  C   UNL     1       4.544  16.056  19.917  0.00  0.00    +0.000 C 
ATOM      5  C   UNL     1       6.040  15.893  19.628  0.00  0.00    +0.000 C 
ATOM      6  C   UNL     1       6.505  14.924  20.693  0.00  0.00    +0.000 C 
ATOM      7  O   UNL     1       7.672  14.612  20.898  0.00  0.00    +0.000 OA
ATOM      8  C   UNL     1       6.110  15.393  18.193  0.00  0.00    +0.000 C 
ATOM      9  N   UNL     1       4.824  14.650  17.984  0.00  0.00    +0.000 NA
ATOM     10  C   UNL     1       3.744  15.398  18.758  0.00  0.00    +0.000 C 
ATOM     11  C   UNL     1       3.200  16.526  17.872  0.00  0.00    +0.000 C 
ATOM     12  C   UNL     1       1.956  17.100  18.537  0.00  0.00    +0.000 C 
ATOM     13  C   UNL     1       0.857  16.076  18.352  0.00  0.00    +0.000 C 
ATOM     14  N   UNL     1       1.148  14.864  19.098  0.00  0.00    +0.000 N 
ATOM     15  C   UNL     1       2.495  14.397  19.220  0.00  0.00    +0.000 C 
ATOM     16  O   UNL     1       2.761  13.307  19.735  0.00  0.00    +0.000 OA
ATOM     17  H   UNL     1       4.903  13.716  18.393  0.00  0.00    +0.000 HD
ENDROOT
BRANCH   8  18
ATOM     18  C   UNL     1       7.447  14.725  17.863  0.00  0.00    +0.000 A 
ATOM     19  C   UNL     1       7.572  13.346  17.653  0.00  0.00    +0.000 A 
ATOM     20  C   UNL     1       8.833  12.734  17.579  0.00  0.00    +0.000 A 
ATOM     21  C   UNL     1      10.000  13.488  17.686  0.00  0.00    +0.000 A 
ATOM     22  C   UNL     1       9.906  14.864  17.852  0.00  0.00    +0.000 A 
ATOM     23  C   UNL     1       8.645  15.476  17.943  0.00  0.00    +0.000 A 
ENDBRANCH   8  18
BRANCH   1  25
ATOM     24  C   UNL     1       5.883  14.234  23.856  0.00  0.00    +0.000 C 
ATOM     25  C   UNL     1       5.505  13.599  22.523  0.00  0.00    +0.000 C 
ENDBRANCH   1  25
BRANCH  14  26
ATOM     26  C   UNL     1      -0.007  14.299  19.882  0.00  0.00    +0.000 C 
BRANCH  26  27
ATOM     27  C   UNL     1      -0.601  12.909  19.556  0.00  0.00    +0.000 A 
ATOM     28  C   UNL     1      -1.199  12.655  18.314  0.00  0.00    +0.000 A 
ATOM     29  C   UNL     1      -1.534  11.344  17.910  0.00  0.00    +0.000 A 
ATOM     30  C   UNL     1      -1.285  10.253  18.736  0.00  0.00    +0.000 A 
ATOM     31  C   UNL     1      -0.700  10.468  19.979  0.00  0.00    +0.000 A 
ATOM     32  C   UNL     1      -0.359  11.779  20.382  0.00  0.00    +0.000 A 
ENDBRANCH  26  27
ENDBRANCH  14  26
TORSDOF 4
ENDMDL
MODEL 8
REMARK VINA RESULT:      -6.3      4.396      7.939
REMARK  Name = 
REMARK  5 active torsions:
REMARK  status: ('A' for Active; 'I' for Inactive)
REMARK    1  A    between atoms: C_1  and  C_2
REMARK    2  A    between atoms: C_2  and  N_3
REMARK    3  A    between atoms: C_10  and  C_11
REMARK    4  A    between atoms: N_22  and  C_23
REMARK    5  A    between atoms: C_23  and  C_24
REMARK                            x       y       z     vdW  Elec       q    Type
REMARK                         _______ _______ _______ _____ _____    ______ ____
ROOT
ATOM      1  N   UNL     1      -2.494  13.353  22.649  0.00  0.00    +0.000 N 
ATOM      2  C   UNL     1      -3.833  13.136  22.751  0.00  0.00    +0.000 C 
ATOM      3  O   UNL     1      -4.504  12.300  22.163  0.00  0.00    +0.000 OA
ATOM      4  C   UNL     1      -4.393  14.071  23.768  0.00  0.00    +0.000 C 
ATOM      5  C   UNL     1      -3.161  14.546  24.544  0.00  0.00    +0.000 C 
ATOM      6  C   UNL     1      -2.001  13.995  23.742  0.00  0.00    +0.000 C 
ATOM      7  O   UNL     1      -0.825  14.044  24.082  0.00  0.00    +0.000 OA
ATOM      8  C   UNL     1      -3.283  16.062  24.585  0.00  0.00    +0.000 C 
ATOM      9  N   UNL     1      -4.056  16.417  23.350  0.00  0.00    +0.000 NA
ATOM     10  C   UNL     1      -5.081  15.310  23.130  0.00  0.00    +0.000 C 
ATOM     11  C   UNL     1      -6.329  15.628  23.964  0.00  0.00    +0.000 C 
ATOM     12  C   UNL     1      -7.440  14.672  23.547  0.00  0.00    +0.000 C 
ATOM     13  C   UNL     1      -7.916  15.133  22.187  0.00  0.00    +0.000 C 
ATOM     14  N   UNL     1      -6.879  14.951  21.186  0.00  0.00    +0.000 N 
ATOM     15  C   UNL     1      -5.504  15.155  21.527  0.00  0.00    +0.000 C 
ATOM     16  O   UNL     1      -4.614  15.134  20.671  0.00  0.00    +0.000 OA
ATOM     17  H   UNL     1      -3.425  16.415  22.544  0.00  0.00    +0.000 HD
ENDROOT
BRANCH   8  18
ATOM     18  C   UNL     1      -1.952  16.756  24.886  0.00  0.00    +0.000 A 
ATOM     19  C   UNL     1      -1.216  17.436  23.908  0.00  0.00    +0.000 A 
ATOM     20  C   UNL     1       0.099  17.863  24.156  0.00  0.00    +0.000 A 
ATOM     21  C   UNL     1       0.698  17.646  25.394  0.00  0.00    +0.000 A 
ATOM     22  C   UNL     1      -0.024  17.012  26.397  0.00  0.00    +0.000 A 
ATOM     23  C   UNL     1      -1.333  16.569  26.146  0.00  0.00    +0.000 A 
ENDBRANCH   8  18
BRANCH   1  25
ATOM     24  C   UNL     1      -1.085  11.396  22.075  0.00  0.00    +0.000 C 
ATOM     25  C   UNL     1      -1.663  12.738  21.642  0.00  0.00    +0.000 C 
ENDBRANCH   1  25
BRANCH  14  26
ATOM     26  C   UNL     1      -7.338  14.340  19.888  0.00  0.00    +0.000 C 
BRANCH  26  27
ATOM     27  C   UNL     1      -7.373  12.809  19.684  0.00  0.00    +0.000 A 
ATOM     28  C   UNL     1      -6.917  12.230  18.492  0.00  0.00    +0.000 A 
ATOM     29  C   UNL     1      -6.723  10.836  18.375  0.00  0.00    +0.000 A 
ATOM     30  C   UNL     1      -6.983   9.983  19.442  0.00  0.00    +0.000 A 
ATOM     31  C   UNL     1      -7.445  10.521  20.638  0.00  0.00    +0.000 A 
ATOM     32  C   UNL     1      -7.634  11.916  20.758  0.00  0.00    +0.000 A 
ENDBRANCH  26  27
ENDBRANCH  14  26
TORSDOF 4
ENDMDL
MODEL 9
REMARK VINA RESULT:      -6.2      3.314      5.339
REMARK  Name = 
REMARK  5 active torsions:
REMARK  status: ('A' for Active; 'I' for Inactive)
REMARK    1  A    between atoms: C_1  and  C_2
REMARK    2  A    between atoms: C_2  and  N_3
REMARK    3  A    between atoms: C_10  and  C_11
REMARK    4  A    between atoms: N_22  and  C_23
REMARK    5  A    between atoms: C_23  and  C_24
REMARK                            x       y       z     vdW  Elec       q    Type
REMARK                         _______ _______ _______ _____ _____    ______ ____
ROOT
ATOM      1  N   UNL     1      -4.039  14.661  22.719  0.00  0.00    +0.000 N 
ATOM      2  C   UNL     1      -3.584  14.536  21.442  0.00  0.00    +0.000 C 
ATOM      3  O   UNL     1      -4.089  13.902  20.527  0.00  0.00    +0.000 OA
ATOM      4  C   UNL     1      -2.352  15.360  21.290  0.00  0.00    +0.000 C 
ATOM      5  C   UNL     1      -2.395  16.307  22.494  0.00  0.00    +0.000 C 
ATOM      6  C   UNL     1      -3.542  15.773  23.325  0.00  0.00    +0.000 C 
ATOM      7  O   UNL     1      -3.997  16.316  24.325  0.00  0.00    +0.000 OA
ATOM      8  C   UNL     1      -1.013  16.207  23.121  0.00  0.00    +0.000 C 
ATOM      9  N   UNL     1      -0.534  14.829  22.775  0.00  0.00    +0.000 NA
ATOM     10  C   UNL     1      -1.051  14.514  21.376  0.00  0.00    +0.000 C 
ATOM     11  C   UNL     1      -0.060  15.081  20.350  0.00  0.00    +0.000 C 
ATOM     12  C   UNL     1      -0.437  14.545  18.975  0.00  0.00    +0.000 C 
ATOM     13  C   UNL     1      -0.023  13.089  18.952  0.00  0.00    +0.000 C 
ATOM     14  N   UNL     1      -0.822  12.310  19.882  0.00  0.00    +0.000 N 
ATOM     15  C   UNL     1      -1.236  12.877  21.129  0.00  0.00    +0.000 C 
ATOM     16  O   UNL     1      -1.803  12.201  21.993  0.00  0.00    +0.000 OA
ATOM     17  H   UNL     1      -0.955  14.154  23.417  0.00  0.00    +0.000 HD
ENDROOT
BRANCH   8  18
ATOM     18  C   UNL     1      -0.985  16.690  24.573  0.00  0.00    +0.000 A 
ATOM     19  C   UNL     1      -0.976  18.047  24.919  0.00  0.00    +0.000 A 
ATOM     20  C   UNL     1      -0.720  18.459  26.237  0.00  0.00    +0.000 A 
ATOM     21  C   UNL     1      -0.495  17.525  27.246  0.00  0.00    +0.000 A 
ATOM     22  C   UNL     1      -0.541  16.170  26.939  0.00  0.00    +0.000 A 
ATOM     23  C   UNL     1      -0.779  15.757  25.619  0.00  0.00    +0.000 A 
ENDBRANCH   8  18
BRANCH   1  25
ATOM     24  C   UNL     1      -4.645  12.762  24.191  0.00  0.00    +0.000 C 
ATOM     25  C   UNL     1      -5.118  13.872  23.260  0.00  0.00    +0.000 C 
ENDBRANCH   1  25
BRANCH  14  26
ATOM     26  C   UNL     1      -1.340  11.001  19.345  0.00  0.00    +0.000 C 
BRANCH  26  27
ATOM     27  C   UNL     1      -2.164  10.934  18.040  0.00  0.00    +0.000 A 
ATOM     28  C   UNL     1      -1.819  10.042  17.015  0.00  0.00    +0.000 A 
ATOM     29  C   UNL     1      -2.685   9.798  15.925  0.00  0.00    +0.000 A 
ATOM     30  C   UNL     1      -3.913  10.441  15.828  0.00  0.00    +0.000 A 
ATOM     31  C   UNL     1      -4.286  11.340  16.822  0.00  0.00    +0.000 A 
ATOM     32  C   UNL     1      -3.424  11.580  17.915  0.00  0.00    +0.000 A 
ENDBRANCH  26  27
ENDBRANCH  14  26
TORSDOF 4
ENDMDL
