MODEL 1
REMARK VINA RESULT:      -7.2      0.000      0.000
REMARK  Name = 
REMARK  11 active torsions:
REMARK  status: ('A' for Active; 'I' for Inactive)
REMARK    1  A    between atoms: C_1  and  C_2
REMARK    2  A    between atoms: C_2  and  C_3
REMARK    3  A    between atoms: C_2  and  N_4
REMARK    4  A    between atoms: N_4  and  S_5
REMARK    5  A    between atoms: S_5  and  C_8
REMARK    6  A    between atoms: C_11  and  C_12
REMARK    7  A    between atoms: C_13  and  C_14
REMARK    8  A    between atoms: C_19  and  O_20
REMARK    9  A    between atoms: O_20  and  C_21
REMARK   10  A    between atoms: N_26  and  C_27
REMARK   11  A    between atoms: C_27  and  C_28
REMARK                            x       y       z     vdW  Elec       q    Type
REMARK                         _______ _______ _______ _____ _____    ______ ____
ROOT
ATOM      1  C   UNL     1       0.298   9.961  19.983  0.00  0.00    +0.000 A 
ATOM      2  C   UNL     1       0.321  10.291  21.344  0.00  0.00    +0.000 A 
ATOM      3  C   UNL     1      -0.667  11.261  21.622  0.00  0.00    +0.000 A 
ATOM      4  C   UNL     1      -1.105  11.883  22.810  0.00  0.00    +0.000 A 
ATOM      5  C   UNL     1      -2.128  12.831  22.765  0.00  0.00    +0.000 A 
ATOM      6  C   UNL     1      -2.728  13.151  21.554  0.00  0.00    +0.000 A 
ATOM      7  C   UNL     1      -2.294  12.548  20.364  0.00  0.00    +0.000 A 
ATOM      8  C   UNL     1      -1.257  11.596  20.409  0.00  0.00    +0.000 A 
ATOM      9  N   UNL     1      -0.638  10.837  19.410  0.00  0.00    +0.000 N 
ENDROOT
BRANCH   1  13
ATOM     10  C   UNL     1       3.000   7.072  18.473  0.00  0.00    +0.000 A 
ATOM     11  C   UNL     1       2.708   8.145  17.646  0.00  0.00    +0.000 A 
ATOM     12  C   UNL     1       1.783   9.093  18.104  0.00  0.00    +0.000 A 
ATOM     13  C   UNL     1       1.128   8.917  19.328  0.00  0.00    +0.000 A 
ATOM     14  C   UNL     1       1.427   7.723  20.010  0.00  0.00    +0.000 A 
ATOM     15  N   UNL     1       2.379   6.831  19.651  0.00  0.00    +0.000 NA
BRANCH  10  16
ATOM     16  S   UNL     1       4.454   6.048  18.197  0.00  0.00    +0.000 S 
ATOM     17  O   UNL     1       4.938   5.594  19.487  0.00  0.00    +0.000 OA
ATOM     18  O   UNL     1       5.312   6.758  17.274  0.00  0.00    +0.000 OA
BRANCH  16  19
ATOM     19  N   UNL     1       3.800   4.698  17.372  0.00  0.00    +0.000 NA
ATOM     20  H   UNL     1       3.334   5.031  16.521  0.00  0.00    +0.000 HD
BRANCH  19  22
ATOM     21  C   UNL     1       1.523   3.767  17.838  0.00  0.00    +0.000 C 
ATOM     22  C   UNL     1       3.013   3.699  18.141  0.00  0.00    +0.000 C 
ATOM     23  C   UNL     1       3.536   2.300  17.807  0.00  0.00    +0.000 C 
ENDBRANCH  19  22
ENDBRANCH  16  19
ENDBRANCH  10  16
ENDBRANCH   1  13
BRANCH   2  24
ATOM     24  C   UNL     1       1.177   9.735  22.351  0.00  0.00    +0.000 C 
ATOM     25  N   UNL     1       1.882   9.317  23.173  0.00  0.00    +0.000 NA
ENDBRANCH   2  24
BRANCH   6  26
ATOM     26  O   UNL     1      -3.735  14.064  21.395  0.00  0.00    +0.000 OA
BRANCH  26  27
ATOM     27  C   UNL     1      -4.944  13.548  20.861  0.00  0.00    +0.000 C 
ATOM     28  F   UNL     1      -5.359  12.511  21.630  0.00  0.00    +0.000 F 
ATOM     29  F   UNL     1      -5.883  14.520  20.978  0.00  0.00    +0.000 F 
ENDBRANCH  26  27
ENDBRANCH   6  26
BRANCH   9  30
ATOM     30  C   UNL     1      -1.089  10.877  18.008  0.00  0.00    +0.000 C 
BRANCH  30  31
ATOM     31  C   UNL     1      -2.120   9.833  17.641  0.00  0.00    +0.000 C 
ATOM     32  C   UNL     1      -3.601  10.109  17.568  0.00  0.00    +0.000 C 
ATOM     33  C   UNL     1      -2.818   9.898  16.302  0.00  0.00    +0.000 C 
ENDBRANCH  30  31
ENDBRANCH   9  30
TORSDOF 9
ENDMDL
MODEL 2
REMARK VINA RESULT:      -7.1      1.575      2.005
REMARK  Name = 
REMARK  11 active torsions:
REMARK  status: ('A' for Active; 'I' for Inactive)
REMARK    1  A    between atoms: C_1  and  C_2
REMARK    2  A    between atoms: C_2  and  C_3
REMARK    3  A    between atoms: C_2  and  N_4
REMARK    4  A    between atoms: N_4  and  S_5
REMARK    5  A    between atoms: S_5  and  C_8
REMARK    6  A    between atoms: C_11  and  C_12
REMARK    7  A    between atoms: C_13  and  C_14
REMARK    8  A    between atoms: C_19  and  O_20
REMARK    9  A    between atoms: O_20  and  C_21
REMARK   10  A    between atoms: N_26  and  C_27
REMARK   11  A    between atoms: C_27  and  C_28
REMARK                            x       y       z     vdW  Elec       q    Type
REMARK                         _______ _______ _______ _____ _____    ______ ____
ROOT
ATOM      1  C   UNL     1      -0.121  10.182  20.527  0.00  0.00    +0.000 A 
ATOM      2  C   UNL     1      -0.523  10.533  21.821  0.00  0.00    +0.000 A 
ATOM      3  C   UNL     1      -1.550  11.500  21.762  0.00  0.00    +0.000 A 
ATOM      4  C   UNL     1      -2.338  12.138  22.744  0.00  0.00    +0.000 A 
ATOM      5  C   UNL     1      -3.298  13.078  22.366  0.00  0.00    +0.000 A 
ATOM      6  C   UNL     1      -3.491  13.375  21.023  0.00  0.00    +0.000 A 
ATOM      7  C   UNL     1      -2.707  12.756  20.038  0.00  0.00    +0.000 A 
ATOM      8  C   UNL     1      -1.733  11.812  20.419  0.00  0.00    +0.000 A 
ATOM      9  N   UNL     1      -0.833  11.042  19.676  0.00  0.00    +0.000 N 
ENDROOT
BRANCH   1  13
ATOM     10  C   UNL     1       2.402   7.064  19.172  0.00  0.00    +0.000 A 
ATOM     11  C   UNL     1       1.903   6.946  20.460  0.00  0.00    +0.000 A 
ATOM     12  C   UNL     1       1.101   7.986  20.949  0.00  0.00    +0.000 A 
ATOM     13  C   UNL     1       0.874   9.134  20.180  0.00  0.00    +0.000 A 
ATOM     14  C   UNL     1       1.541   9.176  18.941  0.00  0.00    +0.000 A 
ATOM     15  N   UNL     1       2.245   8.159  18.393  0.00  0.00    +0.000 NA
BRANCH  10  16
ATOM     16  S   UNL     1       3.066   5.639  18.294  0.00  0.00    +0.000 S 
ATOM     17  O   UNL     1       4.154   6.095  17.450  0.00  0.00    +0.000 OA
ATOM     18  O   UNL     1       1.943   4.907  17.751  0.00  0.00    +0.000 OA
BRANCH  16  19
ATOM     19  N   UNL     1       3.736   4.705  19.563  0.00  0.00    +0.000 NA
ATOM     20  H   UNL     1       4.758   4.748  19.495  0.00  0.00    +0.000 HD
BRANCH  19  22
ATOM     21  C   UNL     1       4.300   2.289  19.897  0.00  0.00    +0.000 C 
ATOM     22  C   UNL     1       3.202   3.340  19.808  0.00  0.00    +0.000 C 
ATOM     23  C   UNL     1       2.403   3.351  21.113  0.00  0.00    +0.000 C 
ENDBRANCH  19  22
ENDBRANCH  16  19
ENDBRANCH  10  16
ENDBRANCH   1  13
BRANCH   2  24
ATOM     24  C   UNL     1      -0.022   9.999  23.054  0.00  0.00    +0.000 C 
ATOM     25  N   UNL     1       0.406   9.547  24.034  0.00  0.00    +0.000 NA
ENDBRANCH   2  24
BRANCH   6  26
ATOM     26  O   UNL     1      -4.400  14.278  20.543  0.00  0.00    +0.000 OA
BRANCH  26  27
ATOM     27  C   UNL     1      -4.180  15.625  20.929  0.00  0.00    +0.000 C 
ATOM     28  F   UNL     1      -2.884  15.946  20.692  0.00  0.00    +0.000 F 
ATOM     29  F   UNL     1      -4.931  16.406  20.112  0.00  0.00    +0.000 F 
ENDBRANCH  26  27
ENDBRANCH   6  26
BRANCH   9  30
ATOM     30  C   UNL     1      -0.825  11.057  18.203  0.00  0.00    +0.000 C 
BRANCH  30  31
ATOM     31  C   UNL     1      -1.641   9.964  17.551  0.00  0.00    +0.000 C 
ATOM     32  C   UNL     1      -3.147   9.901  17.601  0.00  0.00    +0.000 C 
ATOM     33  C   UNL     1      -2.458  10.264  16.315  0.00  0.00    +0.000 C 
ENDBRANCH  30  31
ENDBRANCH   9  30
TORSDOF 9
ENDMDL
MODEL 3
REMARK VINA RESULT:      -7.1      1.632      2.096
REMARK  Name = 
REMARK  11 active torsions:
REMARK  status: ('A' for Active; 'I' for Inactive)
REMARK    1  A    between atoms: C_1  and  C_2
REMARK    2  A    between atoms: C_2  and  C_3
REMARK    3  A    between atoms: C_2  and  N_4
REMARK    4  A    between atoms: N_4  and  S_5
REMARK    5  A    between atoms: S_5  and  C_8
REMARK    6  A    between atoms: C_11  and  C_12
REMARK    7  A    between atoms: C_13  and  C_14
REMARK    8  A    between atoms: C_19  and  O_20
REMARK    9  A    between atoms: O_20  and  C_21
REMARK   10  A    between atoms: N_26  and  C_27
REMARK   11  A    between atoms: C_27  and  C_28
REMARK                            x       y       z     vdW  Elec       q    Type
REMARK                         _______ _______ _______ _____ _____    ______ ____
ROOT
ATOM      1  C   UNL     1      -0.114  10.139  20.597  0.00  0.00    +0.000 A 
ATOM      2  C   UNL     1      -0.524  10.486  21.890  0.00  0.00    +0.000 A 
ATOM      3  C   UNL     1      -1.554  11.449  21.827  0.00  0.00    +0.000 A 
ATOM      4  C   UNL     1      -2.349  12.082  22.806  0.00  0.00    +0.000 A 
ATOM      5  C   UNL     1      -3.311  13.019  22.425  0.00  0.00    +0.000 A 
ATOM      6  C   UNL     1      -3.499  13.318  21.082  0.00  0.00    +0.000 A 
ATOM      7  C   UNL     1      -2.707  12.704  20.099  0.00  0.00    +0.000 A 
ATOM      8  C   UNL     1      -1.732  11.763  20.484  0.00  0.00    +0.000 A 
ATOM      9  N   UNL     1      -0.826  10.997  19.744  0.00  0.00    +0.000 N 
ENDROOT
BRANCH   1  13
ATOM     10  C   UNL     1       2.437   7.046  19.236  0.00  0.00    +0.000 A 
ATOM     11  C   UNL     1       1.893   6.893  20.502  0.00  0.00    +0.000 A 
ATOM     12  C   UNL     1       1.080   7.923  20.994  0.00  0.00    +0.000 A 
ATOM     13  C   UNL     1       0.886   9.094  20.253  0.00  0.00    +0.000 A 
ATOM     14  C   UNL     1       1.596   9.169  19.040  0.00  0.00    +0.000 A 
ATOM     15  N   UNL     1       2.313   8.165  18.486  0.00  0.00    +0.000 NA
BRANCH  10  16
ATOM     16  S   UNL     1       3.123   5.644  18.339  0.00  0.00    +0.000 S 
ATOM     17  O   UNL     1       2.039   4.979  17.642  0.00  0.00    +0.000 OA
ATOM     18  O   UNL     1       3.986   4.928  19.252  0.00  0.00    +0.000 OA
BRANCH  16  19
ATOM     19  N   UNL     1       4.115   6.407  17.170  0.00  0.00    +0.000 NA
ATOM     20  H   UNL     1       3.544   6.614  16.344  0.00  0.00    +0.000 HD
BRANCH  19  22
ATOM     21  C   UNL     1       5.569   5.404  15.395  0.00  0.00    +0.000 C 
ATOM     22  C   UNL     1       5.441   5.813  16.856  0.00  0.00    +0.000 C 
ATOM     23  C   UNL     1       6.529   6.834  17.195  0.00  0.00    +0.000 C 
ENDBRANCH  19  22
ENDBRANCH  16  19
ENDBRANCH  10  16
ENDBRANCH   1  13
BRANCH   2  24
ATOM     24  C   UNL     1      -0.027   9.951  23.124  0.00  0.00    +0.000 C 
ATOM     25  N   UNL     1       0.360   9.544  24.140  0.00  0.00    +0.000 NA
ENDBRANCH   2  24
BRANCH   6  26
ATOM     26  O   UNL     1      -4.409  14.218  20.599  0.00  0.00    +0.000 OA
BRANCH  26  27
ATOM     27  C   UNL     1      -5.534  13.653  19.945  0.00  0.00    +0.000 C 
ATOM     28  F   UNL     1      -6.009  12.626  20.692  0.00  0.00    +0.000 F 
ATOM     29  F   UNL     1      -6.504  14.601  19.923  0.00  0.00    +0.000 F 
ENDBRANCH  26  27
ENDBRANCH   6  26
BRANCH   9  30
ATOM     30  C   UNL     1      -0.810  11.015  18.271  0.00  0.00    +0.000 C 
BRANCH  30  31
ATOM     31  C   UNL     1      -1.608   9.912  17.613  0.00  0.00    +0.000 C 
ATOM     32  C   UNL     1      -3.114   9.832  17.649  0.00  0.00    +0.000 C 
ATOM     33  C   UNL     1      -2.417  10.201  16.369  0.00  0.00    +0.000 C 
ENDBRANCH  30  31
ENDBRANCH   9  30
TORSDOF 9
ENDMDL
MODEL 4
REMARK VINA RESULT:      -7.1      1.130      1.494
REMARK  Name = 
REMARK  11 active torsions:
REMARK  status: ('A' for Active; 'I' for Inactive)
REMARK    1  A    between atoms: C_1  and  C_2
REMARK    2  A    between atoms: C_2  and  C_3
REMARK    3  A    between atoms: C_2  and  N_4
REMARK    4  A    between atoms: N_4  and  S_5
REMARK    5  A    between atoms: S_5  and  C_8
REMARK    6  A    between atoms: C_11  and  C_12
REMARK    7  A    between atoms: C_13  and  C_14
REMARK    8  A    between atoms: C_19  and  O_20
REMARK    9  A    between atoms: O_20  and  C_21
REMARK   10  A    between atoms: N_26  and  C_27
REMARK   11  A    between atoms: C_27  and  C_28
REMARK                            x       y       z     vdW  Elec       q    Type
REMARK                         _______ _______ _______ _____ _____    ______ ____
ROOT
ATOM      1  C   UNL     1      -0.081  10.101  20.542  0.00  0.00    +0.000 A 
ATOM      2  C   UNL     1      -0.512  10.456  21.827  0.00  0.00    +0.000 A 
ATOM      3  C   UNL     1      -1.566  11.391  21.740  0.00  0.00    +0.000 A 
ATOM      4  C   UNL     1      -2.385  12.017  22.703  0.00  0.00    +0.000 A 
ATOM      5  C   UNL     1      -3.367  12.924  22.300  0.00  0.00    +0.000 A 
ATOM      6  C   UNL     1      -3.550  13.198  20.952  0.00  0.00    +0.000 A 
ATOM      7  C   UNL     1      -2.734  12.592  19.985  0.00  0.00    +0.000 A 
ATOM      8  C   UNL     1      -1.739  11.681  20.392  0.00  0.00    +0.000 A 
ATOM      9  N   UNL     1      -0.806  10.929  19.670  0.00  0.00    +0.000 N 
ENDROOT
BRANCH   1  13
ATOM     10  C   UNL     1       2.568   7.066  19.242  0.00  0.00    +0.000 A 
ATOM     11  C   UNL     1       1.991   6.895  20.490  0.00  0.00    +0.000 A 
ATOM     12  C   UNL     1       1.145   7.907  20.964  0.00  0.00    +0.000 A 
ATOM     13  C   UNL     1       0.949   9.079  20.223  0.00  0.00    +0.000 A 
ATOM     14  C   UNL     1       1.691   9.173  19.030  0.00  0.00    +0.000 A 
ATOM     15  N   UNL     1       2.443   8.186  18.493  0.00  0.00    +0.000 NA
BRANCH  10  16
ATOM     16  S   UNL     1       3.307   5.681  18.358  0.00  0.00    +0.000 S 
ATOM     17  O   UNL     1       4.234   5.017  19.253  0.00  0.00    +0.000 OA
ATOM     18  O   UNL     1       3.725   6.172  17.063  0.00  0.00    +0.000 OA
BRANCH  16  19
ATOM     19  N   UNL     1       1.966   4.644  18.117  0.00  0.00    +0.000 NA
ATOM     20  H   UNL     1       1.108   5.168  18.319  0.00  0.00    +0.000 HD
BRANCH  19  22
ATOM     21  C   UNL     1       0.637   2.837  19.230  0.00  0.00    +0.000 C 
ATOM     22  C   UNL     1       1.997   3.282  18.711  0.00  0.00    +0.000 C 
ATOM     23  C   UNL     1       2.483   2.294  17.648  0.00  0.00    +0.000 C 
ENDBRANCH  19  22
ENDBRANCH  16  19
ENDBRANCH  10  16
ENDBRANCH   1  13
BRANCH   2  24
ATOM     24  C   UNL     1      -0.012   9.952  23.073  0.00  0.00    +0.000 C 
ATOM     25  N   UNL     1       0.380   9.572  24.097  0.00  0.00    +0.000 NA
ENDBRANCH   2  24
BRANCH   6  26
ATOM     26  O   UNL     1      -4.479  14.068  20.447  0.00  0.00    +0.000 OA
BRANCH  26  27
ATOM     27  C   UNL     1      -5.645  14.237  21.237  0.00  0.00    +0.000 C 
ATOM     28  F   UNL     1      -6.299  15.352  20.827  0.00  0.00    +0.000 F 
ATOM     29  F   UNL     1      -6.463  13.187  20.976  0.00  0.00    +0.000 F 
ENDBRANCH  26  27
ENDBRANCH   6  26
BRANCH   9  30
ATOM     30  C   UNL     1      -0.778  10.926  18.198  0.00  0.00    +0.000 C 
BRANCH  30  31
ATOM     31  C   UNL     1      -1.598   9.836  17.547  0.00  0.00    +0.000 C 
ATOM     32  C   UNL     1      -3.104   9.773  17.608  0.00  0.00    +0.000 C 
ATOM     33  C   UNL     1      -2.424  10.141  16.319  0.00  0.00    +0.000 C 
ENDBRANCH  30  31
ENDBRANCH   9  30
TORSDOF 9
ENDMDL
MODEL 5
REMARK VINA RESULT:      -7.0      2.208      2.896
REMARK  Name = 
REMARK  11 active torsions:
REMARK  status: ('A' for Active; 'I' for Inactive)
REMARK    1  A    between atoms: C_1  and  C_2
REMARK    2  A    between atoms: C_2  and  C_3
REMARK    3  A    between atoms: C_2  and  N_4
REMARK    4  A    between atoms: N_4  and  S_5
REMARK    5  A    between atoms: S_5  and  C_8
REMARK    6  A    between atoms: C_11  and  C_12
REMARK    7  A    between atoms: C_13  and  C_14
REMARK    8  A    between atoms: C_19  and  O_20
REMARK    9  A    between atoms: O_20  and  C_21
REMARK   10  A    between atoms: N_26  and  C_27
REMARK   11  A    between atoms: C_27  and  C_28
REMARK                            x       y       z     vdW  Elec       q    Type
REMARK                         _______ _______ _______ _____ _____    ______ ____
ROOT
ATOM      1  C   UNL     1      -0.802  10.778  19.440  0.00  0.00    +0.000 A 
ATOM      2  C   UNL     1      -0.902  11.881  20.296  0.00  0.00    +0.000 A 
ATOM      3  C   UNL     1      -2.188  12.454  20.196  0.00  0.00    +0.000 A 
ATOM      4  C   UNL     1      -2.829  13.519  20.864  0.00  0.00    +0.000 A 
ATOM      5  C   UNL     1      -4.141  13.862  20.534  0.00  0.00    +0.000 A 
ATOM      6  C   UNL     1      -4.824  13.146  19.560  0.00  0.00    +0.000 A 
ATOM      7  C   UNL     1      -4.195  12.092  18.880  0.00  0.00    +0.000 A 
ATOM      8  C   UNL     1      -2.869  11.750  19.208  0.00  0.00    +0.000 A 
ATOM      9  N   UNL     1      -2.008  10.761  18.721  0.00  0.00    +0.000 N 
ENDROOT
BRANCH   1  13
ATOM     10  C   UNL     1       2.233   7.884  18.853  0.00  0.00    +0.000 A 
ATOM     11  C   UNL     1       1.818   8.096  20.158  0.00  0.00    +0.000 A 
ATOM     12  C   UNL     1       0.846   9.080  20.385  0.00  0.00    +0.000 A 
ATOM     13  C   UNL     1       0.366   9.865  19.331  0.00  0.00    +0.000 A 
ATOM     14  C   UNL     1       0.961   9.627  18.077  0.00  0.00    +0.000 A 
ATOM     15  N   UNL     1       1.830   8.629  17.797  0.00  0.00    +0.000 NA
BRANCH  10  16
ATOM     16  S   UNL     1       3.130   6.394  18.388  0.00  0.00    +0.000 S 
ATOM     17  O   UNL     1       2.202   5.496  17.728  0.00  0.00    +0.000 OA
ATOM     18  O   UNL     1       3.897   5.976  19.541  0.00  0.00    +0.000 OA
BRANCH  16  19
ATOM     19  N   UNL     1       4.228   6.979  17.212  0.00  0.00    +0.000 NA
ATOM     20  H   UNL     1       3.696   7.268  16.385  0.00  0.00    +0.000 HD
BRANCH  19  22
ATOM     21  C   UNL     1       5.491   5.729  15.448  0.00  0.00    +0.000 C 
ATOM     22  C   UNL     1       5.441   6.179  16.902  0.00  0.00    +0.000 C 
ATOM     23  C   UNL     1       6.679   7.022  17.215  0.00  0.00    +0.000 C 
ENDBRANCH  19  22
ENDBRANCH  16  19
ENDBRANCH  10  16
ENDBRANCH   1  13
BRANCH   2  24
ATOM     24  C   UNL     1       0.108  12.376  21.185  0.00  0.00    +0.000 C 
ATOM     25  N   UNL     1       0.908  12.806  21.908  0.00  0.00    +0.000 NA
ENDBRANCH   2  24
BRANCH   6  26
ATOM     26  O   UNL     1      -6.108  13.397  19.158  0.00  0.00    +0.000 OA
BRANCH  26  27
ATOM     27  C   UNL     1      -6.862  12.254  18.788  0.00  0.00    +0.000 C 
ATOM     28  F   UNL     1      -7.916  12.127  19.632  0.00  0.00    +0.000 F 
ATOM     29  F   UNL     1      -7.376  12.493  17.555  0.00  0.00    +0.000 F 
ENDBRANCH  26  27
ENDBRANCH   6  26
BRANCH   9  30
ATOM     30  C   UNL     1      -2.446   9.768  17.725  0.00  0.00    +0.000 C 
BRANCH  30  31
ATOM     31  C   UNL     1      -2.317  10.212  16.285  0.00  0.00    +0.000 C 
ATOM     32  C   UNL     1      -2.995   9.516  15.131  0.00  0.00    +0.000 C 
ATOM     33  C   UNL     1      -3.489  10.862  15.585  0.00  0.00    +0.000 C 
ENDBRANCH  30  31
ENDBRANCH   9  30
TORSDOF 9
ENDMDL
MODEL 6
REMARK VINA RESULT:      -6.9      1.582      2.125
REMARK  Name = 
REMARK  11 active torsions:
REMARK  status: ('A' for Active; 'I' for Inactive)
REMARK    1  A    between atoms: C_1  and  C_2
REMARK    2  A    between atoms: C_2  and  C_3
REMARK    3  A    between atoms: C_2  and  N_4
REMARK    4  A    between atoms: N_4  and  S_5
REMARK    5  A    between atoms: S_5  and  C_8
REMARK    6  A    between atoms: C_11  and  C_12
REMARK    7  A    between atoms: C_13  and  C_14
REMARK    8  A    between atoms: C_19  and  O_20
REMARK    9  A    between atoms: O_20  and  C_21
REMARK   10  A    between atoms: N_26  and  C_27
REMARK   11  A    between atoms: C_27  and  C_28
REMARK                            x       y       z     vdW  Elec       q    Type
REMARK                         _______ _______ _______ _____ _____    ______ ____
ROOT
ATOM      1  C   UNL     1       0.286   9.973  19.977  0.00  0.00    +0.000 A 
ATOM      2  C   UNL     1       0.344  10.316  21.334  0.00  0.00    +0.000 A 
ATOM      3  C   UNL     1      -0.620  11.307  21.622  0.00  0.00    +0.000 A 
ATOM      4  C   UNL     1      -1.021  11.949  22.813  0.00  0.00    +0.000 A 
ATOM      5  C   UNL     1      -2.027  12.915  22.780  0.00  0.00    +0.000 A 
ATOM      6  C   UNL     1      -2.646  13.234  21.579  0.00  0.00    +0.000 A 
ATOM      7  C   UNL     1      -2.249  12.612  20.386  0.00  0.00    +0.000 A 
ATOM      8  C   UNL     1      -1.229  11.641  20.419  0.00  0.00    +0.000 A 
ATOM      9  N   UNL     1      -0.646  10.860  19.414  0.00  0.00    +0.000 N 
ENDROOT
BRANCH   1  13
ATOM     10  C   UNL     1       2.885   6.995  18.461  0.00  0.00    +0.000 A 
ATOM     11  C   UNL     1       2.673   8.105  17.658  0.00  0.00    +0.000 A 
ATOM     12  C   UNL     1       1.783   9.085  18.117  0.00  0.00    +0.000 A 
ATOM     13  C   UNL     1       1.082   8.907  19.315  0.00  0.00    +0.000 A 
ATOM     14  C   UNL     1       1.300   7.680  19.969  0.00  0.00    +0.000 A 
ATOM     15  N   UNL     1       2.216   6.752  19.612  0.00  0.00    +0.000 NA
BRANCH  10  16
ATOM     16  S   UNL     1       4.294   5.906  18.197  0.00  0.00    +0.000 S 
ATOM     17  O   UNL     1       3.929   4.932  17.186  0.00  0.00    +0.000 OA
ATOM     18  O   UNL     1       4.774   5.500  19.499  0.00  0.00    +0.000 OA
BRANCH  16  19
ATOM     19  N   UNL     1       5.454   6.966  17.517  0.00  0.00    +0.000 NA
ATOM     20  H   UNL     1       5.146   7.224  16.574  0.00  0.00    +0.000 HD
BRANCH  19  22
ATOM     21  C   UNL     1       7.323   5.633  16.518  0.00  0.00    +0.000 C 
ATOM     22  C   UNL     1       6.893   6.607  17.606  0.00  0.00    +0.000 C 
ATOM     23  C   UNL     1       7.726   7.886  17.500  0.00  0.00    +0.000 C 
ENDBRANCH  19  22
ENDBRANCH  16  19
ENDBRANCH  10  16
ENDBRANCH   1  13
BRANCH   2  24
ATOM     24  C   UNL     1       1.211   9.754  22.328  0.00  0.00    +0.000 C 
ATOM     25  N   UNL     1       1.936   9.294  23.109  0.00  0.00    +0.000 NA
ENDBRANCH   2  24
BRANCH   6  26
ATOM     26  O   UNL     1      -3.640  14.165  21.431  0.00  0.00    +0.000 OA
BRANCH  26  27
ATOM     27  C   UNL     1      -4.863  13.855  22.080  0.00  0.00    +0.000 C 
ATOM     28  F   UNL     1      -5.864  14.555  21.492  0.00  0.00    +0.000 F 
ATOM     29  F   UNL     1      -5.118  12.543  21.854  0.00  0.00    +0.000 F 
ENDBRANCH  26  27
ENDBRANCH   6  26
BRANCH   9  30
ATOM     30  C   UNL     1      -1.126  10.895  18.022  0.00  0.00    +0.000 C 
BRANCH  30  31
ATOM     31  C   UNL     1      -2.197   9.880  17.693  0.00  0.00    +0.000 C 
ATOM     32  C   UNL     1      -3.655  10.228  17.523  0.00  0.00    +0.000 C 
ATOM     33  C   UNL     1      -2.829   9.866  16.320  0.00  0.00    +0.000 C 
ENDBRANCH  30  31
ENDBRANCH   9  30
TORSDOF 9
ENDMDL
MODEL 7
REMARK VINA RESULT:      -6.9      1.038      1.130
REMARK  Name = 
REMARK  11 active torsions:
REMARK  status: ('A' for Active; 'I' for Inactive)
REMARK    1  A    between atoms: C_1  and  C_2
REMARK    2  A    between atoms: C_2  and  C_3
REMARK    3  A    between atoms: C_2  and  N_4
REMARK    4  A    between atoms: N_4  and  S_5
REMARK    5  A    between atoms: S_5  and  C_8
REMARK    6  A    between atoms: C_11  and  C_12
REMARK    7  A    between atoms: C_13  and  C_14
REMARK    8  A    between atoms: C_19  and  O_20
REMARK    9  A    between atoms: O_20  and  C_21
REMARK   10  A    between atoms: N_26  and  C_27
REMARK   11  A    between atoms: C_27  and  C_28
REMARK                            x       y       z     vdW  Elec       q    Type
REMARK                         _______ _______ _______ _____ _____    ______ ____
ROOT
ATOM      1  C   UNL     1       0.339  10.009  19.943  0.00  0.00    +0.000 A 
ATOM      2  C   UNL     1       0.349  10.338  21.304  0.00  0.00    +0.000 A 
ATOM      3  C   UNL     1      -0.625  11.324  21.569  0.00  0.00    +0.000 A 
ATOM      4  C   UNL     1      -1.069  11.953  22.752  0.00  0.00    +0.000 A 
ATOM      5  C   UNL     1      -2.075  12.918  22.694  0.00  0.00    +0.000 A 
ATOM      6  C   UNL     1      -2.653  13.249  21.476  0.00  0.00    +0.000 A 
ATOM      7  C   UNL     1      -2.214  12.639  20.291  0.00  0.00    +0.000 A 
ATOM      8  C   UNL     1      -1.194  11.670  20.349  0.00  0.00    +0.000 A 
ATOM      9  N   UNL     1      -0.575  10.901  19.357  0.00  0.00    +0.000 N 
ENDROOT
BRANCH   1  13
ATOM     10  C   UNL     1       3.014   7.081  18.463  0.00  0.00    +0.000 A 
ATOM     11  C   UNL     1       2.737   8.151  17.626  0.00  0.00    +0.000 A 
ATOM     12  C   UNL     1       1.821   9.112  18.074  0.00  0.00    +0.000 A 
ATOM     13  C   UNL     1       1.160   8.952  19.297  0.00  0.00    +0.000 A 
ATOM     14  C   UNL     1       1.444   7.759  19.989  0.00  0.00    +0.000 A 
ATOM     15  N   UNL     1       2.387   6.855  19.640  0.00  0.00    +0.000 NA
BRANCH  10  16
ATOM     16  S   UNL     1       4.459   6.039  18.199  0.00  0.00    +0.000 S 
ATOM     17  O   UNL     1       4.929   5.583  19.492  0.00  0.00    +0.000 OA
ATOM     18  O   UNL     1       5.331   6.736  17.279  0.00  0.00    +0.000 OA
BRANCH  16  19
ATOM     19  N   UNL     1       3.794   4.694  17.373  0.00  0.00    +0.000 NA
ATOM     20  H   UNL     1       3.330   5.031  16.523  0.00  0.00    +0.000 HD
BRANCH  19  22
ATOM     21  C   UNL     1       1.508   3.792  17.853  0.00  0.00    +0.000 C 
ATOM     22  C   UNL     1       3.000   3.701  18.142  0.00  0.00    +0.000 C 
ATOM     23  C   UNL     1       3.500   2.297  17.794  0.00  0.00    +0.000 C 
ENDBRANCH  19  22
ENDBRANCH  16  19
ENDBRANCH  10  16
ENDBRANCH   1  13
BRANCH   2  24
ATOM     24  C   UNL     1       1.183   9.767  22.322  0.00  0.00    +0.000 C 
ATOM     25  N   UNL     1       1.867   9.337  23.154  0.00  0.00    +0.000 NA
ENDBRANCH   2  24
BRANCH   6  26
ATOM     26  O   UNL     1      -3.643  14.179  21.304  0.00  0.00    +0.000 OA
BRANCH  26  27
ATOM     27  C   UNL     1      -3.246  15.529  21.482  0.00  0.00    +0.000 C 
ATOM     28  F   UNL     1      -3.367  15.855  22.792  0.00  0.00    +0.000 F 
ATOM     29  F   UNL     1      -1.925  15.602  21.181  0.00  0.00    +0.000 F 
ENDBRANCH  26  27
ENDBRANCH   6  26
BRANCH   9  30
ATOM     30  C   UNL     1      -1.006  10.949  17.950  0.00  0.00    +0.000 C 
BRANCH  30  31
ATOM     31  C   UNL     1      -1.961   9.851  17.539  0.00  0.00    +0.000 C 
ATOM     32  C   UNL     1      -3.462   9.987  17.585  0.00  0.00    +0.000 C 
ATOM     33  C   UNL     1      -2.754   9.978  16.259  0.00  0.00    +0.000 C 
ENDBRANCH  30  31
ENDBRANCH   9  30
TORSDOF 9
ENDMDL
MODEL 8
REMARK VINA RESULT:      -6.9      1.759      2.304
REMARK  Name = 
REMARK  11 active torsions:
REMARK  status: ('A' for Active; 'I' for Inactive)
REMARK    1  A    between atoms: C_1  and  C_2
REMARK    2  A    between atoms: C_2  and  C_3
REMARK    3  A    between atoms: C_2  and  N_4
REMARK    4  A    between atoms: N_4  and  S_5
REMARK    5  A    between atoms: S_5  and  C_8
REMARK    6  A    between atoms: C_11  and  C_12
REMARK    7  A    between atoms: C_13  and  C_14
REMARK    8  A    between atoms: C_19  and  O_20
REMARK    9  A    between atoms: O_20  and  C_21
REMARK   10  A    between atoms: N_26  and  C_27
REMARK   11  A    between atoms: C_27  and  C_28
REMARK                            x       y       z     vdW  Elec       q    Type
REMARK                         _______ _______ _______ _____ _____    ______ ____
ROOT
ATOM      1  C   UNL     1      -0.646  10.779  19.481  0.00  0.00    +0.000 A 
ATOM      2  C   UNL     1      -0.680  11.954  20.241  0.00  0.00    +0.000 A 
ATOM      3  C   UNL     1      -1.970  12.526  20.186  0.00  0.00    +0.000 A 
ATOM      4  C   UNL     1      -2.557  13.652  20.803  0.00  0.00    +0.000 A 
ATOM      5  C   UNL     1      -3.889  13.974  20.542  0.00  0.00    +0.000 A 
ATOM      6  C   UNL     1      -4.644  13.180  19.689  0.00  0.00    +0.000 A 
ATOM      7  C   UNL     1      -4.069  12.066  19.060  0.00  0.00    +0.000 A 
ATOM      8  C   UNL     1      -2.722  11.744  19.318  0.00  0.00    +0.000 A 
ATOM      9  N   UNL     1      -1.902  10.708  18.858  0.00  0.00    +0.000 N 
ENDROOT
BRANCH   1  13
ATOM     10  C   UNL     1       2.372   7.882  18.827  0.00  0.00    +0.000 A 
ATOM     11  C   UNL     1       1.854   7.962  20.109  0.00  0.00    +0.000 A 
ATOM     12  C   UNL     1       0.885   8.943  20.364  0.00  0.00    +0.000 A 
ATOM     13  C   UNL     1       0.510   9.851  19.367  0.00  0.00    +0.000 A 
ATOM     14  C   UNL     1       1.204   9.735  18.148  0.00  0.00    +0.000 A 
ATOM     15  N   UNL     1       2.074   8.749  17.831  0.00  0.00    +0.000 NA
BRANCH  10  16
ATOM     16  S   UNL     1       3.277   6.427  18.274  0.00  0.00    +0.000 S 
ATOM     17  O   UNL     1       4.084   5.950  19.380  0.00  0.00    +0.000 OA
ATOM     18  O   UNL     1       3.864   6.746  16.991  0.00  0.00    +0.000 OA
BRANCH  16  19
ATOM     19  N   UNL     1       2.020   5.294  18.008  0.00  0.00    +0.000 NA
ATOM     20  H   UNL     1       1.161   5.656  18.434  0.00  0.00    +0.000 HD
BRANCH  19  22
ATOM     21  C   UNL     1       0.999   3.074  18.553  0.00  0.00    +0.000 C 
ATOM     22  C   UNL     1       2.278   3.858  18.291  0.00  0.00    +0.000 C 
ATOM     23  C   UNL     1       3.012   3.246  17.095  0.00  0.00    +0.000 C 
ENDBRANCH  19  22
ENDBRANCH  16  19
ENDBRANCH  10  16
ENDBRANCH   1  13
BRANCH   2  24
ATOM     24  C   UNL     1       0.394  12.518  21.006  0.00  0.00    +0.000 C 
ATOM     25  N   UNL     1       1.253  13.006  21.616  0.00  0.00    +0.000 NA
ENDBRANCH   2  24
BRANCH   6  26
ATOM     26  O   UNL     1      -5.954  13.404  19.362  0.00  0.00    +0.000 OA
BRANCH  26  27
ATOM     27  C   UNL     1      -6.786  12.255  19.363  0.00  0.00    +0.000 C 
ATOM     28  F   UNL     1      -7.916  12.528  20.059  0.00  0.00    +0.000 F 
ATOM     29  F   UNL     1      -7.161  12.030  18.079  0.00  0.00    +0.000 F 
ENDBRANCH  26  27
ENDBRANCH   6  26
BRANCH   9  30
ATOM     30  C   UNL     1      -2.414   9.635  17.989  0.00  0.00    +0.000 C 
BRANCH  30  31
ATOM     31  C   UNL     1      -2.138   9.824  16.514  0.00  0.00    +0.000 C 
ATOM     32  C   UNL     1      -3.189   9.681  15.442  0.00  0.00    +0.000 C 
ATOM     33  C   UNL     1      -2.665  11.045  15.796  0.00  0.00    +0.000 C 
ENDBRANCH  30  31
ENDBRANCH   9  30
TORSDOF 9
ENDMDL
MODEL 9
REMARK VINA RESULT:      -6.9      2.050      2.704
REMARK  Name = 
REMARK  11 active torsions:
REMARK  status: ('A' for Active; 'I' for Inactive)
REMARK    1  A    between atoms: C_1  and  C_2
REMARK    2  A    between atoms: C_2  and  C_3
REMARK    3  A    between atoms: C_2  and  N_4
REMARK    4  A    between atoms: N_4  and  S_5
REMARK    5  A    between atoms: S_5  and  C_8
REMARK    6  A    between atoms: C_11  and  C_12
REMARK    7  A    between atoms: C_13  and  C_14
REMARK    8  A    between atoms: C_19  and  O_20
REMARK    9  A    between atoms: O_20  and  C_21
REMARK   10  A    between atoms: N_26  and  C_27
REMARK   11  A    between atoms: C_27  and  C_28
REMARK                            x       y       z     vdW  Elec       q    Type
REMARK                         _______ _______ _______ _____ _____    ______ ____
ROOT
ATOM      1  C   UNL     1      -0.782  10.797  19.444  0.00  0.00    +0.000 A 
ATOM      2  C   UNL     1      -0.812  11.964  20.217  0.00  0.00    +0.000 A 
ATOM      3  C   UNL     1      -2.095  12.548  20.159  0.00  0.00    +0.000 A 
ATOM      4  C   UNL     1      -2.677  13.672  20.785  0.00  0.00    +0.000 A 
ATOM      5  C   UNL     1      -4.005  14.008  20.519  0.00  0.00    +0.000 A 
ATOM      6  C   UNL     1      -4.761  13.230  19.653  0.00  0.00    +0.000 A 
ATOM      7  C   UNL     1      -4.192  12.117  19.015  0.00  0.00    +0.000 A 
ATOM      8  C   UNL     1      -2.849  11.781  19.278  0.00  0.00    +0.000 A 
ATOM      9  N   UNL     1      -2.035  10.744  18.812  0.00  0.00    +0.000 N 
ENDROOT
BRANCH   1  13
ATOM     10  C   UNL     1       2.190   7.844  18.833  0.00  0.00    +0.000 A 
ATOM     11  C   UNL     1       1.783   8.057  20.141  0.00  0.00    +0.000 A 
ATOM     12  C   UNL     1       0.832   9.059  20.376  0.00  0.00    +0.000 A 
ATOM     13  C   UNL     1       0.366   9.861  19.327  0.00  0.00    +0.000 A 
ATOM     14  C   UNL     1       0.954   9.618  18.071  0.00  0.00    +0.000 A 
ATOM     15  N   UNL     1       1.801   8.604  17.783  0.00  0.00    +0.000 NA
BRANCH  10  16
ATOM     16  S   UNL     1       3.054   6.338  18.358  0.00  0.00    +0.000 S 
ATOM     17  O   UNL     1       4.345   6.711  17.811  0.00  0.00    +0.000 OA
ATOM     18  O   UNL     1       2.122   5.525  17.609  0.00  0.00    +0.000 OA
BRANCH  16  19
ATOM     19  N   UNL     1       3.319   5.575  19.868  0.00  0.00    +0.000 NA
ATOM     20  H   UNL     1       4.292   5.739  20.149  0.00  0.00    +0.000 HD
BRANCH  19  22
ATOM     21  C   UNL     1       3.990   3.163  19.884  0.00  0.00    +0.000 C 
ATOM     22  C   UNL     1       2.864   4.173  20.053  0.00  0.00    +0.000 C 
ATOM     23  C   UNL     1       2.262   4.033  21.453  0.00  0.00    +0.000 C 
ENDBRANCH  19  22
ENDBRANCH  16  19
ENDBRANCH  10  16
ENDBRANCH   1  13
BRANCH   2  24
ATOM     24  C   UNL     1       0.263  12.511  20.994  0.00  0.00    +0.000 C 
ATOM     25  N   UNL     1       1.109  12.967  21.644  0.00  0.00    +0.000 NA
ENDBRANCH   2  24
BRANCH   6  26
ATOM     26  O   UNL     1      -6.067  13.469  19.321  0.00  0.00    +0.000 OA
BRANCH  26  27
ATOM     27  C   UNL     1      -6.500  12.889  18.100  0.00  0.00    +0.000 C 
ATOM     28  F   UNL     1      -7.822  12.604  18.191  0.00  0.00    +0.000 F 
ATOM     29  F   UNL     1      -6.369  13.834  17.137  0.00  0.00    +0.000 F 
ENDBRANCH  26  27
ENDBRANCH   6  26
BRANCH   9  30
ATOM     30  C   UNL     1      -2.550   9.685  17.928  0.00  0.00    +0.000 C 
BRANCH  30  31
ATOM     31  C   UNL     1      -3.321  10.178  16.725  0.00  0.00    +0.000 C 
ATOM     32  C   UNL     1      -2.752  11.125  15.698  0.00  0.00    +0.000 C 
ATOM     33  C   UNL     1      -2.967   9.680  15.342  0.00  0.00    +0.000 C 
ENDBRANCH  30  31
ENDBRANCH   9  30
TORSDOF 9
ENDMDL
