MODEL 1
REMARK VINA RESULT:      -8.5      0.000      0.000
REMARK  Name = 
REMARK  7 active torsions:
REMARK  status: ('A' for Active; 'I' for Inactive)
REMARK    1  A    between atoms: C_2  and  C_3
REMARK    2  A    between atoms: C_2  and  C_14
REMARK    3  A    between atoms: C_3  and  N_4
REMARK    4  A    between atoms: C_6  and  C_7
REMARK    5  A    between atoms: C_7  and  O_8
REMARK    6  A    between atoms: C_7  and  C_9
REMARK    7  A    between atoms: C_14  and  C_15
REMARK                            x       y       z     vdW  Elec       q    Type
REMARK                         _______ _______ _______ _____ _____    ______ ____
ROOT
ATOM      1  C   UNL     1       5.273   4.552  19.198  0.00  0.00    +0.000 C 
ENDROOT
BRANCH   1   2
ATOM      2  N   UNL     1       6.003   4.509  17.953  0.00  0.00    +0.000 N 
ATOM      3  C   UNL     1       5.493   4.497  16.690  0.00  0.00    +0.000 A 
ATOM      4  C   UNL     1       6.605   4.591  15.880  0.00  0.00    +0.000 A 
ATOM      5  N   UNL     1       7.731   4.545  16.670  0.00  0.00    +0.000 NA
ATOM      6  N   UNL     1       7.347   4.461  17.939  0.00  0.00    +0.000 NA
BRANCH   4   7
ATOM      7  C   UNL     1       6.668   4.807  14.407  0.00  0.00    +0.000 C 
BRANCH   7   8
ATOM      8  C   UNL     1       6.422   3.637  13.495  0.00  0.00    +0.000 C 
ATOM      9  C   UNL     1       5.291   3.626  12.493  0.00  0.00    +0.000 C 
ATOM     10  C   UNL     1       6.715   3.647  12.013  0.00  0.00    +0.000 C 
ENDBRANCH   7   8
BRANCH   7  11
ATOM     11  O   UNL     1       7.916   5.395  14.028  0.00  0.00    +0.000 OA
ATOM     12  H   UNL     1       8.520   4.644  13.883  0.00  0.00    +0.000 HD
ENDBRANCH   7  11
ENDBRANCH   4   7
ENDBRANCH   1   2
BRANCH   1  14
ATOM     13  O   UNL     1       4.798   2.249  19.837  0.00  0.00    +0.000 OA
ATOM     14  C   UNL     1       4.414   3.327  19.395  0.00  0.00    +0.000 C 
BRANCH  14  15
ATOM     15  C   UNL     1       2.974   3.480  18.979  0.00  0.00    +0.000 C 
ATOM     16  C   UNL     1       2.531   2.691  17.751  0.00  0.00    +0.000 C 
ATOM     17  C   UNL     1       2.049   2.277  19.105  0.00  0.00    +0.000 C 
BRANCH  15  18
ATOM     18  C   UNL     1       2.446   4.893  19.174  0.00  0.00    +0.000 A 
ATOM     19  C   UNL     1       2.569   5.834  18.134  0.00  0.00    +0.000 A 
ATOM     20  C   UNL     1       2.355   7.195  18.356  0.00  0.00    +0.000 A 
ATOM     21  C   UNL     1       1.983   7.640  19.620  0.00  0.00    +0.000 A 
ATOM     22  C   UNL     1       1.785   6.722  20.648  0.00  0.00    +0.000 A 
ATOM     23  C   UNL     1       2.009   5.362  20.425  0.00  0.00    +0.000 A 
ENDBRANCH  15  18
ENDBRANCH  14  15
ENDBRANCH   1  14
TORSDOF 7
ENDMDL
MODEL 2
REMARK VINA RESULT:      -8.3      0.506      1.143
REMARK  Name = 
REMARK  7 active torsions:
REMARK  status: ('A' for Active; 'I' for Inactive)
REMARK    1  A    between atoms: C_2  and  C_3
REMARK    2  A    between atoms: C_2  and  C_14
REMARK    3  A    between atoms: C_3  and  N_4
REMARK    4  A    between atoms: C_6  and  C_7
REMARK    5  A    between atoms: C_7  and  O_8
REMARK    6  A    between atoms: C_7  and  C_9
REMARK    7  A    between atoms: C_14  and  C_15
REMARK                            x       y       z     vdW  Elec       q    Type
REMARK                         _______ _______ _______ _____ _____    ______ ____
ROOT
ATOM      1  C   UNL     1       5.434   4.822  19.155  0.00  0.00    +0.000 C 
ENDROOT
BRANCH   1   2
ATOM      2  N   UNL     1       6.123   4.676  17.894  0.00  0.00    +0.000 N 
ATOM      3  C   UNL     1       5.583   4.713  16.643  0.00  0.00    +0.000 A 
ATOM      4  C   UNL     1       6.678   4.660  15.806  0.00  0.00    +0.000 A 
ATOM      5  N   UNL     1       7.809   4.485  16.571  0.00  0.00    +0.000 NA
ATOM      6  N   UNL     1       7.449   4.463  17.850  0.00  0.00    +0.000 NA
BRANCH   4   7
ATOM      7  C   UNL     1       6.731   4.851  14.329  0.00  0.00    +0.000 C 
BRANCH   7   8
ATOM      8  C   UNL     1       6.507   3.659  13.440  0.00  0.00    +0.000 C 
ATOM      9  C   UNL     1       5.354   3.590  12.467  0.00  0.00    +0.000 C 
ATOM     10  C   UNL     1       6.765   3.658  11.952  0.00  0.00    +0.000 C 
ENDBRANCH   7   8
BRANCH   7  11
ATOM     11  O   UNL     1       7.964   5.459  13.935  0.00  0.00    +0.000 OA
ATOM     12  H   UNL     1       7.983   5.394  12.963  0.00  0.00    +0.000 HD
ENDBRANCH   7  11
ENDBRANCH   4   7
ENDBRANCH   1   2
BRANCH   1  14
ATOM     13  O   UNL     1       4.608   2.610  19.754  0.00  0.00    +0.000 OA
ATOM     14  C   UNL     1       4.392   3.751  19.360  0.00  0.00    +0.000 C 
BRANCH  14  15
ATOM     15  C   UNL     1       2.981   4.155  19.018  0.00  0.00    +0.000 C 
ATOM     16  C   UNL     1       2.349   3.469  17.810  0.00  0.00    +0.000 C 
ATOM     17  C   UNL     1       1.869   3.127  19.185  0.00  0.00    +0.000 C 
BRANCH  15  18
ATOM     18  C   UNL     1       2.714   5.634  19.246  0.00  0.00    +0.000 A 
ATOM     19  C   UNL     1       2.143   6.062  20.460  0.00  0.00    +0.000 A 
ATOM     20  C   UNL     1       1.633   7.351  20.610  0.00  0.00    +0.000 A 
ATOM     21  C   UNL     1       1.711   8.253  19.554  0.00  0.00    +0.000 A 
ATOM     22  C   UNL     1       2.336   7.879  18.367  0.00  0.00    +0.000 A 
ATOM     23  C   UNL     1       2.837   6.584  18.218  0.00  0.00    +0.000 A 
ENDBRANCH  15  18
ENDBRANCH  14  15
ENDBRANCH   1  14
TORSDOF 7
ENDMDL
MODEL 3
REMARK VINA RESULT:      -7.9      1.405      1.726
REMARK  Name = 
REMARK  7 active torsions:
REMARK  status: ('A' for Active; 'I' for Inactive)
REMARK    1  A    between atoms: C_2  and  C_3
REMARK    2  A    between atoms: C_2  and  C_14
REMARK    3  A    between atoms: C_3  and  N_4
REMARK    4  A    between atoms: C_6  and  C_7
REMARK    5  A    between atoms: C_7  and  O_8
REMARK    6  A    between atoms: C_7  and  C_9
REMARK    7  A    between atoms: C_14  and  C_15
REMARK                            x       y       z     vdW  Elec       q    Type
REMARK                         _______ _______ _______ _____ _____    ______ ____
ROOT
ATOM      1  C   UNL     1       4.425   3.091  19.915  0.00  0.00    +0.000 C 
ENDROOT
BRANCH   1   2
ATOM      2  N   UNL     1       5.239   3.952  19.088  0.00  0.00    +0.000 N 
ATOM      3  C   UNL     1       5.457   3.852  17.747  0.00  0.00    +0.000 A 
ATOM      4  C   UNL     1       6.183   4.985  17.443  0.00  0.00    +0.000 A 
ATOM      5  N   UNL     1       6.464   5.656  18.611  0.00  0.00    +0.000 NA
ATOM      6  N   UNL     1       5.907   4.992  19.618  0.00  0.00    +0.000 NA
BRANCH   4   7
ATOM      7  C   UNL     1       6.556   5.518  16.102  0.00  0.00    +0.000 C 
BRANCH   7   8
ATOM      8  C   UNL     1       6.973   4.549  15.031  0.00  0.00    +0.000 C 
ATOM      9  C   UNL     1       6.006   4.047  13.984  0.00  0.00    +0.000 C 
ATOM     10  C   UNL     1       7.157   4.926  13.579  0.00  0.00    +0.000 C 
ENDBRANCH   7   8
BRANCH   7  11
ATOM     11  O   UNL     1       7.582   6.509  16.213  0.00  0.00    +0.000 OA
ATOM     12  H   UNL     1       7.111   7.359  16.285  0.00  0.00    +0.000 HD
ENDBRANCH   7  11
ENDBRANCH   4   7
ENDBRANCH   1   2
BRANCH   1  14
ATOM     13  O   UNL     1       3.057   1.865  18.315  0.00  0.00    +0.000 OA
ATOM     14  C   UNL     1       3.148   2.683  19.224  0.00  0.00    +0.000 C 
BRANCH  14  15
ATOM     15  C   UNL     1       1.905   3.383  19.710  0.00  0.00    +0.000 C 
ATOM     16  C   UNL     1       0.596   2.608  19.593  0.00  0.00    +0.000 C 
ATOM     17  C   UNL     1       1.197   2.836  20.943  0.00  0.00    +0.000 C 
BRANCH  15  18
ATOM     18  C   UNL     1       1.906   4.874  19.409  0.00  0.00    +0.000 A 
ATOM     19  C   UNL     1       2.189   5.322  18.105  0.00  0.00    +0.000 A 
ATOM     20  C   UNL     1       2.470   6.663  17.842  0.00  0.00    +0.000 A 
ATOM     21  C   UNL     1       2.444   7.592  18.877  0.00  0.00    +0.000 A 
ATOM     22  C   UNL     1       2.097   7.187  20.163  0.00  0.00    +0.000 A 
ATOM     23  C   UNL     1       1.825   5.841  20.424  0.00  0.00    +0.000 A 
ENDBRANCH  15  18
ENDBRANCH  14  15
ENDBRANCH   1  14
TORSDOF 7
ENDMDL
MODEL 4
REMARK VINA RESULT:      -7.7      1.545      3.067
REMARK  Name = 
REMARK  7 active torsions:
REMARK  status: ('A' for Active; 'I' for Inactive)
REMARK    1  A    between atoms: C_2  and  C_3
REMARK    2  A    between atoms: C_2  and  C_14
REMARK    3  A    between atoms: C_3  and  N_4
REMARK    4  A    between atoms: C_6  and  C_7
REMARK    5  A    between atoms: C_7  and  O_8
REMARK    6  A    between atoms: C_7  and  C_9
REMARK    7  A    between atoms: C_14  and  C_15
REMARK                            x       y       z     vdW  Elec       q    Type
REMARK                         _______ _______ _______ _____ _____    ______ ____
ROOT
ATOM      1  C   UNL     1       5.344   6.824  17.366  0.00  0.00    +0.000 C 
ENDROOT
BRANCH   1   2
ATOM      2  N   UNL     1       5.965   6.098  16.283  0.00  0.00    +0.000 N 
ATOM      3  C   UNL     1       5.356   5.538  15.201  0.00  0.00    +0.000 A 
ATOM      4  C   UNL     1       6.404   5.097  14.420  0.00  0.00    +0.000 A 
ATOM      5  N   UNL     1       7.581   5.306  15.102  0.00  0.00    +0.000 NA
ATOM      6  N   UNL     1       7.294   5.892  16.260  0.00  0.00    +0.000 NA
BRANCH   4   7
ATOM      7  C   UNL     1       6.367   4.566  13.028  0.00  0.00    +0.000 C 
BRANCH   7   8
ATOM      8  C   UNL     1       5.645   3.272  12.769  0.00  0.00    +0.000 C 
ATOM      9  C   UNL     1       4.588   3.145  11.697  0.00  0.00    +0.000 C 
ATOM     10  C   UNL     1       5.887   2.401  11.559  0.00  0.00    +0.000 C 
ENDBRANCH   7   8
BRANCH   7  11
ATOM     11  O   UNL     1       7.688   4.438  12.494  0.00  0.00    +0.000 OA
ATOM     12  H   UNL     1       7.565   4.151  11.570  0.00  0.00    +0.000 HD
ENDBRANCH   7  11
ENDBRANCH   4   7
ENDBRANCH   1   2
BRANCH   1  14
ATOM     13  O   UNL     1       5.214   5.052  19.033  0.00  0.00    +0.000 OA
ATOM     14  C   UNL     1       4.660   5.903  18.346  0.00  0.00    +0.000 C 
BRANCH  14  15
ATOM     15  C   UNL     1       3.164   6.064  18.440  0.00  0.00    +0.000 C 
ATOM     16  C   UNL     1       2.655   7.210  19.309  0.00  0.00    +0.000 C 
ATOM     17  C   UNL     1       2.526   7.301  17.821  0.00  0.00    +0.000 C 
BRANCH  15  18
ATOM     18  C   UNL     1       2.424   4.736  18.467  0.00  0.00    +0.000 A 
ATOM     19  C   UNL     1       1.589   4.424  19.556  0.00  0.00    +0.000 A 
ATOM     20  C   UNL     1       1.112   3.129  19.760  0.00  0.00    +0.000 A 
ATOM     21  C   UNL     1       1.438   2.121  18.858  0.00  0.00    +0.000 A 
ATOM     22  C   UNL     1       2.204   2.419  17.734  0.00  0.00    +0.000 A 
ATOM     23  C   UNL     1       2.687   3.715  17.538  0.00  0.00    +0.000 A 
ENDBRANCH  15  18
ENDBRANCH  14  15
ENDBRANCH   1  14
TORSDOF 7
ENDMDL
MODEL 5
REMARK VINA RESULT:      -7.7      1.143      1.775
REMARK  Name = 
REMARK  7 active torsions:
REMARK  status: ('A' for Active; 'I' for Inactive)
REMARK    1  A    between atoms: C_2  and  C_3
REMARK    2  A    between atoms: C_2  and  C_14
REMARK    3  A    between atoms: C_3  and  N_4
REMARK    4  A    between atoms: C_6  and  C_7
REMARK    5  A    between atoms: C_7  and  O_8
REMARK    6  A    between atoms: C_7  and  C_9
REMARK    7  A    between atoms: C_14  and  C_15
REMARK                            x       y       z     vdW  Elec       q    Type
REMARK                         _______ _______ _______ _____ _____    ______ ____
ROOT
ATOM      1  C   UNL     1       4.570   3.779  19.127  0.00  0.00    +0.000 C 
ENDROOT
BRANCH   1   2
ATOM      2  N   UNL     1       5.282   4.375  18.020  0.00  0.00    +0.000 N 
ATOM      3  C   UNL     1       5.459   3.860  16.771  0.00  0.00    +0.000 A 
ATOM      4  C   UNL     1       6.080   4.876  16.077  0.00  0.00    +0.000 A 
ATOM      5  N   UNL     1       6.349   5.906  16.949  0.00  0.00    +0.000 NA
ATOM      6  N   UNL     1       5.883   5.571  18.147  0.00  0.00    +0.000 NA
BRANCH   4   7
ATOM      7  C   UNL     1       6.361   4.969  14.616  0.00  0.00    +0.000 C 
BRANCH   7   8
ATOM      8  C   UNL     1       6.193   3.737  13.770  0.00  0.00    +0.000 C 
ATOM      9  C   UNL     1       5.163   3.656  12.668  0.00  0.00    +0.000 C 
ATOM     10  C   UNL     1       6.627   3.641  12.326  0.00  0.00    +0.000 C 
ENDBRANCH   7   8
BRANCH   7  11
ATOM     11  O   UNL     1       7.675   5.481  14.378  0.00  0.00    +0.000 OA
ATOM     12  H   UNL     1       8.008   5.751  15.254  0.00  0.00    +0.000 HD
ENDBRANCH   7  11
ENDBRANCH   4   7
ENDBRANCH   1   2
BRANCH   1  14
ATOM     13  O   UNL     1       2.605   2.970  17.935  0.00  0.00    +0.000 OA
ATOM     14  C   UNL     1       3.096   3.635  18.841  0.00  0.00    +0.000 C 
BRANCH  14  15
ATOM     15  C   UNL     1       2.186   4.409  19.760  0.00  0.00    +0.000 C 
ATOM     16  C   UNL     1       0.850   3.758  20.103  0.00  0.00    +0.000 C 
ATOM     17  C   UNL     1       1.913   3.852  21.151  0.00  0.00    +0.000 C 
BRANCH  15  18
ATOM     18  C   UNL     1       2.233   5.909  19.516  0.00  0.00    +0.000 A 
ATOM     19  C   UNL     1       1.947   6.797  20.571  0.00  0.00    +0.000 A 
ATOM     20  C   UNL     1       1.710   8.151  20.338  0.00  0.00    +0.000 A 
ATOM     21  C   UNL     1       1.784   8.654  19.043  0.00  0.00    +0.000 A 
ATOM     22  C   UNL     1       2.135   7.812  17.992  0.00  0.00    +0.000 A 
ATOM     23  C   UNL     1       2.362   6.454  18.228  0.00  0.00    +0.000 A 
ENDBRANCH  15  18
ENDBRANCH  14  15
ENDBRANCH   1  14
TORSDOF 7
ENDMDL
MODEL 6
REMARK VINA RESULT:      -7.6      2.411      4.050
REMARK  Name = 
REMARK  7 active torsions:
REMARK  status: ('A' for Active; 'I' for Inactive)
REMARK    1  A    between atoms: C_2  and  C_3
REMARK    2  A    between atoms: C_2  and  C_14
REMARK    3  A    between atoms: C_3  and  N_4
REMARK    4  A    between atoms: C_6  and  C_7
REMARK    5  A    between atoms: C_7  and  O_8
REMARK    6  A    between atoms: C_7  and  C_9
REMARK    7  A    between atoms: C_14  and  C_15
REMARK                            x       y       z     vdW  Elec       q    Type
REMARK                         _______ _______ _______ _____ _____    ______ ____
ROOT
ATOM      1  C   UNL     1       7.163   5.163  15.645  0.00  0.00    +0.000 C 
ENDROOT
BRANCH   1   2
ATOM      2  N   UNL     1       6.998   4.679  14.293  0.00  0.00    +0.000 N 
ATOM      3  C   UNL     1       6.160   3.697  13.858  0.00  0.00    +0.000 A 
ATOM      4  C   UNL     1       6.295   3.728  12.486  0.00  0.00    +0.000 A 
ATOM      5  N   UNL     1       7.275   4.637  12.160  0.00  0.00    +0.000 NA
ATOM      6  N   UNL     1       7.722   5.190  13.282  0.00  0.00    +0.000 NA
BRANCH   4   7
ATOM      7  C   UNL     1       5.492   3.010  11.456  0.00  0.00    +0.000 C 
BRANCH   7   8
ATOM      8  C   UNL     1       4.016   3.286  11.372  0.00  0.00    +0.000 C 
ATOM      9  C   UNL     1       3.410   4.060  10.224  0.00  0.00    +0.000 C 
ATOM     10  C   UNL     1       3.086   2.602  10.397  0.00  0.00    +0.000 C 
ENDBRANCH   7   8
BRANCH   7  11
ATOM     11  O   UNL     1       5.662   1.594  11.570  0.00  0.00    +0.000 OA
ATOM     12  H   UNL     1       6.170   1.333  10.780  0.00  0.00    +0.000 HD
ENDBRANCH   7  11
ENDBRANCH   4   7
ENDBRANCH   1   2
BRANCH   1  14
ATOM     13  O   UNL     1       5.289   6.718  15.582  0.00  0.00    +0.000 OA
ATOM     14  C   UNL     1       5.917   5.839  16.161  0.00  0.00    +0.000 C 
BRANCH  14  15
ATOM     15  C   UNL     1       5.454   5.378  17.520  0.00  0.00    +0.000 C 
ATOM     16  C   UNL     1       6.489   4.669  18.388  0.00  0.00    +0.000 C 
ATOM     17  C   UNL     1       6.043   6.049  18.754  0.00  0.00    +0.000 C 
BRANCH  15  18
ATOM     18  C   UNL     1       4.021   4.869  17.518  0.00  0.00    +0.000 A 
ATOM     19  C   UNL     1       3.018   5.603  18.179  0.00  0.00    +0.000 A 
ATOM     20  C   UNL     1       1.764   5.051  18.439  0.00  0.00    +0.000 A 
ATOM     21  C   UNL     1       1.475   3.759  18.014  0.00  0.00    +0.000 A 
ATOM     22  C   UNL     1       2.425   3.037  17.295  0.00  0.00    +0.000 A 
ATOM     23  C   UNL     1       3.683   3.590  17.045  0.00  0.00    +0.000 A 
ENDBRANCH  15  18
ENDBRANCH  14  15
ENDBRANCH   1  14
TORSDOF 7
ENDMDL
MODEL 7
REMARK VINA RESULT:      -7.6      1.095      1.306
REMARK  Name = 
REMARK  7 active torsions:
REMARK  status: ('A' for Active; 'I' for Inactive)
REMARK    1  A    between atoms: C_2  and  C_3
REMARK    2  A    between atoms: C_2  and  C_14
REMARK    3  A    between atoms: C_3  and  N_4
REMARK    4  A    between atoms: C_6  and  C_7
REMARK    5  A    between atoms: C_7  and  O_8
REMARK    6  A    between atoms: C_7  and  C_9
REMARK    7  A    between atoms: C_14  and  C_15
REMARK                            x       y       z     vdW  Elec       q    Type
REMARK                         _______ _______ _______ _____ _____    ______ ____
ROOT
ATOM      1  C   UNL     1       4.875   3.858  18.909  0.00  0.00    +0.000 C 
ENDROOT
BRANCH   1   2
ATOM      2  N   UNL     1       5.464   4.490  17.751  0.00  0.00    +0.000 N 
ATOM      3  C   UNL     1       5.786   3.909  16.561  0.00  0.00    +0.000 A 
ATOM      4  C   UNL     1       6.182   4.968  15.771  0.00  0.00    +0.000 A 
ATOM      5  N   UNL     1       6.188   6.112  16.536  0.00  0.00    +0.000 NA
ATOM      6  N   UNL     1       5.777   5.797  17.760  0.00  0.00    +0.000 NA
BRANCH   4   7
ATOM      7  C   UNL     1       6.474   4.979  14.309  0.00  0.00    +0.000 C 
BRANCH   7   8
ATOM      8  C   UNL     1       6.283   3.710  13.526  0.00  0.00    +0.000 C 
ATOM      9  C   UNL     1       5.209   3.572  12.473  0.00  0.00    +0.000 C 
ATOM     10  C   UNL     1       6.657   3.554  12.071  0.00  0.00    +0.000 C 
ENDBRANCH   7   8
BRANCH   7  11
ATOM     11  O   UNL     1       7.801   5.449  14.056  0.00  0.00    +0.000 OA
ATOM     12  H   UNL     1       7.816   5.678  13.109  0.00  0.00    +0.000 HD
ENDBRANCH   7  11
ENDBRANCH   4   7
ENDBRANCH   1   2
BRANCH   1  14
ATOM     13  O   UNL     1       3.025   2.786  17.740  0.00  0.00    +0.000 OA
ATOM     14  C   UNL     1       3.437   3.468  18.672  0.00  0.00    +0.000 C 
BRANCH  14  15
ATOM     15  C   UNL     1       2.453   4.004  19.680  0.00  0.00    +0.000 C 
ATOM     16  C   UNL     1       1.343   3.055  20.121  0.00  0.00    +0.000 C 
ATOM     17  C   UNL     1       2.441   3.397  21.077  0.00  0.00    +0.000 C 
BRANCH  15  18
ATOM     18  C   UNL     1       2.123   5.473  19.466  0.00  0.00    +0.000 A 
ATOM     19  C   UNL     1       2.306   6.052  18.196  0.00  0.00    +0.000 A 
ATOM     20  C   UNL     1       2.282   7.434  18.016  0.00  0.00    +0.000 A 
ATOM     21  C   UNL     1       2.043   8.270  19.102  0.00  0.00    +0.000 A 
ATOM     22  C   UNL     1       1.787   7.720  20.356  0.00  0.00    +0.000 A 
ATOM     23  C   UNL     1       1.822   6.335  20.534  0.00  0.00    +0.000 A 
ENDBRANCH  15  18
ENDBRANCH  14  15
ENDBRANCH   1  14
TORSDOF 7
ENDMDL
MODEL 8
REMARK VINA RESULT:      -7.5      1.242      2.566
REMARK  Name = 
REMARK  7 active torsions:
REMARK  status: ('A' for Active; 'I' for Inactive)
REMARK    1  A    between atoms: C_2  and  C_3
REMARK    2  A    between atoms: C_2  and  C_14
REMARK    3  A    between atoms: C_3  and  N_4
REMARK    4  A    between atoms: C_6  and  C_7
REMARK    5  A    between atoms: C_7  and  O_8
REMARK    6  A    between atoms: C_7  and  C_9
REMARK    7  A    between atoms: C_14  and  C_15
REMARK                            x       y       z     vdW  Elec       q    Type
REMARK                         _______ _______ _______ _____ _____    ______ ____
ROOT
ATOM      1  C   UNL     1       5.725   6.312  18.204  0.00  0.00    +0.000 C 
ENDROOT
BRANCH   1   2
ATOM      2  N   UNL     1       6.253   5.666  17.024  0.00  0.00    +0.000 N 
ATOM      3  C   UNL     1       5.681   5.596  15.790  0.00  0.00    +0.000 A 
ATOM      4  C   UNL     1       6.648   4.998  15.009  0.00  0.00    +0.000 A 
ATOM      5  N   UNL     1       7.704   4.636  15.814  0.00  0.00    +0.000 NA
ATOM      6  N   UNL     1       7.433   5.022  17.056  0.00  0.00    +0.000 NA
BRANCH   4   7
ATOM      7  C   UNL     1       6.671   4.823  13.529  0.00  0.00    +0.000 C 
BRANCH   7   8
ATOM      8  C   UNL     1       6.432   3.451  12.962  0.00  0.00    +0.000 C 
ATOM      9  C   UNL     1       5.345   3.181  11.948  0.00  0.00    +0.000 C 
ATOM     10  C   UNL     1       6.788   3.050  11.549  0.00  0.00    +0.000 C 
ENDBRANCH   7   8
BRANCH   7  11
ATOM     11  O   UNL     1       7.896   5.313  12.975  0.00  0.00    +0.000 OA
ATOM     12  H   UNL     1       7.832   5.138  12.018  0.00  0.00    +0.000 HD
ENDBRANCH   7  11
ENDBRANCH   4   7
ENDBRANCH   1   2
BRANCH   1  14
ATOM     13  O   UNL     1       5.320   4.447  19.719  0.00  0.00    +0.000 OA
ATOM     14  C   UNL     1       4.891   5.373  19.040  0.00  0.00    +0.000 C 
BRANCH  14  15
ATOM     15  C   UNL     1       3.404   5.617  18.987  0.00  0.00    +0.000 C 
ATOM     16  C   UNL     1       2.918   6.971  19.494  0.00  0.00    +0.000 C 
ATOM     17  C   UNL     1       2.876   6.677  18.029  0.00  0.00    +0.000 C 
BRANCH  15  18
ATOM     18  C   UNL     1       2.586   4.375  19.303  0.00  0.00    +0.000 A 
ATOM     19  C   UNL     1       2.133   3.552  18.255  0.00  0.00    +0.000 A 
ATOM     20  C   UNL     1       1.164   2.571  18.468  0.00  0.00    +0.000 A 
ATOM     21  C   UNL     1       0.649   2.372  19.745  0.00  0.00    +0.000 A 
ATOM     22  C   UNL     1       1.132   3.124  20.812  0.00  0.00    +0.000 A 
ATOM     23  C   UNL     1       2.096   4.112  20.594  0.00  0.00    +0.000 A 
ENDBRANCH  15  18
ENDBRANCH  14  15
ENDBRANCH   1  14
TORSDOF 7
ENDMDL
MODEL 9
REMARK VINA RESULT:      -7.5      1.587      2.628
REMARK  Name = 
REMARK  7 active torsions:
REMARK  status: ('A' for Active; 'I' for Inactive)
REMARK    1  A    between atoms: C_2  and  C_3
REMARK    2  A    between atoms: C_2  and  C_14
REMARK    3  A    between atoms: C_3  and  N_4
REMARK    4  A    between atoms: C_6  and  C_7
REMARK    5  A    between atoms: C_7  and  O_8
REMARK    6  A    between atoms: C_7  and  C_9
REMARK    7  A    between atoms: C_14  and  C_15
REMARK                            x       y       z     vdW  Elec       q    Type
REMARK                         _______ _______ _______ _____ _____    ______ ____
ROOT
ATOM      1  C   UNL     1       6.091   3.945  18.101  0.00  0.00    +0.000 C 
ENDROOT
BRANCH   1   2
ATOM      2  N   UNL     1       6.431   4.217  16.724  0.00  0.00    +0.000 N 
ATOM      3  C   UNL     1       5.924   3.621  15.609  0.00  0.00    +0.000 A 
ATOM      4  C   UNL     1       6.478   4.335  14.567  0.00  0.00    +0.000 A 
ATOM      5  N   UNL     1       7.369   5.248  15.084  0.00  0.00    +0.000 NA
ATOM      6  N   UNL     1       7.355   5.142  16.408  0.00  0.00    +0.000 NA
BRANCH   4   7
ATOM      7  C   UNL     1       6.153   4.266  13.115  0.00  0.00    +0.000 C 
BRANCH   7   8
ATOM      8  C   UNL     1       5.285   3.139  12.623  0.00  0.00    +0.000 C 
ATOM      9  C   UNL     1       4.427   3.270  11.386  0.00  0.00    +0.000 C 
ATOM     10  C   UNL     1       5.590   2.317  11.393  0.00  0.00    +0.000 C 
ENDBRANCH   7   8
BRANCH   7  11
ATOM     11  O   UNL     1       7.344   4.272  12.322  0.00  0.00    +0.000 OA
ATOM     12  H   UNL     1       7.973   3.701  12.801  0.00  0.00    +0.000 HD
ENDBRANCH   7  11
ENDBRANCH   4   7
ENDBRANCH   1   2
BRANCH   1  14
ATOM     13  O   UNL     1       6.067   5.840  19.632  0.00  0.00    +0.000 OA
ATOM     14  C   UNL     1       5.502   5.152  18.789  0.00  0.00    +0.000 C 
BRANCH  14  15
ATOM     15  C   UNL     1       4.088   5.491  18.391  0.00  0.00    +0.000 C 
ATOM     16  C   UNL     1       3.740   6.973  18.310  0.00  0.00    +0.000 C 
ATOM     17  C   UNL     1       3.855   6.175  17.050  0.00  0.00    +0.000 C 
BRANCH  15  18
ATOM     18  C   UNL     1       3.063   4.523  18.961  0.00  0.00    +0.000 A 
ATOM     19  C   UNL     1       2.320   3.701  18.092  0.00  0.00    +0.000 A 
ATOM     20  C   UNL     1       1.194   3.008  18.533  0.00  0.00    +0.000 A 
ATOM     21  C   UNL     1       0.802   3.098  19.864  0.00  0.00    +0.000 A 
ATOM     22  C   UNL     1       1.560   3.847  20.760  0.00  0.00    +0.000 A 
ATOM     23  C   UNL     1       2.683   4.548  20.313  0.00  0.00    +0.000 A 
ENDBRANCH  15  18
ENDBRANCH  14  15
ENDBRANCH   1  14
TORSDOF 7
ENDMDL
