MODEL 1
REMARK VINA RESULT:      -7.0      0.000      0.000
REMARK  Name = 
REMARK  6 active torsions:
REMARK  status: ('A' for Active; 'I' for Inactive)
REMARK    1  A    between atoms: C_1  and  C_2
REMARK    2  A    between atoms: C_2  and  C_3
REMARK    3  A    between atoms: C_2  and  C_4
REMARK    4  A    between atoms: C_2  and  C_5
REMARK    5  A    between atoms: N_9  and  C_10
REMARK    6  A    between atoms: C_10  and  C_11
REMARK                            x       y       z     vdW  Elec       q    Type
REMARK                         _______ _______ _______ _____ _____    ______ ____
ROOT
ATOM      1  C   UNL     1       6.677   5.722  17.163  0.00  0.00    +0.000 A 
ATOM      2  N   UNL     1       6.739   4.956  18.257  0.00  0.00    +0.000 NA
ATOM      3  S   UNL     1       7.676   5.772  19.363  0.00  0.00    +0.000 S 
ATOM      4  C   UNL     1       7.919   7.131  18.328  0.00  0.00    +0.000 A 
ATOM      5  N   UNL     1       8.667   8.197  18.698  0.00  0.00    +0.000 N 
ATOM      6  N   UNL     1       7.294   6.975  17.180  0.00  0.00    +0.000 NA
ATOM      7  H   UNL     1       9.016   8.207  19.651  0.00  0.00    +0.000 HD
ENDROOT
BRANCH   1   9
ATOM      8  C   UNL     1       6.992   4.787  14.819  0.00  0.00    +0.000 C 
ATOM      9  C   UNL     1       5.987   5.246  15.897  0.00  0.00    +0.000 C 
ATOM     10  C   UNL     1       5.147   6.398  15.307  0.00  0.00    +0.000 C 
ATOM     11  C   UNL     1       5.055   4.063  16.221  0.00  0.00    +0.000 C 
ENDBRANCH   1   9
BRANCH   5  12
ATOM     12  C   UNL     1       8.381   9.498  18.138  0.00  0.00    +0.000 C 
BRANCH  12  13
ATOM     13  C   UNL     1       9.289  10.545  18.725  0.00  0.00    +0.000 A 
ATOM     14  C   UNL     1       9.469  10.650  20.108  0.00  0.00    +0.000 A 
ATOM     15  C   UNL     1      10.312  11.621  20.639  0.00  0.00    +0.000 A 
ATOM     16  C   UNL     1      10.972  12.494  19.778  0.00  0.00    +0.000 A 
ATOM     17  N   UNL     1      10.801  12.422  18.407  0.00  0.00    +0.000 N 
ATOM     18  O   UNL     1      11.411  13.221  17.633  0.00  0.00    +0.000 OA
ATOM     19  C   UNL     1       9.958  11.451  17.895  0.00  0.00    +0.000 A 
ENDBRANCH  12  13
ENDBRANCH   5  12
TORSDOF 3
ENDMDL
MODEL 2
REMARK VINA RESULT:      -6.9      0.466      1.139
REMARK  Name = 
REMARK  6 active torsions:
REMARK  status: ('A' for Active; 'I' for Inactive)
REMARK    1  A    between atoms: C_1  and  C_2
REMARK    2  A    between atoms: C_2  and  C_3
REMARK    3  A    between atoms: C_2  and  C_4
REMARK    4  A    between atoms: C_2  and  C_5
REMARK    5  A    between atoms: N_9  and  C_10
REMARK    6  A    between atoms: C_10  and  C_11
REMARK                            x       y       z     vdW  Elec       q    Type
REMARK                         _______ _______ _______ _____ _____    ______ ____
ROOT
ATOM      1  C   UNL     1       6.696   5.624  17.247  0.00  0.00    +0.000 A 
ATOM      2  N   UNL     1       6.861   4.884  18.348  0.00  0.00    +0.000 NA
ATOM      3  S   UNL     1       7.818   5.768  19.381  0.00  0.00    +0.000 S 
ATOM      4  C   UNL     1       7.930   7.117  18.310  0.00  0.00    +0.000 A 
ATOM      5  N   UNL     1       8.644   8.225  18.616  0.00  0.00    +0.000 N 
ATOM      6  N   UNL     1       7.248   6.906  17.205  0.00  0.00    +0.000 NA
ATOM      7  H   UNL     1       9.047   8.273  19.546  0.00  0.00    +0.000 HD
ENDROOT
BRANCH   1   9
ATOM      8  C   UNL     1       4.967   3.961  16.399  0.00  0.00    +0.000 C 
ATOM      9  C   UNL     1       5.958   5.088  16.033  0.00  0.00    +0.000 C 
ATOM     10  C   UNL     1       6.976   4.517  15.024  0.00  0.00    +0.000 C 
ATOM     11  C   UNL     1       5.166   6.223  15.356  0.00  0.00    +0.000 C 
ENDBRANCH   1   9
BRANCH   5  12
ATOM     12  C   UNL     1       8.259   9.499  18.052  0.00  0.00    +0.000 C 
BRANCH  12  13
ATOM     13  C   UNL     1       9.053  10.619  18.668  0.00  0.00    +0.000 A 
ATOM     14  C   UNL     1       9.546  10.521  19.973  0.00  0.00    +0.000 A 
ATOM     15  C   UNL     1      10.280  11.562  20.532  0.00  0.00    +0.000 A 
ATOM     16  C   UNL     1      10.514  12.711  19.780  0.00  0.00    +0.000 A 
ATOM     17  N   UNL     1      10.025  12.841  18.492  0.00  0.00    +0.000 N 
ATOM     18  O   UNL     1      10.248  13.891  17.815  0.00  0.00    +0.000 OA
ATOM     19  C   UNL     1       9.296  11.796  17.951  0.00  0.00    +0.000 A 
ENDBRANCH  12  13
ENDBRANCH   5  12
TORSDOF 3
ENDMDL
MODEL 3
REMARK VINA RESULT:      -6.9      6.038      7.531
REMARK  Name = 
REMARK  6 active torsions:
REMARK  status: ('A' for Active; 'I' for Inactive)
REMARK    1  A    between atoms: C_1  and  C_2
REMARK    2  A    between atoms: C_2  and  C_3
REMARK    3  A    between atoms: C_2  and  C_4
REMARK    4  A    between atoms: C_2  and  C_5
REMARK    5  A    between atoms: N_9  and  C_10
REMARK    6  A    between atoms: C_10  and  C_11
REMARK                            x       y       z     vdW  Elec       q    Type
REMARK                         _______ _______ _______ _____ _____    ______ ____
ROOT
ATOM      1  C   UNL     1       3.510   4.225  19.358  0.00  0.00    +0.000 A 
ATOM      2  N   UNL     1       4.192   5.216  19.939  0.00  0.00    +0.000 NA
ATOM      3  S   UNL     1       5.530   5.499  18.992  0.00  0.00    +0.000 S 
ATOM      4  C   UNL     1       5.102   4.299  17.828  0.00  0.00    +0.000 A 
ATOM      5  N   UNL     1       5.871   4.035  16.746  0.00  0.00    +0.000 N 
ATOM      6  N   UNL     1       3.968   3.710  18.144  0.00  0.00    +0.000 NA
ATOM      7  H   UNL     1       6.676   4.634  16.594  0.00  0.00    +0.000 HD
ENDROOT
BRANCH   1   9
ATOM      8  C   UNL     1       2.625   2.716  21.206  0.00  0.00    +0.000 C 
ATOM      9  C   UNL     1       2.275   3.624  20.007  0.00  0.00    +0.000 C 
ATOM     10  C   UNL     1       1.515   2.771  18.970  0.00  0.00    +0.000 C 
ATOM     11  C   UNL     1       1.347   4.746  20.509  0.00  0.00    +0.000 C 
ENDBRANCH   1   9
BRANCH   5  12
ATOM     12  C   UNL     1       5.256   3.522  15.542  0.00  0.00    +0.000 C 
BRANCH  12  13
ATOM     13  C   UNL     1       6.047   3.923  14.326  0.00  0.00    +0.000 A 
ATOM     14  C   UNL     1       5.750   3.392  13.066  0.00  0.00    +0.000 A 
ATOM     15  C   UNL     1       6.487   3.771  11.949  0.00  0.00    +0.000 A 
ATOM     16  C   UNL     1       7.532   4.679  12.097  0.00  0.00    +0.000 A 
ATOM     17  N   UNL     1       7.856   5.208  13.334  0.00  0.00    +0.000 N 
ATOM     18  O   UNL     1       8.808   6.039  13.456  0.00  0.00    +0.000 OA
ATOM     19  C   UNL     1       7.113   4.821  14.436  0.00  0.00    +0.000 A 
ENDBRANCH  12  13
ENDBRANCH   5  12
TORSDOF 3
ENDMDL
MODEL 4
REMARK VINA RESULT:      -6.8      6.052      7.512
REMARK  Name = 
REMARK  6 active torsions:
REMARK  status: ('A' for Active; 'I' for Inactive)
REMARK    1  A    between atoms: C_1  and  C_2
REMARK    2  A    between atoms: C_2  and  C_3
REMARK    3  A    between atoms: C_2  and  C_4
REMARK    4  A    between atoms: C_2  and  C_5
REMARK    5  A    between atoms: N_9  and  C_10
REMARK    6  A    between atoms: C_10  and  C_11
REMARK                            x       y       z     vdW  Elec       q    Type
REMARK                         _______ _______ _______ _____ _____    ______ ____
ROOT
ATOM      1  C   UNL     1       3.349   4.118  19.228  0.00  0.00    +0.000 A 
ATOM      2  N   UNL     1       3.967   5.128  19.846  0.00  0.00    +0.000 NA
ATOM      3  S   UNL     1       5.304   5.505  18.931  0.00  0.00    +0.000 S 
ATOM      4  C   UNL     1       4.961   4.315  17.730  0.00  0.00    +0.000 A 
ATOM      5  N   UNL     1       5.762   4.120  16.656  0.00  0.00    +0.000 N 
ATOM      6  N   UNL     1       3.854   3.660  18.010  0.00  0.00    +0.000 NA
ATOM      7  H   UNL     1       6.536   4.764  16.535  0.00  0.00    +0.000 HD
ENDROOT
BRANCH   1   9
ATOM      8  C   UNL     1       1.360   2.588  18.807  0.00  0.00    +0.000 C 
ATOM      9  C   UNL     1       2.136   3.436  19.838  0.00  0.00    +0.000 C 
ATOM     10  C   UNL     1       1.174   4.505  20.396  0.00  0.00    +0.000 C 
ATOM     11  C   UNL     1       2.577   2.511  20.988  0.00  0.00    +0.000 C 
ENDBRANCH   1   9
BRANCH   5  12
ATOM     12  C   UNL     1       5.196   3.607  15.428  0.00  0.00    +0.000 C 
BRANCH  12  13
ATOM     13  C   UNL     1       6.055   3.975  14.249  0.00  0.00    +0.000 A 
ATOM     14  C   UNL     1       5.830   3.412  12.989  0.00  0.00    +0.000 A 
ATOM     15  C   UNL     1       6.630   3.760  11.906  0.00  0.00    +0.000 A 
ATOM     16  C   UNL     1       7.665   4.673  12.090  0.00  0.00    +0.000 A 
ATOM     17  N   UNL     1       7.920   5.235  13.328  0.00  0.00    +0.000 N 
ATOM     18  O   UNL     1       8.864   6.069  13.483  0.00  0.00    +0.000 OA
ATOM     19  C   UNL     1       7.114   4.877  14.396  0.00  0.00    +0.000 A 
ENDBRANCH  12  13
ENDBRANCH   5  12
TORSDOF 3
ENDMDL
MODEL 5
REMARK VINA RESULT:      -6.8      1.252      1.551
REMARK  Name = 
REMARK  6 active torsions:
REMARK  status: ('A' for Active; 'I' for Inactive)
REMARK    1  A    between atoms: C_1  and  C_2
REMARK    2  A    between atoms: C_2  and  C_3
REMARK    3  A    between atoms: C_2  and  C_4
REMARK    4  A    between atoms: C_2  and  C_5
REMARK    5  A    between atoms: N_9  and  C_10
REMARK    6  A    between atoms: C_10  and  C_11
REMARK                            x       y       z     vdW  Elec       q    Type
REMARK                         _______ _______ _______ _____ _____    ______ ____
ROOT
ATOM      1  C   UNL     1       6.639   5.589  17.329  0.00  0.00    +0.000 A 
ATOM      2  N   UNL     1       6.807   4.831  18.417  0.00  0.00    +0.000 NA
ATOM      3  S   UNL     1       7.815   5.673  19.438  0.00  0.00    +0.000 S 
ATOM      4  C   UNL     1       7.943   7.031  18.381  0.00  0.00    +0.000 A 
ATOM      5  N   UNL     1       8.697   8.114  18.682  0.00  0.00    +0.000 N 
ATOM      6  N   UNL     1       7.228   6.854  17.290  0.00  0.00    +0.000 NA
ATOM      7  H   UNL     1       9.123   8.137  19.603  0.00  0.00    +0.000 HD
ENDROOT
BRANCH   1   9
ATOM      8  C   UNL     1       6.752   4.353  15.108  0.00  0.00    +0.000 C 
ATOM      9  C   UNL     1       5.856   5.091  16.127  0.00  0.00    +0.000 C 
ATOM     10  C   UNL     1       5.203   6.289  15.408  0.00  0.00    +0.000 C 
ATOM     11  C   UNL     1       4.751   4.120  16.586  0.00  0.00    +0.000 C 
ENDBRANCH   1   9
BRANCH   5  12
ATOM     12  C   UNL     1       8.337   9.406  18.142  0.00  0.00    +0.000 C 
BRANCH  12  13
ATOM     13  C   UNL     1       9.263  10.476  18.654  0.00  0.00    +0.000 A 
ATOM     14  C   UNL     1      10.203  11.078  17.811  0.00  0.00    +0.000 A 
ATOM     15  C   UNL     1      11.054  12.067  18.295  0.00  0.00    +0.000 A 
ATOM     16  C   UNL     1      10.965  12.448  19.632  0.00  0.00    +0.000 A 
ATOM     17  N   UNL     1      10.055  11.858  20.490  0.00  0.00    +0.000 N 
ATOM     18  O   UNL     1       9.981  12.216  21.706  0.00  0.00    +0.000 OA
ATOM     19  C   UNL     1       9.217  10.875  19.993  0.00  0.00    +0.000 A 
ENDBRANCH  12  13
ENDBRANCH   5  12
TORSDOF 3
ENDMDL
MODEL 6
REMARK VINA RESULT:      -6.7      0.703      1.024
REMARK  Name = 
REMARK  6 active torsions:
REMARK  status: ('A' for Active; 'I' for Inactive)
REMARK    1  A    between atoms: C_1  and  C_2
REMARK    2  A    between atoms: C_2  and  C_3
REMARK    3  A    between atoms: C_2  and  C_4
REMARK    4  A    between atoms: C_2  and  C_5
REMARK    5  A    between atoms: N_9  and  C_10
REMARK    6  A    between atoms: C_10  and  C_11
REMARK                            x       y       z     vdW  Elec       q    Type
REMARK                         _______ _______ _______ _____ _____    ______ ____
ROOT
ATOM      1  C   UNL     1       6.437   5.492  17.512  0.00  0.00    +0.000 A 
ATOM      2  N   UNL     1       6.689   4.782  18.617  0.00  0.00    +0.000 NA
ATOM      3  S   UNL     1       7.769   5.668  19.521  0.00  0.00    +0.000 S 
ATOM      4  C   UNL     1       7.813   6.977  18.398  0.00  0.00    +0.000 A 
ATOM      5  N   UNL     1       8.585   8.072  18.594  0.00  0.00    +0.000 N 
ATOM      6  N   UNL     1       7.019   6.754  17.373  0.00  0.00    +0.000 NA
ATOM      7  H   UNL     1       9.078   8.136  19.478  0.00  0.00    +0.000 HD
ENDROOT
BRANCH   1   9
ATOM      8  C   UNL     1       5.284   5.993  15.301  0.00  0.00    +0.000 C 
ATOM      9  C   UNL     1       5.567   4.942  16.396  0.00  0.00    +0.000 C 
ATOM     10  C   UNL     1       4.214   4.484  16.978  0.00  0.00    +0.000 C 
ATOM     11  C   UNL     1       6.261   3.736  15.736  0.00  0.00    +0.000 C 
ENDBRANCH   1   9
BRANCH   5  12
ATOM     12  C   UNL     1       8.182   9.339  18.027  0.00  0.00    +0.000 C 
BRANCH  12  13
ATOM     13  C   UNL     1       8.968  10.470  18.633  0.00  0.00    +0.000 A 
ATOM     14  C   UNL     1       9.456  10.390  19.942  0.00  0.00    +0.000 A 
ATOM     15  C   UNL     1      10.182  11.441  20.490  0.00  0.00    +0.000 A 
ATOM     16  C   UNL     1      10.414  12.582  19.726  0.00  0.00    +0.000 A 
ATOM     17  N   UNL     1       9.931  12.694  18.434  0.00  0.00    +0.000 N 
ATOM     18  O   UNL     1      10.152  13.737  17.746  0.00  0.00    +0.000 OA
ATOM     19  C   UNL     1       9.209  11.639  17.903  0.00  0.00    +0.000 A 
ENDBRANCH  12  13
ENDBRANCH   5  12
TORSDOF 3
ENDMDL
MODEL 7
REMARK VINA RESULT:      -6.6      6.017      7.556
REMARK  Name = 
REMARK  6 active torsions:
REMARK  status: ('A' for Active; 'I' for Inactive)
REMARK    1  A    between atoms: C_1  and  C_2
REMARK    2  A    between atoms: C_2  and  C_3
REMARK    3  A    between atoms: C_2  and  C_4
REMARK    4  A    between atoms: C_2  and  C_5
REMARK    5  A    between atoms: N_9  and  C_10
REMARK    6  A    between atoms: C_10  and  C_11
REMARK                            x       y       z     vdW  Elec       q    Type
REMARK                         _______ _______ _______ _____ _____    ______ ____
ROOT
ATOM      1  C   UNL     1       3.149   4.379  19.194  0.00  0.00    +0.000 A 
ATOM      2  N   UNL     1       3.566   5.566  19.646  0.00  0.00    +0.000 NA
ATOM      3  S   UNL     1       4.898   5.983  18.741  0.00  0.00    +0.000 S 
ATOM      4  C   UNL     1       4.822   4.564  17.762  0.00  0.00    +0.000 A 
ATOM      5  N   UNL     1       5.720   4.313  16.781  0.00  0.00    +0.000 N 
ATOM      6  N   UNL     1       3.805   3.802  18.105  0.00  0.00    +0.000 NA
ATOM      7  H   UNL     1       6.399   5.039  16.581  0.00  0.00    +0.000 HD
ENDROOT
BRANCH   1   9
ATOM      8  C   UNL     1       1.051   4.579  20.620  0.00  0.00    +0.000 C 
ATOM      9  C   UNL     1       2.007   3.633  19.861  0.00  0.00    +0.000 C 
ATOM     10  C   UNL     1       2.578   2.621  20.875  0.00  0.00    +0.000 C 
ATOM     11  C   UNL     1       1.188   2.871  18.801  0.00  0.00    +0.000 C 
ENDBRANCH   1   9
BRANCH   5  12
ATOM     12  C   UNL     1       5.327   3.513  15.643  0.00  0.00    +0.000 C 
BRANCH  12  13
ATOM     13  C   UNL     1       6.089   3.925  14.412  0.00  0.00    +0.000 A 
ATOM     14  C   UNL     1       5.760   3.408  13.154  0.00  0.00    +0.000 A 
ATOM     15  C   UNL     1       6.471   3.798  12.023  0.00  0.00    +0.000 A 
ATOM     16  C   UNL     1       7.520   4.703  12.156  0.00  0.00    +0.000 A 
ATOM     17  N   UNL     1       7.876   5.218  13.390  0.00  0.00    +0.000 N 
ATOM     18  O   UNL     1       8.832   6.045  13.498  0.00  0.00    +0.000 OA
ATOM     19  C   UNL     1       7.160   4.820  14.505  0.00  0.00    +0.000 A 
ENDBRANCH  12  13
ENDBRANCH   5  12
TORSDOF 3
ENDMDL
MODEL 8
REMARK VINA RESULT:      -6.6      5.415      7.145
REMARK  Name = 
REMARK  6 active torsions:
REMARK  status: ('A' for Active; 'I' for Inactive)
REMARK    1  A    between atoms: C_1  and  C_2
REMARK    2  A    between atoms: C_2  and  C_3
REMARK    3  A    between atoms: C_2  and  C_4
REMARK    4  A    between atoms: C_2  and  C_5
REMARK    5  A    between atoms: N_9  and  C_10
REMARK    6  A    between atoms: C_10  and  C_11
REMARK                            x       y       z     vdW  Elec       q    Type
REMARK                         _______ _______ _______ _____ _____    ______ ____
ROOT
ATOM      1  C   UNL     1       2.824   4.329  19.404  0.00  0.00    +0.000 A 
ATOM      2  N   UNL     1       2.177   5.467  19.137  0.00  0.00    +0.000 NA
ATOM      3  S   UNL     1       3.312   6.543  18.569  0.00  0.00    +0.000 S 
ATOM      4  C   UNL     1       4.608   5.409  18.675  0.00  0.00    +0.000 A 
ATOM      5  N   UNL     1       5.879   5.731  18.337  0.00  0.00    +0.000 N 
ATOM      6  N   UNL     1       4.187   4.243  19.117  0.00  0.00    +0.000 NA
ATOM      7  H   UNL     1       6.031   6.648  17.932  0.00  0.00    +0.000 HD
ENDROOT
BRANCH   1   9
ATOM      8  C   UNL     1       2.776   2.722  21.376  0.00  0.00    +0.000 C 
ATOM      9  C   UNL     1       2.119   3.146  20.044  0.00  0.00    +0.000 C 
ATOM     10  C   UNL     1       2.166   1.939  19.084  0.00  0.00    +0.000 C 
ATOM     11  C   UNL     1       0.647   3.502  20.326  0.00  0.00    +0.000 C 
ENDBRANCH   1   9
BRANCH   5  12
ATOM     12  C   UNL     1       6.773   4.698  17.863  0.00  0.00    +0.000 C 
BRANCH  12  13
ATOM     13  C   UNL     1       6.662   4.539  16.371  0.00  0.00    +0.000 A 
ATOM     14  C   UNL     1       5.691   3.706  15.804  0.00  0.00    +0.000 A 
ATOM     15  C   UNL     1       5.598   3.568  14.424  0.00  0.00    +0.000 A 
ATOM     16  C   UNL     1       6.487   4.262  13.607  0.00  0.00    +0.000 A 
ATOM     17  N   UNL     1       7.466   5.081  14.141  0.00  0.00    +0.000 N 
ATOM     18  O   UNL     1       8.269   5.712  13.387  0.00  0.00    +0.000 OA
ATOM     19  C   UNL     1       7.546   5.207  15.517  0.00  0.00    +0.000 A 
ENDBRANCH  12  13
ENDBRANCH   5  12
TORSDOF 3
ENDMDL
MODEL 9
REMARK VINA RESULT:      -6.5      5.478      7.180
REMARK  Name = 
REMARK  6 active torsions:
REMARK  status: ('A' for Active; 'I' for Inactive)
REMARK    1  A    between atoms: C_1  and  C_2
REMARK    2  A    between atoms: C_2  and  C_3
REMARK    3  A    between atoms: C_2  and  C_4
REMARK    4  A    between atoms: C_2  and  C_5
REMARK    5  A    between atoms: N_9  and  C_10
REMARK    6  A    between atoms: C_10  and  C_11
REMARK                            x       y       z     vdW  Elec       q    Type
REMARK                         _______ _______ _______ _____ _____    ______ ____
ROOT
ATOM      1  C   UNL     1       2.813   4.286  19.177  0.00  0.00    +0.000 A 
ATOM      2  N   UNL     1       2.156   5.414  18.889  0.00  0.00    +0.000 NA
ATOM      3  S   UNL     1       3.278   6.482  18.282  0.00  0.00    +0.000 S 
ATOM      4  C   UNL     1       4.583   5.358  18.402  0.00  0.00    +0.000 A 
ATOM      5  N   UNL     1       5.848   5.678  18.042  0.00  0.00    +0.000 N 
ATOM      6  N   UNL     1       4.174   4.201  18.877  0.00  0.00    +0.000 NA
ATOM      7  H   UNL     1       5.989   6.586  17.612  0.00  0.00    +0.000 HD
ENDROOT
BRANCH   1   9
ATOM      8  C   UNL     1       0.678   3.456  20.285  0.00  0.00    +0.000 C 
ATOM      9  C   UNL     1       2.122   3.116  19.855  0.00  0.00    +0.000 C 
ATOM     10  C   UNL     1       2.913   2.714  21.117  0.00  0.00    +0.000 C 
ATOM     11  C   UNL     1       2.067   1.912  18.896  0.00  0.00    +0.000 C 
ENDBRANCH   1   9
BRANCH   5  12
ATOM     12  C   UNL     1       6.743   4.640  17.583  0.00  0.00    +0.000 C 
BRANCH  12  13
ATOM     13  C   UNL     1       6.698   4.519  16.084  0.00  0.00    +0.000 A 
ATOM     14  C   UNL     1       5.765   3.689  15.454  0.00  0.00    +0.000 A 
ATOM     15  C   UNL     1       5.733   3.587  14.067  0.00  0.00    +0.000 A 
ATOM     16  C   UNL     1       6.646   4.315  13.309  0.00  0.00    +0.000 A 
ATOM     17  N   UNL     1       7.590   5.132  13.906  0.00  0.00    +0.000 N 
ATOM     18  O   UNL     1       8.415   5.794  13.205  0.00  0.00    +0.000 OA
ATOM     19  C   UNL     1       7.609   5.222  15.287  0.00  0.00    +0.000 A 
ENDBRANCH  12  13
ENDBRANCH   5  12
TORSDOF 3
ENDMDL
