MODEL 1
REMARK VINA RESULT:      -8.3      0.000      0.000
REMARK  Name = 
REMARK  12 active torsions:
REMARK  status: ('A' for Active; 'I' for Inactive)
REMARK    1  A    between atoms: C_1  and  C_2
REMARK    2  A    between atoms: C_2  and  O_3
REMARK    3  A    between atoms: O_3  and  C_4
REMARK    4  A    between atoms: C_4  and  C_6
REMARK    5  A    between atoms: C_6  and  N_7
REMARK    6  A    between atoms: C_6  and  N_17
REMARK    7  A    between atoms: C_6  and  C_26
REMARK    8  A    between atoms: N_7  and  C_8
REMARK    9  A    between atoms: C_8  and  C_9
REMARK   10  A    between atoms: C_14  and  O_15
REMARK   11  A    between atoms: O_15  and  C_16
REMARK   12  A    between atoms: C_18  and  C_20
REMARK                            x       y       z     vdW  Elec       q    Type
REMARK                         _______ _______ _______ _____ _____    ______ ____
ROOT
ATOM      1  C   UNL     1       5.720   4.652  16.872  0.00  0.00    +0.000 C 
ENDROOT
BRANCH   1   2
ATOM      2  N   UNL     1       4.758   5.712  17.214  0.00  0.00    +0.000 N 
ATOM      3  C   UNL     1       4.417   6.061  18.499  0.00  0.00    +0.000 C 
ATOM      4  O   UNL     1       4.951   5.582  19.494  0.00  0.00    +0.000 OA
ATOM      5  H   UNL     1       4.115   5.939  16.469  0.00  0.00    +0.000 HD
BRANCH   3   6
ATOM      6  C   UNL     1       3.316   7.059  18.637  0.00  0.00    +0.000 A 
ATOM      7  C   UNL     1       3.132   7.997  17.614  0.00  0.00    +0.000 A 
ATOM      8  C   UNL     1       2.137   8.970  17.725  0.00  0.00    +0.000 A 
ATOM      9  C   UNL     1       1.318   9.008  18.853  0.00  0.00    +0.000 A 
ATOM     10  C   UNL     1       1.475   8.058  19.860  0.00  0.00    +0.000 A 
ATOM     11  C   UNL     1       2.468   7.080  19.754  0.00  0.00    +0.000 A 
ENDBRANCH   3   6
ENDBRANCH   1   2
BRANCH   1  12
ATOM     12  C   UNL     1       5.727   4.439  15.289  0.00  0.00    +0.000 C 
ATOM     13  F   UNL     1       6.467   5.327  14.591  0.00  0.00    +0.000 F 
ATOM     14  F   UNL     1       6.197   3.208  14.953  0.00  0.00    +0.000 F 
ATOM     15  F   UNL     1       4.459   4.501  14.789  0.00  0.00    +0.000 F 
ENDBRANCH   1  12
BRANCH   1  16
ATOM     16  C   UNL     1       7.204   5.006  17.143  0.00  0.00    +0.000 C 
ATOM     17  O   UNL     1       8.084   4.180  17.366  0.00  0.00    +0.000 OA
BRANCH  16  18
ATOM     18  O   UNL     1       7.423   6.348  16.971  0.00  0.00    +0.000 OA
BRANCH  18  20
ATOM     19  C   UNL     1       7.984   8.582  17.843  0.00  0.00    +0.000 C 
ATOM     20  C   UNL     1       7.890   7.088  18.110  0.00  0.00    +0.000 C 
ENDBRANCH  18  20
ENDBRANCH  16  18
ENDBRANCH   1  16
BRANCH   1  21
ATOM     21  N   UNL     1       5.246   3.402  17.535  0.00  0.00    +0.000 NA
ATOM     22  H   UNL     1       5.350   3.545  18.545  0.00  0.00    +0.000 HD
BRANCH  21  23
ATOM     23  C   UNL     1       3.870   2.981  17.307  0.00  0.00    +0.000 C 
BRANCH  23  24
ATOM     24  C   UNL     1       3.140   2.891  18.640  0.00  0.00    +0.000 A 
ATOM     25  C   UNL     1       1.776   3.290  18.604  0.00  0.00    +0.000 A 
ATOM     26  C   UNL     1       0.978   3.337  19.749  0.00  0.00    +0.000 A 
ATOM     27  C   UNL     1       1.521   2.987  20.972  0.00  0.00    +0.000 A 
ATOM     28  C   UNL     1       2.858   2.604  21.035  0.00  0.00    +0.000 A 
ATOM     29  C   UNL     1       3.684   2.551  19.892  0.00  0.00    +0.000 A 
BRANCH  29  30
ATOM     30  O   UNL     1       4.945   2.190  20.266  0.00  0.00    +0.000 OA
ATOM     31  C   UNL     1       5.205   1.157  21.190  0.00  0.00    +0.000 C 
ENDBRANCH  29  30
ENDBRANCH  23  24
ENDBRANCH  21  23
ENDBRANCH   1  21
TORSDOF 10
ENDMDL
MODEL 2
REMARK VINA RESULT:      -8.1      0.281      1.186
REMARK  Name = 
REMARK  12 active torsions:
REMARK  status: ('A' for Active; 'I' for Inactive)
REMARK    1  A    between atoms: C_1  and  C_2
REMARK    2  A    between atoms: C_2  and  O_3
REMARK    3  A    between atoms: O_3  and  C_4
REMARK    4  A    between atoms: C_4  and  C_6
REMARK    5  A    between atoms: C_6  and  N_7
REMARK    6  A    between atoms: C_6  and  N_17
REMARK    7  A    between atoms: C_6  and  C_26
REMARK    8  A    between atoms: N_7  and  C_8
REMARK    9  A    between atoms: C_8  and  C_9
REMARK   10  A    between atoms: C_14  and  O_15
REMARK   11  A    between atoms: O_15  and  C_16
REMARK   12  A    between atoms: C_18  and  C_20
REMARK                            x       y       z     vdW  Elec       q    Type
REMARK                         _______ _______ _______ _____ _____    ______ ____
ROOT
ATOM      1  C   UNL     1       5.759   4.617  17.135  0.00  0.00    +0.000 C 
ENDROOT
BRANCH   1   2
ATOM      2  N   UNL     1       4.803   5.704  17.401  0.00  0.00    +0.000 N 
ATOM      3  C   UNL     1       4.407   6.097  18.656  0.00  0.00    +0.000 C 
ATOM      4  O   UNL     1       4.884   5.637  19.689  0.00  0.00    +0.000 OA
ATOM      5  H   UNL     1       4.201   5.921  16.619  0.00  0.00    +0.000 HD
BRANCH   3   6
ATOM      6  C   UNL     1       3.321   7.118  18.713  0.00  0.00    +0.000 A 
ATOM      7  C   UNL     1       2.508   7.167  19.852  0.00  0.00    +0.000 A 
ATOM      8  C   UNL     1       1.457   8.082  19.925  0.00  0.00    +0.000 A 
ATOM      9  C   UNL     1       1.215   8.957  18.866  0.00  0.00    +0.000 A 
ATOM     10  C   UNL     1       2.040   8.935  17.744  0.00  0.00    +0.000 A 
ATOM     11  C   UNL     1       3.095   8.022  17.664  0.00  0.00    +0.000 A 
ENDBRANCH   3   6
ENDBRANCH   1   2
BRANCH   1  12
ATOM     12  C   UNL     1       5.761   4.288  15.573  0.00  0.00    +0.000 C 
ATOM     13  F   UNL     1       6.078   3.015  15.251  0.00  0.00    +0.000 F 
ATOM     14  F   UNL     1       4.546   4.528  15.010  0.00  0.00    +0.000 F 
ATOM     15  F   UNL     1       6.641   5.094  14.911  0.00  0.00    +0.000 F 
ENDBRANCH   1  12
BRANCH   1  16
ATOM     16  C   UNL     1       7.245   4.983  17.377  0.00  0.00    +0.000 C 
ATOM     17  O   UNL     1       8.126   4.168  17.635  0.00  0.00    +0.000 OA
BRANCH  16  18
ATOM     18  O   UNL     1       7.464   6.314  17.135  0.00  0.00    +0.000 OA
BRANCH  18  20
ATOM     19  C   UNL     1       8.079   8.582  17.874  0.00  0.00    +0.000 C 
ATOM     20  C   UNL     1       7.948   7.109  18.229  0.00  0.00    +0.000 C 
ENDBRANCH  18  20
ENDBRANCH  16  18
ENDBRANCH   1  16
BRANCH   1  21
ATOM     21  N   UNL     1       5.280   3.421  17.890  0.00  0.00    +0.000 NA
ATOM     22  H   UNL     1       5.285   3.677  18.883  0.00  0.00    +0.000 HD
BRANCH  21  23
ATOM     23  C   UNL     1       3.951   2.905  17.592  0.00  0.00    +0.000 C 
BRANCH  23  24
ATOM     24  C   UNL     1       3.106   2.920  18.858  0.00  0.00    +0.000 A 
ATOM     25  C   UNL     1       1.776   3.393  18.684  0.00  0.00    +0.000 A 
ATOM     26  C   UNL     1       0.887   3.539  19.752  0.00  0.00    +0.000 A 
ATOM     27  C   UNL     1       1.302   3.219  21.032  0.00  0.00    +0.000 A 
ATOM     28  C   UNL     1       2.603   2.764  21.229  0.00  0.00    +0.000 A 
ATOM     29  C   UNL     1       3.519   2.610  20.166  0.00  0.00    +0.000 A 
BRANCH  29  30
ATOM     30  O   UNL     1       4.720   2.198  20.665  0.00  0.00    +0.000 OA
ATOM     31  C   UNL     1       5.182   0.871  20.552  0.00  0.00    +0.000 C 
ENDBRANCH  29  30
ENDBRANCH  23  24
ENDBRANCH  21  23
ENDBRANCH   1  21
TORSDOF 10
ENDMDL
MODEL 3
REMARK VINA RESULT:      -7.3      1.067      1.511
REMARK  Name = 
REMARK  12 active torsions:
REMARK  status: ('A' for Active; 'I' for Inactive)
REMARK    1  A    between atoms: C_1  and  C_2
REMARK    2  A    between atoms: C_2  and  O_3
REMARK    3  A    between atoms: O_3  and  C_4
REMARK    4  A    between atoms: C_4  and  C_6
REMARK    5  A    between atoms: C_6  and  N_7
REMARK    6  A    between atoms: C_6  and  N_17
REMARK    7  A    between atoms: C_6  and  C_26
REMARK    8  A    between atoms: N_7  and  C_8
REMARK    9  A    between atoms: C_8  and  C_9
REMARK   10  A    between atoms: C_14  and  O_15
REMARK   11  A    between atoms: O_15  and  C_16
REMARK   12  A    between atoms: C_18  and  C_20
REMARK                            x       y       z     vdW  Elec       q    Type
REMARK                         _______ _______ _______ _____ _____    ______ ____
ROOT
ATOM      1  C   UNL     1       4.663   5.319  17.084  0.00  0.00    +0.000 C 
ENDROOT
BRANCH   1   2
ATOM      2  N   UNL     1       3.873   6.496  17.479  0.00  0.00    +0.000 N 
ATOM      3  C   UNL     1       3.226   6.624  18.684  0.00  0.00    +0.000 C 
ATOM      4  O   UNL     1       3.318   5.803  19.591  0.00  0.00    +0.000 OA
ATOM      5  H   UNL     1       3.551   7.055  16.701  0.00  0.00    +0.000 HD
BRANCH   3   6
ATOM      6  C   UNL     1       2.357   7.828  18.838  0.00  0.00    +0.000 A 
ATOM      7  C   UNL     1       1.761   8.067  20.082  0.00  0.00    +0.000 A 
ATOM      8  C   UNL     1       0.911   9.161  20.255  0.00  0.00    +0.000 A 
ATOM      9  C   UNL     1       0.657  10.024  19.189  0.00  0.00    +0.000 A 
ATOM     10  C   UNL     1       1.271   9.809  17.958  0.00  0.00    +0.000 A 
ATOM     11  C   UNL     1       2.124   8.717  17.779  0.00  0.00    +0.000 A 
ENDBRANCH   3   6
ENDBRANCH   1   2
BRANCH   1  12
ATOM     12  C   UNL     1       5.332   5.589  15.660  0.00  0.00    +0.000 C 
ATOM     13  F   UNL     1       6.682   5.602  15.649  0.00  0.00    +0.000 F 
ATOM     14  F   UNL     1       4.957   4.652  14.747  0.00  0.00    +0.000 F 
ATOM     15  F   UNL     1       4.920   6.786  15.152  0.00  0.00    +0.000 F 
ENDBRANCH   1  12
BRANCH   1  16
ATOM     16  C   UNL     1       5.908   5.045  17.964  0.00  0.00    +0.000 C 
ATOM     17  O   UNL     1       6.495   3.968  18.020  0.00  0.00    +0.000 OA
BRANCH  16  18
ATOM     18  O   UNL     1       6.342   6.198  18.566  0.00  0.00    +0.000 OA
BRANCH  18  20
ATOM     19  C   UNL     1       7.885   7.965  17.815  0.00  0.00    +0.000 C 
ATOM     20  C   UNL     1       7.718   6.561  18.374  0.00  0.00    +0.000 C 
ENDBRANCH  18  20
ENDBRANCH  16  18
ENDBRANCH   1  16
BRANCH   1  21
ATOM     21  N   UNL     1       3.713   4.173  16.974  0.00  0.00    +0.000 NA
ATOM     22  H   UNL     1       3.622   3.959  15.975  0.00  0.00    +0.000 HD
BRANCH  21  23
ATOM     23  C   UNL     1       4.059   2.926  17.643  0.00  0.00    +0.000 C 
BRANCH  23  24
ATOM     24  C   UNL     1       3.218   2.778  18.904  0.00  0.00    +0.000 A 
ATOM     25  C   UNL     1       1.832   3.048  18.735  0.00  0.00    +0.000 A 
ATOM     26  C   UNL     1       0.929   3.028  19.801  0.00  0.00    +0.000 A 
ATOM     27  C   UNL     1       1.385   2.740  21.074  0.00  0.00    +0.000 A 
ATOM     28  C   UNL     1       2.740   2.483  21.267  0.00  0.00    +0.000 A 
ATOM     29  C   UNL     1       3.671   2.499  20.206  0.00  0.00    +0.000 A 
BRANCH  29  30
ATOM     30  O   UNL     1       4.920   2.260  20.701  0.00  0.00    +0.000 OA
ATOM     31  C   UNL     1       5.292   1.030  21.280  0.00  0.00    +0.000 C 
ENDBRANCH  29  30
ENDBRANCH  23  24
ENDBRANCH  21  23
ENDBRANCH   1  21
TORSDOF 10
ENDMDL
MODEL 4
REMARK VINA RESULT:      -7.1      1.080      2.197
REMARK  Name = 
REMARK  12 active torsions:
REMARK  status: ('A' for Active; 'I' for Inactive)
REMARK    1  A    between atoms: C_1  and  C_2
REMARK    2  A    between atoms: C_2  and  O_3
REMARK    3  A    between atoms: O_3  and  C_4
REMARK    4  A    between atoms: C_4  and  C_6
REMARK    5  A    between atoms: C_6  and  N_7
REMARK    6  A    between atoms: C_6  and  N_17
REMARK    7  A    between atoms: C_6  and  C_26
REMARK    8  A    between atoms: N_7  and  C_8
REMARK    9  A    between atoms: C_8  and  C_9
REMARK   10  A    between atoms: C_14  and  O_15
REMARK   11  A    between atoms: O_15  and  C_16
REMARK   12  A    between atoms: C_18  and  C_20
REMARK                            x       y       z     vdW  Elec       q    Type
REMARK                         _______ _______ _______ _____ _____    ______ ____
ROOT
ATOM      1  C   UNL     1       5.543   4.645  17.107  0.00  0.00    +0.000 C 
ENDROOT
BRANCH   1   2
ATOM      2  N   UNL     1       4.596   5.727  17.420  0.00  0.00    +0.000 N 
ATOM      3  C   UNL     1       4.278   6.132  18.694  0.00  0.00    +0.000 C 
ATOM      4  O   UNL     1       4.824   5.690  19.699  0.00  0.00    +0.000 OA
ATOM      5  H   UNL     1       3.943   5.928  16.676  0.00  0.00    +0.000 HD
BRANCH   3   6
ATOM      6  C   UNL     1       3.187   7.144  18.807  0.00  0.00    +0.000 A 
ATOM      7  C   UNL     1       2.437   7.188  19.989  0.00  0.00    +0.000 A 
ATOM      8  C   UNL     1       1.383   8.095  20.118  0.00  0.00    +0.000 A 
ATOM      9  C   UNL     1       1.078   8.965  19.072  0.00  0.00    +0.000 A 
ATOM     10  C   UNL     1       1.840   8.948  17.906  0.00  0.00    +0.000 A 
ATOM     11  C   UNL     1       2.897   8.044  17.771  0.00  0.00    +0.000 A 
ENDBRANCH   3   6
ENDBRANCH   1   2
BRANCH   1  12
ATOM     12  C   UNL     1       5.262   4.111  15.629  0.00  0.00    +0.000 C 
ATOM     13  F   UNL     1       3.987   3.743  15.381  0.00  0.00    +0.000 F 
ATOM     14  F   UNL     1       5.574   5.046  14.692  0.00  0.00    +0.000 F 
ATOM     15  F   UNL     1       6.047   3.030  15.349  0.00  0.00    +0.000 F 
ENDBRANCH   1  12
BRANCH   1  16
ATOM     16  C   UNL     1       7.025   5.087  17.000  0.00  0.00    +0.000 C 
ATOM     17  O   UNL     1       7.985   4.338  17.156  0.00  0.00    +0.000 OA
BRANCH  16  18
ATOM     18  O   UNL     1       7.115   6.389  16.581  0.00  0.00    +0.000 OA
BRANCH  18  20
ATOM     19  C   UNL     1       8.061   6.715  18.832  0.00  0.00    +0.000 C 
ATOM     20  C   UNL     1       7.595   7.352  17.533  0.00  0.00    +0.000 C 
ENDBRANCH  18  20
ENDBRANCH  16  18
ENDBRANCH   1  16
BRANCH   1  21
ATOM     21  N   UNL     1       5.290   3.546  18.085  0.00  0.00    +0.000 NA
ATOM     22  H   UNL     1       5.165   3.989  19.002  0.00  0.00    +0.000 HD
BRANCH  21  23
ATOM     23  C   UNL     1       4.134   2.686  17.869  0.00  0.00    +0.000 C 
BRANCH  23  24
ATOM     24  C   UNL     1       3.185   2.806  19.054  0.00  0.00    +0.000 A 
ATOM     25  C   UNL     1       3.746   2.446  20.310  0.00  0.00    +0.000 A 
ATOM     26  C   UNL     1       2.996   2.430  21.488  0.00  0.00    +0.000 A 
ATOM     27  C   UNL     1       1.657   2.771  21.448  0.00  0.00    +0.000 A 
ATOM     28  C   UNL     1       1.082   3.116  20.228  0.00  0.00    +0.000 A 
ATOM     29  C   UNL     1       1.818   3.138  19.024  0.00  0.00    +0.000 A 
BRANCH  29  30
ATOM     30  O   UNL     1       0.985   3.464  17.994  0.00  0.00    +0.000 OA
ATOM     31  C   UNL     1       1.159   4.618  17.204  0.00  0.00    +0.000 C 
ENDBRANCH  29  30
ENDBRANCH  23  24
ENDBRANCH  21  23
ENDBRANCH   1  21
TORSDOF 10
ENDMDL
MODEL 5
REMARK VINA RESULT:      -7.0      1.422      2.013
REMARK  Name = 
REMARK  12 active torsions:
REMARK  status: ('A' for Active; 'I' for Inactive)
REMARK    1  A    between atoms: C_1  and  C_2
REMARK    2  A    between atoms: C_2  and  O_3
REMARK    3  A    between atoms: O_3  and  C_4
REMARK    4  A    between atoms: C_4  and  C_6
REMARK    5  A    between atoms: C_6  and  N_7
REMARK    6  A    between atoms: C_6  and  N_17
REMARK    7  A    between atoms: C_6  and  C_26
REMARK    8  A    between atoms: N_7  and  C_8
REMARK    9  A    between atoms: C_8  and  C_9
REMARK   10  A    between atoms: C_14  and  O_15
REMARK   11  A    between atoms: O_15  and  C_16
REMARK   12  A    between atoms: C_18  and  C_20
REMARK                            x       y       z     vdW  Elec       q    Type
REMARK                         _______ _______ _______ _____ _____    ______ ____
ROOT
ATOM      1  C   UNL     1       5.594   5.325  17.573  0.00  0.00    +0.000 C 
ENDROOT
BRANCH   1   2
ATOM      2  N   UNL     1       4.677   6.339  18.116  0.00  0.00    +0.000 N 
ATOM      3  C   UNL     1       3.312   6.306  17.967  0.00  0.00    +0.000 C 
ATOM      4  O   UNL     1       2.712   5.374  17.440  0.00  0.00    +0.000 OA
ATOM      5  H   UNL     1       5.116   7.228  18.311  0.00  0.00    +0.000 HD
BRANCH   3   6
ATOM      6  C   UNL     1       2.568   7.501  18.463  0.00  0.00    +0.000 A 
ATOM      7  C   UNL     1       2.100   7.496  19.782  0.00  0.00    +0.000 A 
ATOM      8  C   UNL     1       1.367   8.579  20.271  0.00  0.00    +0.000 A 
ATOM      9  C   UNL     1       1.103   9.674  19.448  0.00  0.00    +0.000 A 
ATOM     10  C   UNL     1       1.593   9.698  18.144  0.00  0.00    +0.000 A 
ATOM     11  C   UNL     1       2.329   8.618  17.649  0.00  0.00    +0.000 A 
ENDBRANCH   3   6
ENDBRANCH   1   2
BRANCH   1  12
ATOM     12  C   UNL     1       5.576   5.399  15.978  0.00  0.00    +0.000 C 
ATOM     13  F   UNL     1       4.851   4.440  15.363  0.00  0.00    +0.000 F 
ATOM     14  F   UNL     1       5.079   6.587  15.539  0.00  0.00    +0.000 F 
ATOM     15  F   UNL     1       6.843   5.320  15.477  0.00  0.00    +0.000 F 
ENDBRANCH   1  12
BRANCH   1  16
ATOM     16  C   UNL     1       7.093   5.572  17.878  0.00  0.00    +0.000 C 
ATOM     17  O   UNL     1       7.994   4.779  17.619  0.00  0.00    +0.000 OA
BRANCH  16  18
ATOM     18  O   UNL     1       7.290   6.843  18.351  0.00  0.00    +0.000 OA
BRANCH  18  20
ATOM     19  C   UNL     1       8.331   9.058  18.072  0.00  0.00    +0.000 C 
ATOM     20  C   UNL     1       7.720   7.836  17.405  0.00  0.00    +0.000 C 
ENDBRANCH  18  20
ENDBRANCH  16  18
ENDBRANCH   1  16
BRANCH   1  21
ATOM     21  N   UNL     1       5.081   3.993  18.010  0.00  0.00    +0.000 NA
ATOM     22  H   UNL     1       5.719   3.289  17.624  0.00  0.00    +0.000 HD
BRANCH  21  23
ATOM     23  C   UNL     1       4.977   3.730  19.439  0.00  0.00    +0.000 C 
BRANCH  23  24
ATOM     24  C   UNL     1       3.529   3.419  19.793  0.00  0.00    +0.000 A 
ATOM     25  C   UNL     1       3.031   4.106  20.933  0.00  0.00    +0.000 A 
ATOM     26  C   UNL     1       1.748   3.886  21.440  0.00  0.00    +0.000 A 
ATOM     27  C   UNL     1       0.921   2.966  20.822  0.00  0.00    +0.000 A 
ATOM     28  C   UNL     1       1.391   2.271  19.710  0.00  0.00    +0.000 A 
ATOM     29  C   UNL     1       2.683   2.476  19.182  0.00  0.00    +0.000 A 
BRANCH  29  30
ATOM     30  O   UNL     1       2.878   1.628  18.131  0.00  0.00    +0.000 OA
ATOM     31  C   UNL     1       4.053   0.865  17.970  0.00  0.00    +0.000 C 
ENDBRANCH  29  30
ENDBRANCH  23  24
ENDBRANCH  21  23
ENDBRANCH   1  21
TORSDOF 10
ENDMDL
MODEL 6
REMARK VINA RESULT:      -7.0      2.342      5.431
REMARK  Name = 
REMARK  12 active torsions:
REMARK  status: ('A' for Active; 'I' for Inactive)
REMARK    1  A    between atoms: C_1  and  C_2
REMARK    2  A    between atoms: C_2  and  O_3
REMARK    3  A    between atoms: O_3  and  C_4
REMARK    4  A    between atoms: C_4  and  C_6
REMARK    5  A    between atoms: C_6  and  N_7
REMARK    6  A    between atoms: C_6  and  N_17
REMARK    7  A    between atoms: C_6  and  C_26
REMARK    8  A    between atoms: N_7  and  C_8
REMARK    9  A    between atoms: C_8  and  C_9
REMARK   10  A    between atoms: C_14  and  O_15
REMARK   11  A    between atoms: O_15  and  C_16
REMARK   12  A    between atoms: C_18  and  C_20
REMARK                            x       y       z     vdW  Elec       q    Type
REMARK                         _______ _______ _______ _____ _____    ______ ____
ROOT
ATOM      1  C   UNL     1       3.694   4.514  17.975  0.00  0.00    +0.000 C 
ENDROOT
BRANCH   1   2
ATOM      2  N   UNL     1       2.830   5.658  18.310  0.00  0.00    +0.000 N 
ATOM      3  C   UNL     1       3.152   6.969  18.058  0.00  0.00    +0.000 C 
ATOM      4  O   UNL     1       4.157   7.312  17.444  0.00  0.00    +0.000 OA
ATOM      5  H   UNL     1       2.149   5.461  19.030  0.00  0.00    +0.000 HD
BRANCH   3   6
ATOM      6  C   UNL     1       2.213   7.992  18.605  0.00  0.00    +0.000 A 
ATOM      7  C   UNL     1       1.889   7.943  19.966  0.00  0.00    +0.000 A 
ATOM      8  C   UNL     1       0.984   8.858  20.506  0.00  0.00    +0.000 A 
ATOM      9  C   UNL     1       0.404   9.831  19.693  0.00  0.00    +0.000 A 
ATOM     10  C   UNL     1       0.746   9.905  18.344  0.00  0.00    +0.000 A 
ATOM     11  C   UNL     1       1.652   8.993  17.798  0.00  0.00    +0.000 A 
ENDBRANCH   3   6
ENDBRANCH   1   2
BRANCH   1  12
ATOM     12  C   UNL     1       4.801   4.340  19.112  0.00  0.00    +0.000 C 
ATOM     13  F   UNL     1       5.089   5.458  19.813  0.00  0.00    +0.000 F 
ATOM     14  F   UNL     1       4.432   3.404  20.029  0.00  0.00    +0.000 F 
ATOM     15  F   UNL     1       5.974   3.893  18.579  0.00  0.00    +0.000 F 
ENDBRANCH   1  12
BRANCH   1  16
ATOM     16  C   UNL     1       2.991   3.134  18.013  0.00  0.00    +0.000 C 
ATOM     17  O   UNL     1       3.575   2.056  17.955  0.00  0.00    +0.000 OA
BRANCH  16  18
ATOM     18  O   UNL     1       1.649   3.278  18.251  0.00  0.00    +0.000 OA
BRANCH  18  20
ATOM     19  C   UNL     1       1.117   3.516  20.645  0.00  0.00    +0.000 C 
ATOM     20  C   UNL     1       1.115   2.624  19.413  0.00  0.00    +0.000 C 
ENDBRANCH  18  20
ENDBRANCH  16  18
ENDBRANCH   1  16
BRANCH   1  21
ATOM     21  N   UNL     1       4.364   4.837  16.681  0.00  0.00    +0.000 NA
ATOM     22  H   UNL     1       5.234   5.327  16.912  0.00  0.00    +0.000 HD
BRANCH  21  23
ATOM     23  C   UNL     1       4.721   3.736  15.797  0.00  0.00    +0.000 C 
BRANCH  23  24
ATOM     24  C   UNL     1       5.776   4.204  14.804  0.00  0.00    +0.000 A 
ATOM     25  C   UNL     1       5.535   3.830  13.454  0.00  0.00    +0.000 A 
ATOM     26  C   UNL     1       6.436   4.115  12.425  0.00  0.00    +0.000 A 
ATOM     27  C   UNL     1       7.612   4.782  12.716  0.00  0.00    +0.000 A 
ATOM     28  C   UNL     1       7.876   5.148  14.033  0.00  0.00    +0.000 A 
ATOM     29  C   UNL     1       6.982   4.870  15.089  0.00  0.00    +0.000 A 
BRANCH  29  30
ATOM     30  O   UNL     1       7.526   5.301  16.263  0.00  0.00    +0.000 OA
ATOM     31  C   UNL     1       7.283   6.584  16.794  0.00  0.00    +0.000 C 
ENDBRANCH  29  30
ENDBRANCH  23  24
ENDBRANCH  21  23
ENDBRANCH   1  21
TORSDOF 10
ENDMDL
MODEL 7
REMARK VINA RESULT:      -6.9      2.368      5.402
REMARK  Name = 
REMARK  12 active torsions:
REMARK  status: ('A' for Active; 'I' for Inactive)
REMARK    1  A    between atoms: C_1  and  C_2
REMARK    2  A    between atoms: C_2  and  O_3
REMARK    3  A    between atoms: O_3  and  C_4
REMARK    4  A    between atoms: C_4  and  C_6
REMARK    5  A    between atoms: C_6  and  N_7
REMARK    6  A    between atoms: C_6  and  N_17
REMARK    7  A    between atoms: C_6  and  C_26
REMARK    8  A    between atoms: N_7  and  C_8
REMARK    9  A    between atoms: C_8  and  C_9
REMARK   10  A    between atoms: C_14  and  O_15
REMARK   11  A    between atoms: O_15  and  C_16
REMARK   12  A    between atoms: C_18  and  C_20
REMARK                            x       y       z     vdW  Elec       q    Type
REMARK                         _______ _______ _______ _____ _____    ______ ____
ROOT
ATOM      1  C   UNL     1       3.604   4.411  17.936  0.00  0.00    +0.000 C 
ENDROOT
BRANCH   1   2
ATOM      2  N   UNL     1       2.773   5.573  18.288  0.00  0.00    +0.000 N 
ATOM      3  C   UNL     1       3.144   6.880  18.084  0.00  0.00    +0.000 C 
ATOM      4  O   UNL     1       4.174   7.206  17.502  0.00  0.00    +0.000 OA
ATOM      5  H   UNL     1       2.070   5.378  18.987  0.00  0.00    +0.000 HD
BRANCH   3   6
ATOM      6  C   UNL     1       2.229   7.917  18.643  0.00  0.00    +0.000 A 
ATOM      7  C   UNL     1       1.742   8.911  17.784  0.00  0.00    +0.000 A 
ATOM      8  C   UNL     1       0.914   9.921  18.278  0.00  0.00    +0.000 A 
ATOM      9  C   UNL     1       0.563   9.941  19.627  0.00  0.00    +0.000 A 
ATOM     10  C   UNL     1       1.018   8.937  20.480  0.00  0.00    +0.000 A 
ATOM     11  C   UNL     1       1.846   7.923  19.992  0.00  0.00    +0.000 A 
ENDBRANCH   3   6
ENDBRANCH   1   2
BRANCH   1  12
ATOM     12  C   UNL     1       4.600   4.091  19.142  0.00  0.00    +0.000 C 
ATOM     13  F   UNL     1       4.083   3.331  20.132  0.00  0.00    +0.000 F 
ATOM     14  F   UNL     1       5.715   3.442  18.711  0.00  0.00    +0.000 F 
ATOM     15  F   UNL     1       5.043   5.245  19.720  0.00  0.00    +0.000 F 
ENDBRANCH   1  12
BRANCH   1  16
ATOM     16  C   UNL     1       2.832   3.073  17.808  0.00  0.00    +0.000 C 
ATOM     17  O   UNL     1       3.361   1.965  17.804  0.00  0.00    +0.000 OA
BRANCH  16  18
ATOM     18  O   UNL     1       1.479   3.288  17.833  0.00  0.00    +0.000 OA
BRANCH  18  20
ATOM     19  C   UNL     1       0.859   3.204  20.215  0.00  0.00    +0.000 C 
ATOM     20  C   UNL     1       0.722   2.587  18.832  0.00  0.00    +0.000 C 
ENDBRANCH  18  20
ENDBRANCH  16  18
ENDBRANCH   1  16
BRANCH   1  21
ATOM     21  N   UNL     1       4.397   4.791  16.729  0.00  0.00    +0.000 NA
ATOM     22  H   UNL     1       5.342   5.018  17.056  0.00  0.00    +0.000 HD
BRANCH  21  23
ATOM     23  C   UNL     1       4.543   3.808  15.665  0.00  0.00    +0.000 C 
BRANCH  23  24
ATOM     24  C   UNL     1       5.612   4.276  14.686  0.00  0.00    +0.000 A 
ATOM     25  C   UNL     1       5.617   3.597  13.436  0.00  0.00    +0.000 A 
ATOM     26  C   UNL     1       6.574   3.850  12.451  0.00  0.00    +0.000 A 
ATOM     27  C   UNL     1       7.560   4.791  12.685  0.00  0.00    +0.000 A 
ATOM     28  C   UNL     1       7.583   5.460  13.906  0.00  0.00    +0.000 A 
ATOM     29  C   UNL     1       6.628   5.220  14.917  0.00  0.00    +0.000 A 
BRANCH  29  30
ATOM     30  O   UNL     1       6.930   5.980  16.009  0.00  0.00    +0.000 OA
ATOM     31  C   UNL     1       7.528   5.451  17.170  0.00  0.00    +0.000 C 
ENDBRANCH  29  30
ENDBRANCH  23  24
ENDBRANCH  21  23
ENDBRANCH   1  21
TORSDOF 10
ENDMDL
MODEL 8
REMARK VINA RESULT:      -6.9      2.201      5.442
REMARK  Name = 
REMARK  12 active torsions:
REMARK  status: ('A' for Active; 'I' for Inactive)
REMARK    1  A    between atoms: C_1  and  C_2
REMARK    2  A    between atoms: C_2  and  O_3
REMARK    3  A    between atoms: O_3  and  C_4
REMARK    4  A    between atoms: C_4  and  C_6
REMARK    5  A    between atoms: C_6  and  N_7
REMARK    6  A    between atoms: C_6  and  N_17
REMARK    7  A    between atoms: C_6  and  C_26
REMARK    8  A    between atoms: N_7  and  C_8
REMARK    9  A    between atoms: C_8  and  C_9
REMARK   10  A    between atoms: C_14  and  O_15
REMARK   11  A    between atoms: O_15  and  C_16
REMARK   12  A    between atoms: C_18  and  C_20
REMARK                            x       y       z     vdW  Elec       q    Type
REMARK                         _______ _______ _______ _____ _____    ______ ____
ROOT
ATOM      1  C   UNL     1       4.530   4.561  17.658  0.00  0.00    +0.000 C 
ENDROOT
BRANCH   1   2
ATOM      2  N   UNL     1       5.141   4.245  16.357  0.00  0.00    +0.000 N 
ATOM      3  C   UNL     1       5.640   5.185  15.488  0.00  0.00    +0.000 C 
ATOM      4  O   UNL     1       5.708   6.381  15.753  0.00  0.00    +0.000 OA
ATOM      5  H   UNL     1       4.874   3.344  15.987  0.00  0.00    +0.000 HD
BRANCH   3   6
ATOM      6  C   UNL     1       6.085   4.677  14.157  0.00  0.00    +0.000 A 
ATOM      7  C   UNL     1       5.289   3.729  13.503  0.00  0.00    +0.000 A 
ATOM      8  C   UNL     1       5.691   3.202  12.275  0.00  0.00    +0.000 A 
ATOM      9  C   UNL     1       6.884   3.623  11.690  0.00  0.00    +0.000 A 
ATOM     10  C   UNL     1       7.665   4.590  12.319  0.00  0.00    +0.000 A 
ATOM     11  C   UNL     1       7.268   5.123  13.549  0.00  0.00    +0.000 A 
ENDBRANCH   3   6
ENDBRANCH   1   2
BRANCH   1  12
ATOM     12  C   UNL     1       3.856   3.244  18.257  0.00  0.00    +0.000 C 
ATOM     13  F   UNL     1       4.296   2.874  19.479  0.00  0.00    +0.000 F 
ATOM     14  F   UNL     1       2.506   3.379  18.366  0.00  0.00    +0.000 F 
ATOM     15  F   UNL     1       4.055   2.180  17.426  0.00  0.00    +0.000 F 
ENDBRANCH   1  12
BRANCH   1  16
ATOM     16  C   UNL     1       5.536   4.931  18.777  0.00  0.00    +0.000 C 
ATOM     17  O   UNL     1       5.219   5.398  19.867  0.00  0.00    +0.000 OA
BRANCH  16  18
ATOM     18  O   UNL     1       6.806   4.544  18.437  0.00  0.00    +0.000 OA
BRANCH  18  20
ATOM     19  C   UNL     1       7.790   6.795  18.255  0.00  0.00    +0.000 C 
ATOM     20  C   UNL     1       7.884   5.399  18.850  0.00  0.00    +0.000 C 
ENDBRANCH  18  20
ENDBRANCH  16  18
ENDBRANCH   1  16
BRANCH   1  21
ATOM     21  N   UNL     1       3.473   5.585  17.406  0.00  0.00    +0.000 NA
ATOM     22  H   UNL     1       2.708   5.386  18.059  0.00  0.00    +0.000 HD
BRANCH  21  23
ATOM     23  C   UNL     1       3.821   6.989  17.577  0.00  0.00    +0.000 C 
BRANCH  23  24
ATOM     24  C   UNL     1       2.743   7.682  18.399  0.00  0.00    +0.000 A 
ATOM     25  C   UNL     1       2.303   8.930  17.879  0.00  0.00    +0.000 A 
ATOM     26  C   UNL     1       1.372   9.733  18.543  0.00  0.00    +0.000 A 
ATOM     27  C   UNL     1       0.851   9.312  19.753  0.00  0.00    +0.000 A 
ATOM     28  C   UNL     1       1.274   8.099  20.288  0.00  0.00    +0.000 A 
ATOM     29  C   UNL     1       2.215   7.272  19.637  0.00  0.00    +0.000 A 
BRANCH  29  30
ATOM     30  O   UNL     1       2.469   6.182  20.416  0.00  0.00    +0.000 OA
ATOM     31  C   UNL     1       1.497   5.203  20.705  0.00  0.00    +0.000 C 
ENDBRANCH  29  30
ENDBRANCH  23  24
ENDBRANCH  21  23
ENDBRANCH   1  21
TORSDOF 10
ENDMDL
MODEL 9
REMARK VINA RESULT:      -6.9      2.027      4.510
REMARK  Name = 
REMARK  12 active torsions:
REMARK  status: ('A' for Active; 'I' for Inactive)
REMARK    1  A    between atoms: C_1  and  C_2
REMARK    2  A    between atoms: C_2  and  O_3
REMARK    3  A    between atoms: O_3  and  C_4
REMARK    4  A    between atoms: C_4  and  C_6
REMARK    5  A    between atoms: C_6  and  N_7
REMARK    6  A    between atoms: C_6  and  N_17
REMARK    7  A    between atoms: C_6  and  C_26
REMARK    8  A    between atoms: N_7  and  C_8
REMARK    9  A    between atoms: C_8  and  C_9
REMARK   10  A    between atoms: C_14  and  O_15
REMARK   11  A    between atoms: O_15  and  C_16
REMARK   12  A    between atoms: C_18  and  C_20
REMARK                            x       y       z     vdW  Elec       q    Type
REMARK                         _______ _______ _______ _____ _____    ______ ____
ROOT
ATOM      1  C   UNL     1       6.277   6.312  17.048  0.00  0.00    +0.000 C 
ENDROOT
BRANCH   1   2
ATOM      2  N   UNL     1       6.948   7.611  17.217  0.00  0.00    +0.000 N 
ATOM      3  C   UNL     1       7.941   7.854  18.135  0.00  0.00    +0.000 C 
ATOM      4  O   UNL     1       8.432   6.983  18.846  0.00  0.00    +0.000 OA
ATOM      5  H   UNL     1       6.418   8.396  16.866  0.00  0.00    +0.000 HD
BRANCH   3   6
ATOM      6  C   UNL     1       8.392   9.271  18.254  0.00  0.00    +0.000 A 
ATOM      7  C   UNL     1       9.328   9.594  19.244  0.00  0.00    +0.000 A 
ATOM      8  C   UNL     1       9.746  10.916  19.412  0.00  0.00    +0.000 A 
ATOM      9  C   UNL     1       9.236  11.920  18.589  0.00  0.00    +0.000 A 
ATOM     10  C   UNL     1       8.329  11.600  17.581  0.00  0.00    +0.000 A 
ATOM     11  C   UNL     1       7.908  10.279  17.407  0.00  0.00    +0.000 A 
ENDBRANCH   3   6
ENDBRANCH   1   2
BRANCH   1  12
ATOM     12  C   UNL     1       4.944   6.517  16.192  0.00  0.00    +0.000 C 
ATOM     13  F   UNL     1       5.119   7.073  14.974  0.00  0.00    +0.000 F 
ATOM     14  F   UNL     1       4.302   5.337  15.979  0.00  0.00    +0.000 F 
ATOM     15  F   UNL     1       4.057   7.306  16.864  0.00  0.00    +0.000 F 
ENDBRANCH   1  12
BRANCH   1  16
ATOM     16  C   UNL     1       7.049   5.289  16.178  0.00  0.00    +0.000 C 
ATOM     17  O   UNL     1       7.897   4.512  16.608  0.00  0.00    +0.000 OA
BRANCH  16  18
ATOM     18  O   UNL     1       6.566   5.277  14.895  0.00  0.00    +0.000 OA
BRANCH  18  20
ATOM     19  C   UNL     1       6.456   4.098  12.735  0.00  0.00    +0.000 C 
ATOM     20  C   UNL     1       6.441   3.999  14.253  0.00  0.00    +0.000 C 
ENDBRANCH  18  20
ENDBRANCH  16  18
ENDBRANCH   1  16
BRANCH   1  21
ATOM     21  N   UNL     1       5.917   5.825  18.412  0.00  0.00    +0.000 NA
ATOM     22  H   UNL     1       5.039   6.287  18.669  0.00  0.00    +0.000 HD
BRANCH  21  23
ATOM     23  C   UNL     1       5.715   4.395  18.600  0.00  0.00    +0.000 C 
BRANCH  23  24
ATOM     24  C   UNL     1       4.229   4.111  18.768  0.00  0.00    +0.000 A 
ATOM     25  C   UNL     1       3.820   2.807  18.375  0.00  0.00    +0.000 A 
ATOM     26  C   UNL     1       2.483   2.402  18.395  0.00  0.00    +0.000 A 
ATOM     27  C   UNL     1       1.509   3.292  18.808  0.00  0.00    +0.000 A 
ATOM     28  C   UNL     1       1.883   4.579  19.187  0.00  0.00    +0.000 A 
ATOM     29  C   UNL     1       3.226   5.011  19.173  0.00  0.00    +0.000 A 
BRANCH  29  30
ATOM     30  O   UNL     1       3.280   6.322  19.546  0.00  0.00    +0.000 OA
ATOM     31  C   UNL     1       2.134   7.071  19.882  0.00  0.00    +0.000 C 
ENDBRANCH  29  30
ENDBRANCH  23  24
ENDBRANCH  21  23
ENDBRANCH   1  21
TORSDOF 10
ENDMDL
