MODEL 1
REMARK VINA RESULT:      -7.6      0.000      0.000
REMARK  Name = 
REMARK  5 active torsions:
REMARK  status: ('A' for Active; 'I' for Inactive)
REMARK    1  A    between atoms: C_1  and  C_2
REMARK    2  A    between atoms: C_7  and  S_8
REMARK    3  A    between atoms: S_8  and  C_9
REMARK    4  A    between atoms: C_9  and  C_10
REMARK    5  A    between atoms: C_9  and  C_16
REMARK                            x       y       z     vdW  Elec       q    Type
REMARK                         _______ _______ _______ _____ _____    ______ ____
ROOT
ATOM      1  C   UNL     1       2.794   6.254  19.430  0.00  0.00    +0.000 C 
ENDROOT
BRANCH   1   2
ATOM      2  C   UNL     1       2.043   5.060  20.113  0.00  0.00    +0.000 C 
ATOM      3  C   UNL     1       2.789   4.342  21.262  0.00  0.00    +0.000 C 
ATOM      4  N   UNL     1       1.922   3.342  21.930  0.00  0.00    +0.000 NA
ATOM      5  C   UNL     1       1.429   2.399  20.918  0.00  0.00    +0.000 C 
ATOM      6  C   UNL     1       0.744   3.111  19.738  0.00  0.00    +0.000 C 
ATOM      7  O   UNL     1       1.595   4.095  19.129  0.00  0.00    +0.000 OA
ATOM      8  H   UNL     1       1.123   3.830  22.344  0.00  0.00    +0.000 HD
ENDBRANCH   1   2
BRANCH   1   9
ATOM      9  C   UNL     1       2.126   7.623  19.439  0.00  0.00    +0.000 A 
ATOM     10  C   UNL     1       1.486   8.174  20.559  0.00  0.00    +0.000 A 
ATOM     11  C   UNL     1       0.685   9.319  20.438  0.00  0.00    +0.000 A 
ATOM     12  C   UNL     1       0.554   9.958  19.209  0.00  0.00    +0.000 A 
ATOM     13  C   UNL     1       1.263   9.485  18.110  0.00  0.00    +0.000 A 
ATOM     14  C   UNL     1       2.057   8.337  18.232  0.00  0.00    +0.000 A 
ENDBRANCH   1   9
BRANCH   1  15
ATOM     15  S   UNL     1       3.370   5.659  17.774  0.00  0.00    +0.000 S 
BRANCH  15  22
ATOM     16  C   UNL     1       5.459   4.175  15.450  0.00  0.00    +0.000 C 
ATOM     17  C   UNL     1       5.920   4.680  16.782  0.00  0.00    +0.000 A 
ATOM     18  C   UNL     1       7.318   4.631  17.008  0.00  0.00    +0.000 A 
ATOM     19  C   UNL     1       7.884   4.998  18.226  0.00  0.00    +0.000 A 
ATOM     20  C   UNL     1       7.058   5.387  19.266  0.00  0.00    +0.000 A 
ATOM     21  C   UNL     1       5.681   5.458  19.057  0.00  0.00    +0.000 A 
ATOM     22  C   UNL     1       5.084   5.144  17.813  0.00  0.00    +0.000 A 
ENDBRANCH  15  22
ENDBRANCH   1  15
TORSDOF 4
ENDMDL
MODEL 2
REMARK VINA RESULT:      -7.5      2.256      4.682
REMARK  Name = 
REMARK  5 active torsions:
REMARK  status: ('A' for Active; 'I' for Inactive)
REMARK    1  A    between atoms: C_1  and  C_2
REMARK    2  A    between atoms: C_7  and  S_8
REMARK    3  A    between atoms: S_8  and  C_9
REMARK    4  A    between atoms: C_9  and  C_10
REMARK    5  A    between atoms: C_9  and  C_16
REMARK                            x       y       z     vdW  Elec       q    Type
REMARK                         _______ _______ _______ _____ _____    ______ ____
ROOT
ATOM      1  C   UNL     1       2.617   6.120  18.446  0.00  0.00    +0.000 C 
ENDROOT
BRANCH   1   2
ATOM      2  C   UNL     1       1.910   7.518  18.503  0.00  0.00    +0.000 C 
ATOM      3  C   UNL     1       2.461   8.609  17.555  0.00  0.00    +0.000 C 
ATOM      4  N   UNL     1       1.617   9.828  17.584  0.00  0.00    +0.000 NA
ATOM      5  C   UNL     1       1.522  10.299  18.972  0.00  0.00    +0.000 C 
ATOM      6  C   UNL     1       1.038   9.198  19.932  0.00  0.00    +0.000 C 
ATOM      7  O   UNL     1       1.855   8.018  19.862  0.00  0.00    +0.000 OA
ATOM      8  H   UNL     1       0.681   9.583  17.254  0.00  0.00    +0.000 HD
ENDBRANCH   1   2
BRANCH   1   9
ATOM      9  C   UNL     1       2.024   4.980  19.264  0.00  0.00    +0.000 A 
ATOM     10  C   UNL     1       2.173   4.854  20.654  0.00  0.00    +0.000 A 
ATOM     11  C   UNL     1       1.818   3.667  21.309  0.00  0.00    +0.000 A 
ATOM     12  C   UNL     1       1.261   2.610  20.596  0.00  0.00    +0.000 A 
ATOM     13  C   UNL     1       1.012   2.755  19.235  0.00  0.00    +0.000 A 
ATOM     14  C   UNL     1       1.374   3.940  18.581  0.00  0.00    +0.000 A 
ENDBRANCH   1   9
BRANCH   1  15
ATOM     15  S   UNL     1       4.429   6.415  18.687  0.00  0.00    +0.000 S 
BRANCH  15  22
ATOM     16  C   UNL     1       7.576   7.214  17.494  0.00  0.00    +0.000 C 
ATOM     17  C   UNL     1       6.722   6.122  16.928  0.00  0.00    +0.000 A 
ATOM     18  C   UNL     1       7.330   5.324  15.926  0.00  0.00    +0.000 A 
ATOM     19  C   UNL     1       6.635   4.319  15.259  0.00  0.00    +0.000 A 
ATOM     20  C   UNL     1       5.298   4.113  15.549  0.00  0.00    +0.000 A 
ATOM     21  C   UNL     1       4.688   4.877  16.543  0.00  0.00    +0.000 A 
ATOM     22  C   UNL     1       5.384   5.867  17.276  0.00  0.00    +0.000 A 
ENDBRANCH  15  22
ENDBRANCH   1  15
TORSDOF 4
ENDMDL
MODEL 3
REMARK VINA RESULT:      -7.5      2.095      6.108
REMARK  Name = 
REMARK  5 active torsions:
REMARK  status: ('A' for Active; 'I' for Inactive)
REMARK    1  A    between atoms: C_1  and  C_2
REMARK    2  A    between atoms: C_7  and  S_8
REMARK    3  A    between atoms: S_8  and  C_9
REMARK    4  A    between atoms: C_9  and  C_10
REMARK    5  A    between atoms: C_9  and  C_16
REMARK                            x       y       z     vdW  Elec       q    Type
REMARK                         _______ _______ _______ _____ _____    ______ ____
ROOT
ATOM      1  C   UNL     1       3.260   6.028  19.059  0.00  0.00    +0.000 C 
ENDROOT
BRANCH   1   2
ATOM      2  C   UNL     1       4.581   5.664  18.297  0.00  0.00    +0.000 C 
ATOM      3  C   UNL     1       5.607   4.800  19.068  0.00  0.00    +0.000 C 
ATOM      4  N   UNL     1       6.734   4.391  18.196  0.00  0.00    +0.000 NA
ATOM      5  C   UNL     1       7.346   5.597  17.624  0.00  0.00    +0.000 C 
ATOM      6  C   UNL     1       6.318   6.494  16.912  0.00  0.00    +0.000 C 
ATOM      7  O   UNL     1       5.222   6.852  17.770  0.00  0.00    +0.000 OA
ATOM      8  H   UNL     1       6.363   3.816  17.435  0.00  0.00    +0.000 HD
ENDBRANCH   1   2
BRANCH   1   9
ATOM      9  C   UNL     1       2.256   4.917  19.331  0.00  0.00    +0.000 A 
ATOM     10  C   UNL     1       1.843   4.532  20.616  0.00  0.00    +0.000 A 
ATOM     11  C   UNL     1       1.111   3.352  20.811  0.00  0.00    +0.000 A 
ATOM     12  C   UNL     1       0.738   2.568  19.724  0.00  0.00    +0.000 A 
ATOM     13  C   UNL     1       1.052   2.986  18.435  0.00  0.00    +0.000 A 
ATOM     14  C   UNL     1       1.788   4.162  18.243  0.00  0.00    +0.000 A 
ENDBRANCH   1   9
BRANCH   1  15
ATOM     15  S   UNL     1       2.571   7.548  18.256  0.00  0.00    +0.000 S 
BRANCH  15  22
ATOM     16  C   UNL     1       0.347  10.168  17.862  0.00  0.00    +0.000 C 
ATOM     17  C   UNL     1       0.606   9.484  19.169  0.00  0.00    +0.000 A 
ATOM     18  C   UNL     1      -0.216   9.892  20.249  0.00  0.00    +0.000 A 
ATOM     19  C   UNL     1      -0.042   9.396  21.539  0.00  0.00    +0.000 A 
ATOM     20  C   UNL     1       0.989   8.508  21.789  0.00  0.00    +0.000 A 
ATOM     21  C   UNL     1       1.798   8.083  20.735  0.00  0.00    +0.000 A 
ATOM     22  C   UNL     1       1.608   8.527  19.405  0.00  0.00    +0.000 A 
ENDBRANCH  15  22
ENDBRANCH   1  15
TORSDOF 4
ENDMDL
MODEL 4
REMARK VINA RESULT:      -7.5      2.133      4.714
REMARK  Name = 
REMARK  5 active torsions:
REMARK  status: ('A' for Active; 'I' for Inactive)
REMARK    1  A    between atoms: C_1  and  C_2
REMARK    2  A    between atoms: C_7  and  S_8
REMARK    3  A    between atoms: S_8  and  C_9
REMARK    4  A    between atoms: C_9  and  C_10
REMARK    5  A    between atoms: C_9  and  C_16
REMARK                            x       y       z     vdW  Elec       q    Type
REMARK                         _______ _______ _______ _____ _____    ______ ____
ROOT
ATOM      1  C   UNL     1       3.874   5.425  17.529  0.00  0.00    +0.000 C 
ENDROOT
BRANCH   1   2
ATOM      2  C   UNL     1       5.309   5.021  18.011  0.00  0.00    +0.000 C 
ATOM      3  C   UNL     1       5.824   5.708  19.298  0.00  0.00    +0.000 C 
ATOM      4  N   UNL     1       7.117   5.133  19.739  0.00  0.00    +0.000 NA
ATOM      5  C   UNL     1       8.079   5.239  18.634  0.00  0.00    +0.000 C 
ATOM      6  C   UNL     1       7.545   4.616  17.332  0.00  0.00    +0.000 C 
ATOM      7  O   UNL     1       6.278   5.170  16.943  0.00  0.00    +0.000 OA
ATOM      8  H   UNL     1       6.975   4.143  19.959  0.00  0.00    +0.000 HD
ENDBRANCH   1   2
BRANCH   1   9
ATOM      9  C   UNL     1       3.178   6.584  18.230  0.00  0.00    +0.000 A 
ATOM     10  C   UNL     1       2.691   6.525  19.544  0.00  0.00    +0.000 A 
ATOM     11  C   UNL     1       1.851   7.530  20.045  0.00  0.00    +0.000 A 
ATOM     12  C   UNL     1       1.528   8.632  19.259  0.00  0.00    +0.000 A 
ATOM     13  C   UNL     1       2.084   8.757  17.990  0.00  0.00    +0.000 A 
ATOM     14  C   UNL     1       2.918   7.749  17.490  0.00  0.00    +0.000 A 
ENDBRANCH   1   9
BRANCH   1  15
ATOM     15  S   UNL     1       2.885   3.865  17.397  0.00  0.00    +0.000 S 
BRANCH  15  22
ATOM     16  C   UNL     1       4.660   2.217  19.867  0.00  0.00    +0.000 C 
ATOM     17  C   UNL     1       3.249   2.691  20.030  0.00  0.00    +0.000 A 
ATOM     18  C   UNL     1       2.694   2.537  21.325  0.00  0.00    +0.000 A 
ATOM     19  C   UNL     1       1.371   2.866  21.607  0.00  0.00    +0.000 A 
ATOM     20  C   UNL     1       0.554   3.320  20.586  0.00  0.00    +0.000 A 
ATOM     21  C   UNL     1       1.087   3.494  19.310  0.00  0.00    +0.000 A 
ATOM     22  C   UNL     1       2.442   3.221  19.008  0.00  0.00    +0.000 A 
ENDBRANCH  15  22
ENDBRANCH   1  15
TORSDOF 4
ENDMDL
MODEL 5
REMARK VINA RESULT:      -7.5      2.177      4.519
REMARK  Name = 
REMARK  5 active torsions:
REMARK  status: ('A' for Active; 'I' for Inactive)
REMARK    1  A    between atoms: C_1  and  C_2
REMARK    2  A    between atoms: C_7  and  S_8
REMARK    3  A    between atoms: S_8  and  C_9
REMARK    4  A    between atoms: C_9  and  C_10
REMARK    5  A    between atoms: C_9  and  C_16
REMARK                            x       y       z     vdW  Elec       q    Type
REMARK                         _______ _______ _______ _____ _____    ______ ____
ROOT
ATOM      1  C   UNL     1       2.949   6.636  18.014  0.00  0.00    +0.000 C 
ENDROOT
BRANCH   1   2
ATOM      2  C   UNL     1       2.429   7.600  19.135  0.00  0.00    +0.000 C 
ATOM      3  C   UNL     1       1.807   6.935  20.385  0.00  0.00    +0.000 C 
ATOM      4  N   UNL     1       1.500   7.935  21.435  0.00  0.00    +0.000 NA
ATOM      5  C   UNL     1       0.621   8.963  20.861  0.00  0.00    +0.000 C 
ATOM      6  C   UNL     1       1.205   9.582  19.579  0.00  0.00    +0.000 C 
ATOM      7  O   UNL     1       1.521   8.589  18.590  0.00  0.00    +0.000 OA
ATOM      8  H   UNL     1       2.375   8.377  21.729  0.00  0.00    +0.000 HD
ENDBRANCH   1   2
BRANCH   1   9
ATOM      9  C   UNL     1       3.120   5.161  18.356  0.00  0.00    +0.000 A 
ATOM     10  C   UNL     1       4.040   4.678  19.299  0.00  0.00    +0.000 A 
ATOM     11  C   UNL     1       4.320   3.307  19.391  0.00  0.00    +0.000 A 
ATOM     12  C   UNL     1       3.650   2.397  18.581  0.00  0.00    +0.000 A 
ATOM     13  C   UNL     1       2.662   2.848  17.711  0.00  0.00    +0.000 A 
ATOM     14  C   UNL     1       2.389   4.218  17.616  0.00  0.00    +0.000 A 
ENDBRANCH   1   9
BRANCH   1  15
ATOM     15  S   UNL     1       4.419   7.449  17.235  0.00  0.00    +0.000 S 
BRANCH  15  22
ATOM     16  C   UNL     1       7.444   6.204  18.361  0.00  0.00    +0.000 C 
ATOM     17  C   UNL     1       6.718   5.673  17.163  0.00  0.00    +0.000 A 
ATOM     18  C   UNL     1       7.285   4.522  16.562  0.00  0.00    +0.000 A 
ATOM     19  C   UNL     1       6.761   3.961  15.400  0.00  0.00    +0.000 A 
ATOM     20  C   UNL     1       5.678   4.564  14.785  0.00  0.00    +0.000 A 
ATOM     21  C   UNL     1       5.097   5.688  15.372  0.00  0.00    +0.000 A 
ATOM     22  C   UNL     1       5.574   6.247  16.582  0.00  0.00    +0.000 A 
ENDBRANCH  15  22
ENDBRANCH   1  15
TORSDOF 4
ENDMDL
MODEL 6
REMARK VINA RESULT:      -7.4      0.260      1.080
REMARK  Name = 
REMARK  5 active torsions:
REMARK  status: ('A' for Active; 'I' for Inactive)
REMARK    1  A    between atoms: C_1  and  C_2
REMARK    2  A    between atoms: C_7  and  S_8
REMARK    3  A    between atoms: S_8  and  C_9
REMARK    4  A    between atoms: C_9  and  C_10
REMARK    5  A    between atoms: C_9  and  C_16
REMARK                            x       y       z     vdW  Elec       q    Type
REMARK                         _______ _______ _______ _____ _____    ______ ____
ROOT
ATOM      1  C   UNL     1       2.819   6.179  19.315  0.00  0.00    +0.000 C 
ENDROOT
BRANCH   1   2
ATOM      2  C   UNL     1       2.086   5.023  20.078  0.00  0.00    +0.000 C 
ATOM      3  C   UNL     1       2.878   4.333  21.214  0.00  0.00    +0.000 C 
ATOM      4  N   UNL     1       2.030   3.373  21.959  0.00  0.00    +0.000 NA
ATOM      5  C   UNL     1       1.473   2.403  21.008  0.00  0.00    +0.000 C 
ATOM      6  C   UNL     1       0.740   3.085  19.839  0.00  0.00    +0.000 C 
ATOM      7  O   UNL     1       1.574   4.032  19.152  0.00  0.00    +0.000 OA
ATOM      8  H   UNL     1       1.261   3.888  22.395  0.00  0.00    +0.000 HD
ENDBRANCH   1   2
BRANCH   1   9
ATOM      9  C   UNL     1       2.103   7.516  19.174  0.00  0.00    +0.000 A 
ATOM     10  C   UNL     1       2.114   8.290  18.004  0.00  0.00    +0.000 A 
ATOM     11  C   UNL     1       1.647   9.612  18.013  0.00  0.00    +0.000 A 
ATOM     12  C   UNL     1       1.118  10.163  19.176  0.00  0.00    +0.000 A 
ATOM     13  C   UNL     1       1.007   9.377  20.319  0.00  0.00    +0.000 A 
ATOM     14  C   UNL     1       1.479   8.059  20.309  0.00  0.00    +0.000 A 
ENDBRANCH   1   9
BRANCH   1  15
ATOM     15  S   UNL     1       3.481   5.460  17.742  0.00  0.00    +0.000 S 
BRANCH  15  22
ATOM     16  C   UNL     1       5.743   3.957  15.599  0.00  0.00    +0.000 C 
ATOM     17  C   UNL     1       6.118   4.561  16.917  0.00  0.00    +0.000 A 
ATOM     18  C   UNL     1       7.506   4.598  17.203  0.00  0.00    +0.000 A 
ATOM     19  C   UNL     1       7.998   5.063  18.419  0.00  0.00    +0.000 A 
ATOM     20  C   UNL     1       7.108   5.467  19.400  0.00  0.00    +0.000 A 
ATOM     21  C   UNL     1       5.740   5.454  19.130  0.00  0.00    +0.000 A 
ATOM     22  C   UNL     1       5.215   5.038  17.883  0.00  0.00    +0.000 A 
ENDBRANCH  15  22
ENDBRANCH   1  15
TORSDOF 4
ENDMDL
MODEL 7
REMARK VINA RESULT:      -7.4      2.307      4.773
REMARK  Name = 
REMARK  5 active torsions:
REMARK  status: ('A' for Active; 'I' for Inactive)
REMARK    1  A    between atoms: C_1  and  C_2
REMARK    2  A    between atoms: C_7  and  S_8
REMARK    3  A    between atoms: S_8  and  C_9
REMARK    4  A    between atoms: C_9  and  C_10
REMARK    5  A    between atoms: C_9  and  C_16
REMARK                            x       y       z     vdW  Elec       q    Type
REMARK                         _______ _______ _______ _____ _____    ______ ____
ROOT
ATOM      1  C   UNL     1       3.851   5.828  17.357  0.00  0.00    +0.000 C 
ENDROOT
BRANCH   1   2
ATOM      2  C   UNL     1       5.405   5.678  17.491  0.00  0.00    +0.000 C 
ATOM      3  C   UNL     1       6.053   4.496  16.733  0.00  0.00    +0.000 C 
ATOM      4  N   UNL     1       7.533   4.551  16.805  0.00  0.00    +0.000 NA
ATOM      5  C   UNL     1       7.932   4.586  18.218  0.00  0.00    +0.000 C 
ATOM      6  C   UNL     1       7.239   5.720  18.994  0.00  0.00    +0.000 C 
ATOM      7  O   UNL     1       5.808   5.660  18.883  0.00  0.00    +0.000 OA
ATOM      8  H   UNL     1       7.848   5.412  16.352  0.00  0.00    +0.000 HD
ENDBRANCH   1   2
BRANCH   1   9
ATOM      9  C   UNL     1       3.129   6.741  18.339  0.00  0.00    +0.000 A 
ATOM     10  C   UNL     1       2.847   6.393  19.669  0.00  0.00    +0.000 A 
ATOM     11  C   UNL     1       1.973   7.168  20.444  0.00  0.00    +0.000 A 
ATOM     12  C   UNL     1       1.409   8.327  19.921  0.00  0.00    +0.000 A 
ATOM     13  C   UNL     1       1.757   8.742  18.639  0.00  0.00    +0.000 A 
ATOM     14  C   UNL     1       2.625   7.963  17.864  0.00  0.00    +0.000 A 
ENDBRANCH   1   9
BRANCH   1  15
ATOM     15  S   UNL     1       3.151   4.122  17.193  0.00  0.00    +0.000 S 
BRANCH  15  22
ATOM     16  C   UNL     1       4.806   2.566  19.803  0.00  0.00    +0.000 C 
ATOM     17  C   UNL     1       3.367   2.980  19.856  0.00  0.00    +0.000 A 
ATOM     18  C   UNL     1       2.725   2.808  21.108  0.00  0.00    +0.000 A 
ATOM     19  C   UNL     1       1.372   3.081  21.288  0.00  0.00    +0.000 A 
ATOM     20  C   UNL     1       0.614   3.494  20.206  0.00  0.00    +0.000 A 
ATOM     21  C   UNL     1       1.233   3.684  18.970  0.00  0.00    +0.000 A 
ATOM     22  C   UNL     1       2.618   3.468  18.772  0.00  0.00    +0.000 A 
ENDBRANCH  15  22
ENDBRANCH   1  15
TORSDOF 4
ENDMDL
MODEL 8
REMARK VINA RESULT:      -7.4      1.719      5.572
REMARK  Name = 
REMARK  5 active torsions:
REMARK  status: ('A' for Active; 'I' for Inactive)
REMARK    1  A    between atoms: C_1  and  C_2
REMARK    2  A    between atoms: C_7  and  S_8
REMARK    3  A    between atoms: S_8  and  C_9
REMARK    4  A    between atoms: C_9  and  C_10
REMARK    5  A    between atoms: C_9  and  C_16
REMARK                            x       y       z     vdW  Elec       q    Type
REMARK                         _______ _______ _______ _____ _____    ______ ____
ROOT
ATOM      1  C   UNL     1       3.234   5.631  18.714  0.00  0.00    +0.000 C 
ENDROOT
BRANCH   1   2
ATOM      2  C   UNL     1       2.646   4.183  18.835  0.00  0.00    +0.000 C 
ATOM      3  C   UNL     1       2.353   3.444  17.508  0.00  0.00    +0.000 C 
ATOM      4  N   UNL     1       1.954   2.037  17.748  0.00  0.00    +0.000 NA
ATOM      5  C   UNL     1       0.797   2.026  18.653  0.00  0.00    +0.000 C 
ATOM      6  C   UNL     1       1.060   2.816  19.947  0.00  0.00    +0.000 C 
ATOM      7  O   UNL     1       1.473   4.167  19.686  0.00  0.00    +0.000 OA
ATOM      8  H   UNL     1       2.732   1.551  18.201  0.00  0.00    +0.000 HD
ENDBRANCH   1   2
BRANCH   1   9
ATOM      9  C   UNL     1       4.721   5.782  18.422  0.00  0.00    +0.000 A 
ATOM     10  C   UNL     1       5.735   5.230  19.220  0.00  0.00    +0.000 A 
ATOM     11  C   UNL     1       7.074   5.606  19.041  0.00  0.00    +0.000 A 
ATOM     12  C   UNL     1       7.425   6.496  18.031  0.00  0.00    +0.000 A 
ATOM     13  C   UNL     1       6.447   6.974  17.166  0.00  0.00    +0.000 A 
ATOM     14  C   UNL     1       5.109   6.603  17.351  0.00  0.00    +0.000 A 
ENDBRANCH   1   9
BRANCH   1  15
ATOM     15  S   UNL     1       2.604   6.596  20.164  0.00  0.00    +0.000 S 
BRANCH  15  22
ATOM     16  C   UNL     1       0.423   8.762  21.752  0.00  0.00    +0.000 C 
ATOM     17  C   UNL     1       1.006   9.012  20.395  0.00  0.00    +0.000 A 
ATOM     18  C   UNL     1       0.708  10.273  19.822  0.00  0.00    +0.000 A 
ATOM     19  C   UNL     1       1.120  10.617  18.537  0.00  0.00    +0.000 A 
ATOM     20  C   UNL     1       1.807   9.689  17.775  0.00  0.00    +0.000 A 
ATOM     21  C   UNL     1       2.123   8.448  18.329  0.00  0.00    +0.000 A 
ATOM     22  C   UNL     1       1.766   8.093  19.651  0.00  0.00    +0.000 A 
ENDBRANCH  15  22
ENDBRANCH   1  15
TORSDOF 4
ENDMDL
MODEL 9
REMARK VINA RESULT:      -7.4      2.225      6.232
REMARK  Name = 
REMARK  5 active torsions:
REMARK  status: ('A' for Active; 'I' for Inactive)
REMARK    1  A    between atoms: C_1  and  C_2
REMARK    2  A    between atoms: C_7  and  S_8
REMARK    3  A    between atoms: S_8  and  C_9
REMARK    4  A    between atoms: C_9  and  C_10
REMARK    5  A    between atoms: C_9  and  C_16
REMARK                            x       y       z     vdW  Elec       q    Type
REMARK                         _______ _______ _______ _____ _____    ______ ____
ROOT
ATOM      1  C   UNL     1       3.144   6.399  19.071  0.00  0.00    +0.000 C 
ENDROOT
BRANCH   1   2
ATOM      2  C   UNL     1       4.509   6.183  18.332  0.00  0.00    +0.000 C 
ATOM      3  C   UNL     1       4.558   6.586  16.840  0.00  0.00    +0.000 C 
ATOM      4  N   UNL     1       5.933   6.486  16.296  0.00  0.00    +0.000 NA
ATOM      5  C   UNL     1       6.424   5.119  16.515  0.00  0.00    +0.000 C 
ATOM      6  C   UNL     1       6.317   4.687  17.987  0.00  0.00    +0.000 C 
ATOM      7  O   UNL     1       4.981   4.823  18.498  0.00  0.00    +0.000 OA
ATOM      8  H   UNL     1       6.533   7.138  16.807  0.00  0.00    +0.000 HD
ENDBRANCH   1   2
BRANCH   1   9
ATOM      9  C   UNL     1       2.224   5.199  19.250  0.00  0.00    +0.000 A 
ATOM     10  C   UNL     1       1.805   4.713  20.498  0.00  0.00    +0.000 A 
ATOM     11  C   UNL     1       1.165   3.470  20.607  0.00  0.00    +0.000 A 
ATOM     12  C   UNL     1       0.889   2.720  19.468  0.00  0.00    +0.000 A 
ATOM     13  C   UNL     1       1.206   3.232  18.214  0.00  0.00    +0.000 A 
ATOM     14  C   UNL     1       1.851   4.471  18.109  0.00  0.00    +0.000 A 
ENDBRANCH   1   9
BRANCH   1  15
ATOM     15  S   UNL     1       2.357   7.904  18.332  0.00  0.00    +0.000 S 
BRANCH  15  22
ATOM     16  C   UNL     1      -0.091  10.335  18.079  0.00  0.00    +0.000 C 
ATOM     17  C   UNL     1       0.306   9.682  19.368  0.00  0.00    +0.000 A 
ATOM     18  C   UNL     1      -0.475  10.030  20.498  0.00  0.00    +0.000 A 
ATOM     19  C   UNL     1      -0.179   9.559  21.774  0.00  0.00    +0.000 A 
ATOM     20  C   UNL     1       0.934   8.758  21.959  0.00  0.00    +0.000 A 
ATOM     21  C   UNL     1       1.704   8.392  20.855  0.00  0.00    +0.000 A 
ATOM     22  C   UNL     1       1.395   8.811  19.540  0.00  0.00    +0.000 A 
ENDBRANCH  15  22
ENDBRANCH   1  15
TORSDOF 4
ENDMDL
