MODEL 1
REMARK VINA RESULT:      -8.1      0.000      0.000
REMARK  Name = 
REMARK  11 active torsions:
REMARK  status: ('A' for Active; 'I' for Inactive)
REMARK    1  A    between atoms: C_1  and  O_2
REMARK    2  A    between atoms: O_2  and  C_3
REMARK    3  A    between atoms: C_6  and  C_7
REMARK    4  A    between atoms: C_7  and  C_8
REMARK    5  A    between atoms: C_8  and  N_9
REMARK    6  A    between atoms: C_10  and  C_12
REMARK    7  A    between atoms: C_12  and  S_13
REMARK    8  A    between atoms: S_13  and  C_14
REMARK    9  A    between atoms: C_16  and  O_17
REMARK   10  A    between atoms: C_25  and  O_26
REMARK   11  A    between atoms: O_26  and  C_27
REMARK                            x       y       z     vdW  Elec       q    Type
REMARK                         _______ _______ _______ _____ _____    ______ ____
ROOT
ATOM      1  N   UNL     1       7.376   6.506  17.931  0.00  0.00    +0.000 N 
ATOM      2  C   UNL     1       6.802   5.526  18.705  0.00  0.00    +0.000 C 
ATOM      3  O   UNL     1       7.019   5.440  19.914  0.00  0.00    +0.000 OA
ATOM      4  H   UNL     1       7.029   6.614  16.981  0.00  0.00    +0.000 HD
ENDROOT
BRANCH   1   5
ATOM      5  C   UNL     1       8.238   7.542  18.477  0.00  0.00    +0.000 C 
BRANCH   5   6
ATOM      6  C   UNL     1       8.042   8.953  17.877  0.00  0.00    +0.000 C 
BRANCH   6  10
ATOM      7  C   UNL     1      10.206  12.336  19.589  0.00  0.00    +0.000 A 
ATOM      8  C   UNL     1       9.886  11.213  20.358  0.00  0.00    +0.000 A 
ATOM      9  C   UNL     1       9.195  10.121  19.828  0.00  0.00    +0.000 A 
ATOM     10  C   UNL     1       8.801  10.107  18.497  0.00  0.00    +0.000 A 
ATOM     11  C   UNL     1       9.159  11.214  17.706  0.00  0.00    +0.000 A 
ATOM     12  C   UNL     1       9.850  12.329  18.232  0.00  0.00    +0.000 A 
BRANCH   7  14
ATOM     13  C   UNL     1      10.246  14.066  21.253  0.00  0.00    +0.000 C 
ATOM     14  O   UNL     1      10.826  13.436  20.116  0.00  0.00    +0.000 OA
ENDBRANCH   7  14
BRANCH  12  15
ATOM     15  O   UNL     1      10.086  13.295  17.286  0.00  0.00    +0.000 OA
ATOM     16  C   UNL     1      11.377  13.376  16.697  0.00  0.00    +0.000 C 
ENDBRANCH  12  15
ENDBRANCH   6  10
ENDBRANCH   5   6
ENDBRANCH   1   5
BRANCH   2  17
ATOM     17  C   UNL     1       5.855   4.529  18.026  0.00  0.00    +0.000 C 
BRANCH  17  18
ATOM     18  S   UNL     1       4.499   5.263  17.043  0.00  0.00    +0.000 S 
BRANCH  18  19
ATOM     19  C   UNL     1       3.204   5.316  18.265  0.00  0.00    +0.000 A 
ATOM     20  N   UNL     1       3.094   6.445  18.989  0.00  0.00    +0.000 NA
ATOM     21  C   UNL     1       2.199   6.429  19.982  0.00  0.00    +0.000 A 
ATOM     22  N   UNL     1       1.458   5.396  20.383  0.00  0.00    +0.000 NA
ATOM     23  C   UNL     1       1.644   4.291  19.663  0.00  0.00    +0.000 A 
ATOM     24  C   UNL     1       2.455   4.205  18.551  0.00  0.00    +0.000 A 
ATOM     25  C   UNL     1       2.393   2.839  17.954  0.00  0.00    +0.000 C 
ATOM     26  C   UNL     1       1.191   2.235  18.709  0.00  0.00    +0.000 C 
ATOM     27  C   UNL     1       1.160   2.930  20.069  0.00  0.00    +0.000 C 
BRANCH  21  28
ATOM     28  O   UNL     1       2.224   7.522  20.786  0.00  0.00    +0.000 OA
ATOM     29  H   UNL     1       3.122   7.844  20.605  0.00  0.00    +0.000 HD
ENDBRANCH  21  28
ENDBRANCH  18  19
ENDBRANCH  17  18
ENDBRANCH   2  17
TORSDOF 9
ENDMDL
MODEL 2
REMARK VINA RESULT:      -8.0      1.878      2.373
REMARK  Name = 
REMARK  11 active torsions:
REMARK  status: ('A' for Active; 'I' for Inactive)
REMARK    1  A    between atoms: C_1  and  O_2
REMARK    2  A    between atoms: O_2  and  C_3
REMARK    3  A    between atoms: C_6  and  C_7
REMARK    4  A    between atoms: C_7  and  C_8
REMARK    5  A    between atoms: C_8  and  N_9
REMARK    6  A    between atoms: C_10  and  C_12
REMARK    7  A    between atoms: C_12  and  S_13
REMARK    8  A    between atoms: S_13  and  C_14
REMARK    9  A    between atoms: C_16  and  O_17
REMARK   10  A    between atoms: C_25  and  O_26
REMARK   11  A    between atoms: O_26  and  C_27
REMARK                            x       y       z     vdW  Elec       q    Type
REMARK                         _______ _______ _______ _____ _____    ______ ____
ROOT
ATOM      1  N   UNL     1       7.751   7.111  18.064  0.00  0.00    +0.000 N 
ATOM      2  C   UNL     1       7.606   5.849  18.588  0.00  0.00    +0.000 C 
ATOM      3  O   UNL     1       8.213   5.487  19.597  0.00  0.00    +0.000 OA
ATOM      4  H   UNL     1       7.103   7.390  17.332  0.00  0.00    +0.000 HD
ENDROOT
BRANCH   1   5
ATOM      5  C   UNL     1       8.587   8.131  18.677  0.00  0.00    +0.000 C 
BRANCH   5   6
ATOM      6  C   UNL     1       8.410   9.559  18.114  0.00  0.00    +0.000 C 
BRANCH   6  10
ATOM      7  C   UNL     1      10.932  12.787  19.626  0.00  0.00    +0.000 A 
ATOM      8  C   UNL     1      10.447  11.785  20.473  0.00  0.00    +0.000 A 
ATOM      9  C   UNL     1       9.639  10.744  20.008  0.00  0.00    +0.000 A 
ATOM     10  C   UNL     1       9.291  10.661  18.667  0.00  0.00    +0.000 A 
ATOM     11  C   UNL     1       9.813  11.639  17.801  0.00  0.00    +0.000 A 
ATOM     12  C   UNL     1      10.623  12.702  18.260  0.00  0.00    +0.000 A 
BRANCH   7  14
ATOM     13  C   UNL     1      10.999  15.055  20.408  0.00  0.00    +0.000 C 
ATOM     14  O   UNL     1      11.671  13.843  20.085  0.00  0.00    +0.000 OA
ENDBRANCH   7  14
BRANCH  12  15
ATOM     15  O   UNL     1      11.012  13.542  17.246  0.00  0.00    +0.000 OA
ATOM     16  C   UNL     1      12.333  13.433  16.736  0.00  0.00    +0.000 C 
ENDBRANCH  12  15
ENDBRANCH   6  10
ENDBRANCH   5   6
ENDBRANCH   1   5
BRANCH   2  17
ATOM     17  C   UNL     1       6.643   4.881  17.890  0.00  0.00    +0.000 C 
BRANCH  17  18
ATOM     18  S   UNL     1       4.921   5.468  17.705  0.00  0.00    +0.000 S 
BRANCH  18  19
ATOM     19  C   UNL     1       4.035   4.122  18.464  0.00  0.00    +0.000 A 
ATOM     20  N   UNL     1       4.450   2.876  18.170  0.00  0.00    +0.000 NA
ATOM     21  C   UNL     1       3.706   1.875  18.649  0.00  0.00    +0.000 A 
ATOM     22  N   UNL     1       2.558   1.971  19.320  0.00  0.00    +0.000 NA
ATOM     23  C   UNL     1       2.170   3.227  19.539  0.00  0.00    +0.000 A 
ATOM     24  C   UNL     1       2.897   4.346  19.194  0.00  0.00    +0.000 A 
ATOM     25  C   UNL     1       2.197   5.589  19.630  0.00  0.00    +0.000 C 
ATOM     26  C   UNL     1       1.102   5.010  20.551  0.00  0.00    +0.000 C 
ATOM     27  C   UNL     1       0.798   3.614  20.010  0.00  0.00    +0.000 C 
BRANCH  21  28
ATOM     28  O   UNL     1       4.061   0.642  18.206  0.00  0.00    +0.000 OA
ATOM     29  H   UNL     1       5.024   0.753  18.153  0.00  0.00    +0.000 HD
ENDBRANCH  21  28
ENDBRANCH  18  19
ENDBRANCH  17  18
ENDBRANCH   2  17
TORSDOF 9
ENDMDL
MODEL 3
REMARK VINA RESULT:      -7.8      5.111      6.703
REMARK  Name = 
REMARK  11 active torsions:
REMARK  status: ('A' for Active; 'I' for Inactive)
REMARK    1  A    between atoms: C_1  and  O_2
REMARK    2  A    between atoms: O_2  and  C_3
REMARK    3  A    between atoms: C_6  and  C_7
REMARK    4  A    between atoms: C_7  and  C_8
REMARK    5  A    between atoms: C_8  and  N_9
REMARK    6  A    between atoms: C_10  and  C_12
REMARK    7  A    between atoms: C_12  and  S_13
REMARK    8  A    between atoms: S_13  and  C_14
REMARK    9  A    between atoms: C_16  and  O_17
REMARK   10  A    between atoms: C_25  and  O_26
REMARK   11  A    between atoms: O_26  and  C_27
REMARK                            x       y       z     vdW  Elec       q    Type
REMARK                         _______ _______ _______ _____ _____    ______ ____
ROOT
ATOM      1  N   UNL     1       3.998   6.485  17.492  0.00  0.00    +0.000 N 
ATOM      2  C   UNL     1       5.333   6.168  17.405  0.00  0.00    +0.000 C 
ATOM      3  O   UNL     1       6.211   7.033  17.424  0.00  0.00    +0.000 OA
ATOM      4  H   UNL     1       3.345   5.718  17.631  0.00  0.00    +0.000 HD
ENDROOT
BRANCH   1   5
ATOM      5  C   UNL     1       3.518   7.847  17.663  0.00  0.00    +0.000 C 
BRANCH   5   6
ATOM      6  C   UNL     1       1.998   7.988  17.909  0.00  0.00    +0.000 C 
BRANCH   6  10
ATOM      7  C   UNL     1       0.633  10.235  21.394  0.00  0.00    +0.000 A 
ATOM      8  C   UNL     1       1.062   8.909  21.506  0.00  0.00    +0.000 A 
ATOM      9  C   UNL     1       1.503   8.174  20.403  0.00  0.00    +0.000 A 
ATOM     10  C   UNL     1       1.539   8.744  19.138  0.00  0.00    +0.000 A 
ATOM     11  C   UNL     1       1.151  10.092  19.025  0.00  0.00    +0.000 A 
ATOM     12  C   UNL     1       0.695  10.844  20.131  0.00  0.00    +0.000 A 
BRANCH   7  14
ATOM     13  C   UNL     1      -0.942  10.390  23.198  0.00  0.00    +0.000 C 
ATOM     14  O   UNL     1       0.140  10.941  22.457  0.00  0.00    +0.000 OA
ENDBRANCH   7  14
BRANCH  12  15
ATOM     15  O   UNL     1       0.362  12.131  19.789  0.00  0.00    +0.000 OA
ATOM     16  C   UNL     1      -0.950  12.395  19.312  0.00  0.00    +0.000 C 
ENDBRANCH  12  15
ENDBRANCH   6  10
ENDBRANCH   5   6
ENDBRANCH   1   5
BRANCH   2  17
ATOM     17  C   UNL     1       5.721   4.689  17.295  0.00  0.00    +0.000 C 
BRANCH  17  18
ATOM     18  S   UNL     1       4.329   3.510  17.167  0.00  0.00    +0.000 S 
BRANCH  18  19
ATOM     19  C   UNL     1       4.036   3.165  18.889  0.00  0.00    +0.000 A 
ATOM     20  N   UNL     1       4.971   2.444  19.535  0.00  0.00    +0.000 NA
ATOM     21  C   UNL     1       4.684   2.090  20.792  0.00  0.00    +0.000 A 
ATOM     22  N   UNL     1       3.546   2.306  21.452  0.00  0.00    +0.000 NA
ATOM     23  C   UNL     1       2.638   2.980  20.747  0.00  0.00    +0.000 A 
ATOM     24  C   UNL     1       2.846   3.494  19.485  0.00  0.00    +0.000 A 
ATOM     25  C   UNL     1       1.643   4.236  19.009  0.00  0.00    +0.000 C 
ATOM     26  C   UNL     1       0.817   4.334  20.309  0.00  0.00    +0.000 C 
ATOM     27  C   UNL     1       1.194   3.107  21.136  0.00  0.00    +0.000 C 
BRANCH  21  28
ATOM     28  O   UNL     1       5.574   1.236  21.358  0.00  0.00    +0.000 OA
ATOM     29  H   UNL     1       5.186   1.152  22.245  0.00  0.00    +0.000 HD
ENDBRANCH  21  28
ENDBRANCH  18  19
ENDBRANCH  17  18
ENDBRANCH   2  17
TORSDOF 9
ENDMDL
MODEL 4
REMARK VINA RESULT:      -7.7      1.089      1.089
REMARK  Name = 
REMARK  11 active torsions:
REMARK  status: ('A' for Active; 'I' for Inactive)
REMARK    1  A    between atoms: C_1  and  O_2
REMARK    2  A    between atoms: O_2  and  C_3
REMARK    3  A    between atoms: C_6  and  C_7
REMARK    4  A    between atoms: C_7  and  C_8
REMARK    5  A    between atoms: C_8  and  N_9
REMARK    6  A    between atoms: C_10  and  C_12
REMARK    7  A    between atoms: C_12  and  S_13
REMARK    8  A    between atoms: S_13  and  C_14
REMARK    9  A    between atoms: C_16  and  O_17
REMARK   10  A    between atoms: C_25  and  O_26
REMARK   11  A    between atoms: O_26  and  C_27
REMARK                            x       y       z     vdW  Elec       q    Type
REMARK                         _______ _______ _______ _____ _____    ______ ____
ROOT
ATOM      1  N   UNL     1       7.113   6.966  18.156  0.00  0.00    +0.000 N 
ATOM      2  C   UNL     1       6.833   6.261  17.009  0.00  0.00    +0.000 C 
ATOM      3  O   UNL     1       7.553   6.326  16.012  0.00  0.00    +0.000 OA
ATOM      4  H   UNL     1       6.570   6.741  18.986  0.00  0.00    +0.000 HD
ENDROOT
BRANCH   1   5
ATOM      5  C   UNL     1       8.296   7.799  18.303  0.00  0.00    +0.000 C 
BRANCH   5   6
ATOM      6  C   UNL     1       8.133   9.267  17.848  0.00  0.00    +0.000 C 
BRANCH   6  10
ATOM      7  C   UNL     1      10.580  12.371  19.703  0.00  0.00    +0.000 A 
ATOM      8  C   UNL     1      10.073  11.302  20.449  0.00  0.00    +0.000 A 
ATOM      9  C   UNL     1       9.288  10.299  19.873  0.00  0.00    +0.000 A 
ATOM     10  C   UNL     1       8.987  10.324  18.519  0.00  0.00    +0.000 A 
ATOM     11  C   UNL     1       9.531  11.371  17.753  0.00  0.00    +0.000 A 
ATOM     12  C   UNL     1      10.318  12.396  18.325  0.00  0.00    +0.000 A 
BRANCH   7  14
ATOM     13  C   UNL     1      10.587  14.483  20.842  0.00  0.00    +0.000 C 
ATOM     14  O   UNL     1      11.295  13.389  20.271  0.00  0.00    +0.000 OA
ENDBRANCH   7  14
BRANCH  12  15
ATOM     15  O   UNL     1      10.735  13.317  17.397  0.00  0.00    +0.000 OA
ATOM     16  C   UNL     1      12.068  13.243  16.909  0.00  0.00    +0.000 C 
ENDBRANCH  12  15
ENDBRANCH   6  10
ENDBRANCH   5   6
ENDBRANCH   1   5
BRANCH   2  17
ATOM     17  C   UNL     1       5.592   5.361  16.997  0.00  0.00    +0.000 C 
BRANCH  17  18
ATOM     18  S   UNL     1       5.408   4.240  18.429  0.00  0.00    +0.000 S 
BRANCH  18  19
ATOM     19  C   UNL     1       3.768   4.672  18.972  0.00  0.00    +0.000 A 
ATOM     20  N   UNL     1       3.603   5.900  19.498  0.00  0.00    +0.000 NA
ATOM     21  C   UNL     1       2.398   6.169  20.010  0.00  0.00    +0.000 A 
ATOM     22  N   UNL     1       1.365   5.334  20.126  0.00  0.00    +0.000 NA
ATOM     23  C   UNL     1       1.602   4.119  19.635  0.00  0.00    +0.000 A 
ATOM     24  C   UNL     1       2.759   3.745  18.986  0.00  0.00    +0.000 A 
ATOM     25  C   UNL     1       2.672   2.331  18.518  0.00  0.00    +0.000 C 
ATOM     26  C   UNL     1       1.171   2.038  18.725  0.00  0.00    +0.000 C 
ATOM     27  C   UNL     1       0.730   2.923  19.888  0.00  0.00    +0.000 C 
BRANCH  21  28
ATOM     28  O   UNL     1       2.312   7.352  20.669  0.00  0.00    +0.000 OA
ATOM     29  H   UNL     1       2.305   7.034  21.587  0.00  0.00    +0.000 HD
ENDBRANCH  21  28
ENDBRANCH  18  19
ENDBRANCH  17  18
ENDBRANCH   2  17
TORSDOF 9
ENDMDL
MODEL 5
REMARK VINA RESULT:      -7.4      4.635      7.013
REMARK  Name = 
REMARK  11 active torsions:
REMARK  status: ('A' for Active; 'I' for Inactive)
REMARK    1  A    between atoms: C_1  and  O_2
REMARK    2  A    between atoms: O_2  and  C_3
REMARK    3  A    between atoms: C_6  and  C_7
REMARK    4  A    between atoms: C_7  and  C_8
REMARK    5  A    between atoms: C_8  and  N_9
REMARK    6  A    between atoms: C_10  and  C_12
REMARK    7  A    between atoms: C_12  and  S_13
REMARK    8  A    between atoms: S_13  and  C_14
REMARK    9  A    between atoms: C_16  and  O_17
REMARK   10  A    between atoms: C_25  and  O_26
REMARK   11  A    between atoms: O_26  and  C_27
REMARK                            x       y       z     vdW  Elec       q    Type
REMARK                         _______ _______ _______ _____ _____    ______ ____
ROOT
ATOM      1  N   UNL     1       3.045   7.254  18.721  0.00  0.00    +0.000 N 
ATOM      2  C   UNL     1       2.698   5.924  18.750  0.00  0.00    +0.000 C 
ATOM      3  O   UNL     1       2.000   5.413  17.873  0.00  0.00    +0.000 OA
ATOM      4  H   UNL     1       3.749   7.567  19.385  0.00  0.00    +0.000 HD
ENDROOT
BRANCH   1   5
ATOM      5  C   UNL     1       2.664   8.148  17.639  0.00  0.00    +0.000 C 
BRANCH   5   6
ATOM      6  C   UNL     1       1.332   8.906  17.844  0.00  0.00    +0.000 C 
BRANCH   6  10
ATOM      7  C   UNL     1       1.309  12.316  20.570  0.00  0.00    +0.000 A 
ATOM      8  C   UNL     1       1.745  12.445  19.248  0.00  0.00    +0.000 A 
ATOM      9  C   UNL     1       1.760  11.366  18.361  0.00  0.00    +0.000 A 
ATOM     10  C   UNL     1       1.328  10.110  18.763  0.00  0.00    +0.000 A 
ATOM     11  C   UNL     1       0.845   9.983  20.079  0.00  0.00    +0.000 A 
ATOM     12  C   UNL     1       0.834  11.064  20.989  0.00  0.00    +0.000 A 
BRANCH   7  14
ATOM     13  C   UNL     1       2.375  14.330  21.323  0.00  0.00    +0.000 C 
ATOM     14  O   UNL     1       1.351  13.352  21.463  0.00  0.00    +0.000 OA
ENDBRANCH   7  14
BRANCH  12  15
ATOM     15  O   UNL     1       0.330  10.712  22.216  0.00  0.00    +0.000 OA
ATOM     16  C   UNL     1       0.494   9.374  22.666  0.00  0.00    +0.000 C 
ENDBRANCH  12  15
ENDBRANCH   6  10
ENDBRANCH   5   6
ENDBRANCH   1   5
BRANCH   2  17
ATOM     17  C   UNL     1       3.217   5.066  19.910  0.00  0.00    +0.000 C 
BRANCH  17  18
ATOM     18  S   UNL     1       4.165   3.576  19.434  0.00  0.00    +0.000 S 
BRANCH  18  19
ATOM     19  C   UNL     1       5.544   4.324  18.591  0.00  0.00    +0.000 A 
ATOM     20  N   UNL     1       6.478   4.917  19.358  0.00  0.00    +0.000 NA
ATOM     21  C   UNL     1       7.444   5.577  18.711  0.00  0.00    +0.000 A 
ATOM     22  N   UNL     1       7.545   5.778  17.397  0.00  0.00    +0.000 NA
ATOM     23  C   UNL     1       6.566   5.212  16.693  0.00  0.00    +0.000 A 
ATOM     24  C   UNL     1       5.573   4.417  17.224  0.00  0.00    +0.000 A 
ATOM     25  C   UNL     1       4.673   3.903  16.152  0.00  0.00    +0.000 C 
ATOM     26  C   UNL     1       5.475   4.272  14.885  0.00  0.00    +0.000 C 
ATOM     27  C   UNL     1       6.283   5.515  15.250  0.00  0.00    +0.000 C 
BRANCH  21  28
ATOM     28  O   UNL     1       8.277   6.291  19.511  0.00  0.00    +0.000 OA
ATOM     29  H   UNL     1       8.152   7.178  19.136  0.00  0.00    +0.000 HD
ENDBRANCH  21  28
ENDBRANCH  18  19
ENDBRANCH  17  18
ENDBRANCH   2  17
TORSDOF 9
ENDMDL
MODEL 6
REMARK VINA RESULT:      -7.4      3.891      7.181
REMARK  Name = 
REMARK  11 active torsions:
REMARK  status: ('A' for Active; 'I' for Inactive)
REMARK    1  A    between atoms: C_1  and  O_2
REMARK    2  A    between atoms: O_2  and  C_3
REMARK    3  A    between atoms: C_6  and  C_7
REMARK    4  A    between atoms: C_7  and  C_8
REMARK    5  A    between atoms: C_8  and  N_9
REMARK    6  A    between atoms: C_10  and  C_12
REMARK    7  A    between atoms: C_12  and  S_13
REMARK    8  A    between atoms: S_13  and  C_14
REMARK    9  A    between atoms: C_16  and  O_17
REMARK   10  A    between atoms: C_25  and  O_26
REMARK   11  A    between atoms: O_26  and  C_27
REMARK                            x       y       z     vdW  Elec       q    Type
REMARK                         _______ _______ _______ _____ _____    ______ ____
ROOT
ATOM      1  N   UNL     1       2.292   4.967  18.574  0.00  0.00    +0.000 N 
ATOM      2  C   UNL     1       2.198   5.541  19.819  0.00  0.00    +0.000 C 
ATOM      3  O   UNL     1       2.188   4.866  20.849  0.00  0.00    +0.000 OA
ATOM      4  H   UNL     1       2.456   5.587  17.784  0.00  0.00    +0.000 HD
ENDROOT
BRANCH   1   5
ATOM      5  C   UNL     1       2.436   3.534  18.372  0.00  0.00    +0.000 C 
BRANCH   5   6
ATOM      6  C   UNL     1       3.857   3.056  17.998  0.00  0.00    +0.000 C 
BRANCH   6  10
ATOM      7  C   UNL     1       6.855   6.088  17.057  0.00  0.00    +0.000 A 
ATOM      8  C   UNL     1       6.615   5.687  18.375  0.00  0.00    +0.000 A 
ATOM      9  C   UNL     1       5.660   4.718  18.696  0.00  0.00    +0.000 A 
ATOM     10  C   UNL     1       4.910   4.104  17.702  0.00  0.00    +0.000 A 
ATOM     11  C   UNL     1       5.178   4.471  16.370  0.00  0.00    +0.000 A 
ATOM     12  C   UNL     1       6.133   5.455  16.033  0.00  0.00    +0.000 A 
BRANCH   7  14
ATOM     13  C   UNL     1       7.941   8.139  17.671  0.00  0.00    +0.000 C 
ATOM     14  O   UNL     1       7.742   7.081  16.741  0.00  0.00    +0.000 OA
ENDBRANCH   7  14
BRANCH  12  15
ATOM     15  O   UNL     1       6.223   5.659  14.679  0.00  0.00    +0.000 OA
ATOM     16  C   UNL     1       6.957   4.730  13.894  0.00  0.00    +0.000 C 
ENDBRANCH  12  15
ENDBRANCH   6  10
ENDBRANCH   5   6
ENDBRANCH   1   5
BRANCH   2  17
ATOM     17  C   UNL     1       2.120   7.070  19.907  0.00  0.00    +0.000 C 
BRANCH  17  18
ATOM     18  S   UNL     1       1.145   7.736  21.303  0.00  0.00    +0.000 S 
BRANCH  18  19
ATOM     19  C   UNL     1       0.721   9.344  20.665  0.00  0.00    +0.000 A 
ATOM     20  N   UNL     1       1.227   9.676  19.463  0.00  0.00    +0.000 NA
ATOM     21  C   UNL     1       1.002  10.927  19.050  0.00  0.00    +0.000 A 
ATOM     22  N   UNL     1       0.397  11.904  19.726  0.00  0.00    +0.000 NA
ATOM     23  C   UNL     1      -0.039  11.533  20.928  0.00  0.00    +0.000 A 
ATOM     24  C   UNL     1       0.033  10.250  21.429  0.00  0.00    +0.000 A 
ATOM     25  C   UNL     1      -0.594  10.172  22.780  0.00  0.00    +0.000 C 
ATOM     26  C   UNL     1      -1.314  11.535  22.857  0.00  0.00    +0.000 C 
ATOM     27  C   UNL     1      -0.492  12.489  21.992  0.00  0.00    +0.000 C 
BRANCH  21  28
ATOM     28  O   UNL     1       1.655  11.275  17.912  0.00  0.00    +0.000 OA
ATOM     29  H   UNL     1       0.904  11.565  17.369  0.00  0.00    +0.000 HD
ENDBRANCH  21  28
ENDBRANCH  18  19
ENDBRANCH  17  18
ENDBRANCH   2  17
TORSDOF 9
ENDMDL
MODEL 7
REMARK VINA RESULT:      -7.4      4.151      7.113
REMARK  Name = 
REMARK  11 active torsions:
REMARK  status: ('A' for Active; 'I' for Inactive)
REMARK    1  A    between atoms: C_1  and  O_2
REMARK    2  A    between atoms: O_2  and  C_3
REMARK    3  A    between atoms: C_6  and  C_7
REMARK    4  A    between atoms: C_7  and  C_8
REMARK    5  A    between atoms: C_8  and  N_9
REMARK    6  A    between atoms: C_10  and  C_12
REMARK    7  A    between atoms: C_12  and  S_13
REMARK    8  A    between atoms: S_13  and  C_14
REMARK    9  A    between atoms: C_16  and  O_17
REMARK   10  A    between atoms: C_25  and  O_26
REMARK   11  A    between atoms: O_26  and  C_27
REMARK                            x       y       z     vdW  Elec       q    Type
REMARK                         _______ _______ _______ _____ _____    ______ ____
ROOT
ATOM      1  N   UNL     1       1.638   4.175  19.204  0.00  0.00    +0.000 N 
ATOM      2  C   UNL     1       1.920   4.707  20.440  0.00  0.00    +0.000 C 
ATOM      3  O   UNL     1       2.657   4.134  21.244  0.00  0.00    +0.000 OA
ATOM      4  H   UNL     1       1.156   4.773  18.537  0.00  0.00    +0.000 HD
ENDROOT
BRANCH   1   5
ATOM      5  C   UNL     1       2.218   2.929  18.728  0.00  0.00    +0.000 C 
BRANCH   5   6
ATOM      6  C   UNL     1       3.022   3.033  17.413  0.00  0.00    +0.000 C 
BRANCH   6  10
ATOM      7  C   UNL     1       6.671   5.430  17.334  0.00  0.00    +0.000 A 
ATOM      8  C   UNL     1       6.210   4.846  18.518  0.00  0.00    +0.000 A 
ATOM      9  C   UNL     1       5.045   4.076  18.563  0.00  0.00    +0.000 A 
ATOM     10  C   UNL     1       4.296   3.852  17.415  0.00  0.00    +0.000 A 
ATOM     11  C   UNL     1       4.778   4.399  16.212  0.00  0.00    +0.000 A 
ATOM     12  C   UNL     1       5.949   5.188  16.154  0.00  0.00    +0.000 A 
BRANCH   7  14
ATOM     13  C   UNL     1       7.621   7.617  17.608  0.00  0.00    +0.000 C 
ATOM     14  O   UNL     1       7.774   6.238  17.293  0.00  0.00    +0.000 OA
ENDBRANCH   7  14
BRANCH  12  15
ATOM     15  O   UNL     1       6.227   5.624  14.883  0.00  0.00    +0.000 OA
ATOM     16  C   UNL     1       6.894   4.746  13.988  0.00  0.00    +0.000 C 
ENDBRANCH  12  15
ENDBRANCH   6  10
ENDBRANCH   5   6
ENDBRANCH   1   5
BRANCH   2  17
ATOM     17  C   UNL     1       1.302   6.062  20.804  0.00  0.00    +0.000 C 
BRANCH  17  18
ATOM     18  S   UNL     1       1.994   7.512  19.931  0.00  0.00    +0.000 S 
BRANCH  18  19
ATOM     19  C   UNL     1       1.094   8.828  20.724  0.00  0.00    +0.000 A 
ATOM     20  N   UNL     1       0.992   8.776  22.065  0.00  0.00    +0.000 NA
ATOM     21  C   UNL     1       0.214   9.701  22.636  0.00  0.00    +0.000 A 
ATOM     22  N   UNL     1      -0.531  10.622  22.023  0.00  0.00    +0.000 NA
ATOM     23  C   UNL     1      -0.429  10.594  20.695  0.00  0.00    +0.000 A 
ATOM     24  C   UNL     1       0.415   9.765  19.989  0.00  0.00    +0.000 A 
ATOM     25  C   UNL     1       0.316  10.030  18.524  0.00  0.00    +0.000 C 
ATOM     26  C   UNL     1      -0.488  11.347  18.511  0.00  0.00    +0.000 C 
ATOM     27  C   UNL     1      -1.360  11.316  19.765  0.00  0.00    +0.000 C 
BRANCH  21  28
ATOM     28  O   UNL     1       0.009   9.527  23.967  0.00  0.00    +0.000 OA
ATOM     29  H   UNL     1      -0.926   9.786  24.028  0.00  0.00    +0.000 HD
ENDBRANCH  21  28
ENDBRANCH  18  19
ENDBRANCH  17  18
ENDBRANCH   2  17
TORSDOF 9
ENDMDL
MODEL 8
REMARK VINA RESULT:      -7.4      2.975     10.011
REMARK  Name = 
REMARK  11 active torsions:
REMARK  status: ('A' for Active; 'I' for Inactive)
REMARK    1  A    between atoms: C_1  and  O_2
REMARK    2  A    between atoms: O_2  and  C_3
REMARK    3  A    between atoms: C_6  and  C_7
REMARK    4  A    between atoms: C_7  and  C_8
REMARK    5  A    between atoms: C_8  and  N_9
REMARK    6  A    between atoms: C_10  and  C_12
REMARK    7  A    between atoms: C_12  and  S_13
REMARK    8  A    between atoms: S_13  and  C_14
REMARK    9  A    between atoms: C_16  and  O_17
REMARK   10  A    between atoms: C_25  and  O_26
REMARK   11  A    between atoms: O_26  and  C_27
REMARK                            x       y       z     vdW  Elec       q    Type
REMARK                         _______ _______ _______ _____ _____    ______ ____
ROOT
ATOM      1  N   UNL     1       7.198   7.917  16.946  0.00  0.00    +0.000 N 
ATOM      2  C   UNL     1       8.062   8.326  17.933  0.00  0.00    +0.000 C 
ATOM      3  O   UNL     1       8.489   7.549  18.789  0.00  0.00    +0.000 OA
ATOM      4  H   UNL     1       7.015   8.568  16.186  0.00  0.00    +0.000 HD
ENDROOT
BRANCH   1   5
ATOM      5  C   UNL     1       6.759   6.538  16.799  0.00  0.00    +0.000 C 
BRANCH   5   6
ATOM      6  C   UNL     1       5.268   6.353  16.436  0.00  0.00    +0.000 C 
BRANCH   6  10
ATOM      7  C   UNL     1       2.343   6.785  19.649  0.00  0.00    +0.000 A 
ATOM      8  C   UNL     1       2.452   7.738  18.631  0.00  0.00    +0.000 A 
ATOM      9  C   UNL     1       3.381   7.617  17.595  0.00  0.00    +0.000 A 
ATOM     10  C   UNL     1       4.237   6.526  17.532  0.00  0.00    +0.000 A 
ATOM     11  C   UNL     1       4.103   5.540  18.528  0.00  0.00    +0.000 A 
ATOM     12  C   UNL     1       3.174   5.655  19.586  0.00  0.00    +0.000 A 
BRANCH   7  14
ATOM     13  C   UNL     1       1.226   8.235  21.201  0.00  0.00    +0.000 C 
ATOM     14  O   UNL     1       1.480   6.927  20.701  0.00  0.00    +0.000 OA
ENDBRANCH   7  14
BRANCH  12  15
ATOM     15  O   UNL     1       3.221   4.585  20.444  0.00  0.00    +0.000 OA
ATOM     16  C   UNL     1       2.349   3.486  20.218  0.00  0.00    +0.000 C 
ENDBRANCH  12  15
ENDBRANCH   6  10
ENDBRANCH   5   6
ENDBRANCH   1   5
BRANCH   2  17
ATOM     17  C   UNL     1       8.507   9.793  17.945  0.00  0.00    +0.000 C 
BRANCH  17  18
ATOM     18  S   UNL     1       9.425  10.334  19.431  0.00  0.00    +0.000 S 
BRANCH  18  19
ATOM     19  C   UNL     1      10.052  11.904  18.872  0.00  0.00    +0.000 A 
ATOM     20  N   UNL     1      10.542  11.954  17.620  0.00  0.00    +0.000 NA
ATOM     21  C   UNL     1      11.117  13.104  17.254  0.00  0.00    +0.000 A 
ATOM     22  N   UNL     1      11.328  14.179  18.014  0.00  0.00    +0.000 NA
ATOM     23  C   UNL     1      10.868  14.054  19.257  0.00  0.00    +0.000 A 
ATOM     24  C   UNL     1      10.162  12.968  19.729  0.00  0.00    +0.000 A 
ATOM     25  C   UNL     1       9.752  13.177  21.148  0.00  0.00    +0.000 C 
ATOM     26  C   UNL     1      10.063  14.677  21.333  0.00  0.00    +0.000 C 
ATOM     27  C   UNL     1      11.219  14.984  20.383  0.00  0.00    +0.000 C 
BRANCH  21  28
ATOM     28  O   UNL     1      11.737  13.069  16.047  0.00  0.00    +0.000 OA
ATOM     29  H   UNL     1      12.665  13.093  16.333  0.00  0.00    +0.000 HD
ENDBRANCH  21  28
ENDBRANCH  18  19
ENDBRANCH  17  18
ENDBRANCH   2  17
TORSDOF 9
ENDMDL
MODEL 9
REMARK VINA RESULT:      -7.4      1.176      2.000
REMARK  Name = 
REMARK  11 active torsions:
REMARK  status: ('A' for Active; 'I' for Inactive)
REMARK    1  A    between atoms: C_1  and  O_2
REMARK    2  A    between atoms: O_2  and  C_3
REMARK    3  A    between atoms: C_6  and  C_7
REMARK    4  A    between atoms: C_7  and  C_8
REMARK    5  A    between atoms: C_8  and  N_9
REMARK    6  A    between atoms: C_10  and  C_12
REMARK    7  A    between atoms: C_12  and  S_13
REMARK    8  A    between atoms: S_13  and  C_14
REMARK    9  A    between atoms: C_16  and  O_17
REMARK   10  A    between atoms: C_25  and  O_26
REMARK   11  A    between atoms: O_26  and  C_27
REMARK                            x       y       z     vdW  Elec       q    Type
REMARK                         _______ _______ _______ _____ _____    ______ ____
ROOT
ATOM      1  N   UNL     1       7.568   7.283  17.851  0.00  0.00    +0.000 N 
ATOM      2  C   UNL     1       7.346   6.031  18.373  0.00  0.00    +0.000 C 
ATOM      3  O   UNL     1       7.860   5.664  19.431  0.00  0.00    +0.000 OA
ATOM      4  H   UNL     1       6.990   7.572  17.067  0.00  0.00    +0.000 HD
ENDROOT
BRANCH   1   5
ATOM      5  C   UNL     1       8.381   8.286  18.521  0.00  0.00    +0.000 C 
BRANCH   5   6
ATOM      6  C   UNL     1       8.391   9.682  17.858  0.00  0.00    +0.000 C 
BRANCH   6  10
ATOM      7  C   UNL     1      11.060  12.686  19.564  0.00  0.00    +0.000 A 
ATOM      8  C   UNL     1      11.123  12.343  18.210  0.00  0.00    +0.000 A 
ATOM      9  C   UNL     1      10.277  11.385  17.645  0.00  0.00    +0.000 A 
ATOM     10  C   UNL     1       9.325  10.735  18.418  0.00  0.00    +0.000 A 
ATOM     11  C   UNL     1       9.226  11.107  19.772  0.00  0.00    +0.000 A 
ATOM     12  C   UNL     1      10.081  12.068  20.357  0.00  0.00    +0.000 A 
BRANCH   7  14
ATOM     13  C   UNL     1      12.329  14.715  19.386  0.00  0.00    +0.000 C 
ATOM     14  O   UNL     1      11.926  13.577  20.137  0.00  0.00    +0.000 OA
ENDBRANCH   7  14
BRANCH  12  15
ATOM     15  O   UNL     1       9.813  12.268  21.688  0.00  0.00    +0.000 OA
ATOM     16  C   UNL     1       8.469  12.174  22.138  0.00  0.00    +0.000 C 
ENDBRANCH  12  15
ENDBRANCH   6  10
ENDBRANCH   5   6
ENDBRANCH   1   5
BRANCH   2  17
ATOM     17  C   UNL     1       6.415   5.083  17.608  0.00  0.00    +0.000 C 
BRANCH  17  18
ATOM     18  S   UNL     1       5.052   5.879  16.686  0.00  0.00    +0.000 S 
BRANCH  18  19
ATOM     19  C   UNL     1       3.697   5.608  17.809  0.00  0.00    +0.000 A 
ATOM     20  N   UNL     1       3.363   6.629  18.620  0.00  0.00    +0.000 NA
ATOM     21  C   UNL     1       2.427   6.374  19.540  0.00  0.00    +0.000 A 
ATOM     22  N   UNL     1       1.841   5.203  19.793  0.00  0.00    +0.000 NA
ATOM     23  C   UNL     1       2.246   4.218  18.994  0.00  0.00    +0.000 A 
ATOM     24  C   UNL     1       3.123   4.370  17.940  0.00  0.00    +0.000 A 
ATOM     25  C   UNL     1       3.319   3.078  17.222  0.00  0.00    +0.000 C 
ATOM     26  C   UNL     1       2.189   2.221  17.831  0.00  0.00    +0.000 C 
ATOM     27  C   UNL     1       1.968   2.764  19.241  0.00  0.00    +0.000 C 
BRANCH  21  28
ATOM     28  O   UNL     1       2.227   7.372  20.437  0.00  0.00    +0.000 OA
ATOM     29  H   UNL     1       1.405   7.062  20.853  0.00  0.00    +0.000 HD
ENDBRANCH  21  28
ENDBRANCH  18  19
ENDBRANCH  17  18
ENDBRANCH   2  17
TORSDOF 9
ENDMDL
