MODEL 1
REMARK VINA RESULT:      -7.9      0.000      0.000
REMARK  Name = 
REMARK  5 active torsions:
REMARK  status: ('A' for Active; 'I' for Inactive)
REMARK    1  A    between atoms: C_1  and  C_2
REMARK    2  A    between atoms: C_7  and  C_8
REMARK    3  A    between atoms: C_13  and  C_14
REMARK    4  A    between atoms: C_14  and  O_16
REMARK    5  A    between atoms: O_16  and  C_17
REMARK                            x       y       z     vdW  Elec       q    Type
REMARK                         _______ _______ _______ _____ _____    ______ ____
ROOT
ATOM      1  C   UNL     1       2.544   6.270  19.764  0.00  0.00    +0.000 C 
ATOM      2  O   UNL     1       2.207   5.737  20.821  0.00  0.00    +0.000 OA
ATOM      3  N   UNL     1       2.127   7.576  19.426  0.00  0.00    +0.000 N 
ATOM      4  C   UNL     1       1.477   8.375  20.464  0.00  0.00    +0.000 C 
ATOM      5  C   UNL     1       0.300   9.170  19.906  0.00  0.00    +0.000 C 
ATOM      6  C   UNL     1       0.707  10.022  18.700  0.00  0.00    +0.000 C 
ATOM      7  C   UNL     1       1.341   9.127  17.640  0.00  0.00    +0.000 C 
ATOM      8  C   UNL     1       2.489   8.301  18.202  0.00  0.00    +0.000 C 
ENDROOT
BRANCH   1  15
ATOM      9  C   UNL     1       1.411   4.353  17.685  0.00  0.00    +0.000 C 
ATOM     10  C   UNL     1       2.882   4.641  17.830  0.00  0.00    +0.000 A 
ATOM     11  C   UNL     1       3.765   3.980  16.954  0.00  0.00    +0.000 A 
ATOM     12  C   UNL     1       5.144   4.163  17.048  0.00  0.00    +0.000 A 
ATOM     13  C   UNL     1       5.669   4.937  18.073  0.00  0.00    +0.000 A 
ATOM     14  C   UNL     1       4.812   5.539  18.991  0.00  0.00    +0.000 A 
ATOM     15  C   UNL     1       3.414   5.480  18.833  0.00  0.00    +0.000 A 
ENDBRANCH   1  15
BRANCH   6  16
ATOM     16  C   UNL     1       1.606  11.203  19.040  0.00  0.00    +0.000 C 
ATOM     17  O   UNL     1       2.338  11.782  18.247  0.00  0.00    +0.000 OA
BRANCH  16  18
ATOM     18  O   UNL     1       1.351  11.624  20.339  0.00  0.00    +0.000 OA
BRANCH  18  19
ATOM     19  C   UNL     1       0.443  12.686  20.499  0.00  0.00    +0.000 A 
ATOM     20  C   UNL     1       0.486  13.765  19.610  0.00  0.00    +0.000 A 
ATOM     21  C   UNL     1      -0.502  14.736  19.663  0.00  0.00    +0.000 A 
ATOM     22  C   UNL     1      -1.541  14.624  20.585  0.00  0.00    +0.000 A 
ATOM     23 CL   UNL     1      -2.740  15.877  20.549  0.00  0.00    +0.000 Cl
ATOM     24  C   UNL     1      -1.620  13.529  21.488  0.00  0.00    +0.000 A 
ATOM     25  C   UNL     1      -2.669  13.364  22.423  0.00  0.00    +0.000 A 
ATOM     26  C   UNL     1      -2.719  12.267  23.281  0.00  0.00    +0.000 A 
ATOM     27  C   UNL     1      -1.720  11.305  23.235  0.00  0.00    +0.000 A 
ATOM     28  C   UNL     1      -0.674  11.439  22.327  0.00  0.00    +0.000 A 
ATOM     29  C   UNL     1      -0.601  12.543  21.443  0.00  0.00    +0.000 A 
ENDBRANCH  18  19
ENDBRANCH  16  18
ENDBRANCH   6  16
TORSDOF 4
ENDMDL
MODEL 2
REMARK VINA RESULT:      -7.7      3.494      9.165
REMARK  Name = 
REMARK  5 active torsions:
REMARK  status: ('A' for Active; 'I' for Inactive)
REMARK    1  A    between atoms: C_1  and  C_2
REMARK    2  A    between atoms: C_7  and  C_8
REMARK    3  A    between atoms: C_13  and  C_14
REMARK    4  A    between atoms: C_14  and  O_16
REMARK    5  A    between atoms: O_16  and  C_17
REMARK                            x       y       z     vdW  Elec       q    Type
REMARK                         _______ _______ _______ _____ _____    ______ ____
ROOT
ATOM      1  C   UNL     1       1.710  13.154  18.586  0.00  0.00    +0.000 C 
ATOM      2  O   UNL     1       2.398  13.393  17.594  0.00  0.00    +0.000 OA
ATOM      3  N   UNL     1       1.438  11.831  18.999  0.00  0.00    +0.000 N 
ATOM      4  C   UNL     1       2.187  10.750  18.360  0.00  0.00    +0.000 C 
ATOM      5  C   UNL     1       1.296   9.544  18.073  0.00  0.00    +0.000 C 
ATOM      6  C   UNL     1       0.560   9.066  19.329  0.00  0.00    +0.000 C 
ATOM      7  C   UNL     1      -0.230  10.227  19.924  0.00  0.00    +0.000 C 
ATOM      8  C   UNL     1       0.646  11.446  20.173  0.00  0.00    +0.000 C 
ENDROOT
BRANCH   1  15
ATOM      9  C   UNL     1       3.068  14.296  21.063  0.00  0.00    +0.000 C 
ATOM     10  C   UNL     1       1.822  14.886  20.455  0.00  0.00    +0.000 A 
ATOM     11  C   UNL     1       1.269  16.022  21.078  0.00  0.00    +0.000 A 
ATOM     12  C   UNL     1       0.096  16.605  20.601  0.00  0.00    +0.000 A 
ATOM     13  C   UNL     1      -0.591  16.014  19.550  0.00  0.00    +0.000 A 
ATOM     14  C   UNL     1      -0.093  14.849  18.970  0.00  0.00    +0.000 A 
ATOM     15  C   UNL     1       1.156  14.322  19.346  0.00  0.00    +0.000 A 
ENDBRANCH   1  15
BRANCH   6  16
ATOM     16  C   UNL     1       1.457   8.412  20.371  0.00  0.00    +0.000 C 
ATOM     17  O   UNL     1       1.230   8.381  21.574  0.00  0.00    +0.000 OA
BRANCH  16  18
ATOM     18  O   UNL     1       2.481   7.721  19.738  0.00  0.00    +0.000 OA
BRANCH  18  19
ATOM     19  C   UNL     1       2.379   6.319  19.700  0.00  0.00    +0.000 A 
ATOM     20  C   UNL     1       1.471   5.675  20.548  0.00  0.00    +0.000 A 
ATOM     21  C   UNL     1       1.250   4.314  20.406  0.00  0.00    +0.000 A 
ATOM     22  C   UNL     1       1.914   3.598  19.413  0.00  0.00    +0.000 A 
ATOM     23 CL   UNL     1       1.545   1.907  19.304  0.00  0.00    +0.000 Cl
ATOM     24  C   UNL     1       2.829   4.230  18.526  0.00  0.00    +0.000 A 
ATOM     25  C   UNL     1       3.506   3.547  17.489  0.00  0.00    +0.000 A 
ATOM     26  C   UNL     1       4.383   4.206  16.629  0.00  0.00    +0.000 A 
ATOM     27  C   UNL     1       4.613   5.565  16.782  0.00  0.00    +0.000 A 
ATOM     28  C   UNL     1       3.962   6.266  17.794  0.00  0.00    +0.000 A 
ATOM     29  C   UNL     1       3.066   5.620  18.679  0.00  0.00    +0.000 A 
ENDBRANCH  18  19
ENDBRANCH  16  18
ENDBRANCH   6  16
TORSDOF 4
ENDMDL
MODEL 3
REMARK VINA RESULT:      -7.7      1.900      3.440
REMARK  Name = 
REMARK  5 active torsions:
REMARK  status: ('A' for Active; 'I' for Inactive)
REMARK    1  A    between atoms: C_1  and  C_2
REMARK    2  A    between atoms: C_7  and  C_8
REMARK    3  A    between atoms: C_13  and  C_14
REMARK    4  A    between atoms: C_14  and  O_16
REMARK    5  A    between atoms: O_16  and  C_17
REMARK                            x       y       z     vdW  Elec       q    Type
REMARK                         _______ _______ _______ _____ _____    ______ ____
ROOT
ATOM      1  C   UNL     1       2.348   6.191  20.048  0.00  0.00    +0.000 C 
ATOM      2  O   UNL     1       2.007   5.478  20.992  0.00  0.00    +0.000 OA
ATOM      3  N   UNL     1       1.865   7.510  19.904  0.00  0.00    +0.000 N 
ATOM      4  C   UNL     1       1.134   8.096  21.027  0.00  0.00    +0.000 C 
ATOM      5  C   UNL     1      -0.070   8.906  20.553  0.00  0.00    +0.000 C 
ATOM      6  C   UNL     1       0.327   9.962  19.515  0.00  0.00    +0.000 C 
ATOM      7  C   UNL     1       1.048   9.283  18.354  0.00  0.00    +0.000 C 
ATOM      8  C   UNL     1       2.223   8.441  18.827  0.00  0.00    +0.000 C 
ENDROOT
BRANCH   1  15
ATOM      9  C   UNL     1       1.409   4.476  17.711  0.00  0.00    +0.000 C 
ATOM     10  C   UNL     1       2.848   4.868  17.926  0.00  0.00    +0.000 A 
ATOM     11  C   UNL     1       3.795   4.406  16.991  0.00  0.00    +0.000 A 
ATOM     12  C   UNL     1       5.152   4.691  17.140  0.00  0.00    +0.000 A 
ATOM     13  C   UNL     1       5.596   5.365  18.269  0.00  0.00    +0.000 A 
ATOM     14  C   UNL     1       4.678   5.765  19.238  0.00  0.00    +0.000 A 
ATOM     15  C   UNL     1       3.294   5.608  19.042  0.00  0.00    +0.000 A 
ENDBRANCH   1  15
BRANCH   6  16
ATOM     16  C   UNL     1       1.142  11.118  20.076  0.00  0.00    +0.000 C 
ATOM     17  O   UNL     1       1.405  11.284  21.260  0.00  0.00    +0.000 OA
BRANCH  16  18
ATOM     18  O   UNL     1       1.676  11.862  19.032  0.00  0.00    +0.000 OA
BRANCH  18  19
ATOM     19  C   UNL     1       1.179  13.167  18.858  0.00  0.00    +0.000 A 
ATOM     20  C   UNL     1      -0.158  13.439  19.166  0.00  0.00    +0.000 A 
ATOM     21  C   UNL     1      -0.611  14.749  19.149  0.00  0.00    +0.000 A 
ATOM     22  C   UNL     1       0.266  15.788  18.845  0.00  0.00    +0.000 A 
ATOM     23 CL   UNL     1      -0.396  17.390  18.879  0.00  0.00    +0.000 Cl
ATOM     24  C   UNL     1       1.635  15.542  18.546  0.00  0.00    +0.000 A 
ATOM     25  C   UNL     1       2.565  16.568  18.256  0.00  0.00    +0.000 A 
ATOM     26  C   UNL     1       3.902  16.287  17.983  0.00  0.00    +0.000 A 
ATOM     27  C   UNL     1       4.350  14.974  17.987  0.00  0.00    +0.000 A 
ATOM     28  C   UNL     1       3.459  13.942  18.268  0.00  0.00    +0.000 A 
ATOM     29  C   UNL     1       2.096  14.201  18.550  0.00  0.00    +0.000 A 
ENDBRANCH  18  19
ENDBRANCH  16  18
ENDBRANCH   6  16
TORSDOF 4
ENDMDL
MODEL 4
REMARK VINA RESULT:      -7.5      3.445      9.439
REMARK  Name = 
REMARK  5 active torsions:
REMARK  status: ('A' for Active; 'I' for Inactive)
REMARK    1  A    between atoms: C_1  and  C_2
REMARK    2  A    between atoms: C_7  and  C_8
REMARK    3  A    between atoms: C_13  and  C_14
REMARK    4  A    between atoms: C_14  and  O_16
REMARK    5  A    between atoms: O_16  and  C_17
REMARK                            x       y       z     vdW  Elec       q    Type
REMARK                         _______ _______ _______ _____ _____    ______ ____
ROOT
ATOM      1  C   UNL     1      -1.662  12.816  21.357  0.00  0.00    +0.000 C 
ATOM      2  O   UNL     1      -2.013  13.329  20.294  0.00  0.00    +0.000 OA
ATOM      3  N   UNL     1      -1.006  11.565  21.395  0.00  0.00    +0.000 N 
ATOM      4  C   UNL     1      -0.541  11.000  20.129  0.00  0.00    +0.000 C 
ATOM      5  C   UNL     1      -0.787   9.495  20.063  0.00  0.00    +0.000 C 
ATOM      6  C   UNL     1      -0.188   8.765  21.270  0.00  0.00    +0.000 C 
ATOM      7  C   UNL     1      -0.742   9.375  22.554  0.00  0.00    +0.000 C 
ATOM      8  C   UNL     1      -0.536  10.881  22.606  0.00  0.00    +0.000 C 
ENDROOT
BRANCH   1  15
ATOM      9  C   UNL     1      -4.384  12.712  22.721  0.00  0.00    +0.000 C 
ATOM     10  C   UNL     1      -3.203  13.460  23.284  0.00  0.00    +0.000 A 
ATOM     11  C   UNL     1      -3.386  14.143  24.502  0.00  0.00    +0.000 A 
ATOM     12  C   UNL     1      -2.355  14.890  25.071  0.00  0.00    +0.000 A 
ATOM     13  C   UNL     1      -1.156  15.041  24.389  0.00  0.00    +0.000 A 
ATOM     14  C   UNL     1      -0.986  14.429  23.149  0.00  0.00    +0.000 A 
ATOM     15  C   UNL     1      -1.961  13.562  22.622  0.00  0.00    +0.000 A 
ENDBRANCH   1  15
BRANCH   6  16
ATOM     16  C   UNL     1       1.333   8.722  21.286  0.00  0.00    +0.000 C 
ATOM     17  O   UNL     1       2.033   8.933  22.268  0.00  0.00    +0.000 OA
BRANCH  16  18
ATOM     18  O   UNL     1       1.799   8.250  20.066  0.00  0.00    +0.000 OA
BRANCH  18  19
ATOM     19  C   UNL     1       2.120   6.882  19.990  0.00  0.00    +0.000 A 
ATOM     20  C   UNL     1       1.489   5.981  20.854  0.00  0.00    +0.000 A 
ATOM     21  C   UNL     1       1.680   4.619  20.680  0.00  0.00    +0.000 A 
ATOM     22  C   UNL     1       2.479   4.153  19.639  0.00  0.00    +0.000 A 
ATOM     23 CL   UNL     1       2.629   2.431  19.493  0.00  0.00    +0.000 Cl
ATOM     24  C   UNL     1       3.118   5.046  18.735  0.00  0.00    +0.000 A 
ATOM     25  C   UNL     1       3.918   4.616  17.650  0.00  0.00    +0.000 A 
ATOM     26  C   UNL     1       4.514   5.522  16.775  0.00  0.00    +0.000 A 
ATOM     27  C   UNL     1       4.333   6.885  16.961  0.00  0.00    +0.000 A 
ATOM     28  C   UNL     1       3.552   7.340  18.019  0.00  0.00    +0.000 A 
ATOM     29  C   UNL     1       2.934   6.440  18.920  0.00  0.00    +0.000 A 
ENDBRANCH  18  19
ENDBRANCH  16  18
ENDBRANCH   6  16
TORSDOF 4
ENDMDL
MODEL 5
REMARK VINA RESULT:      -7.5      3.612      9.180
REMARK  Name = 
REMARK  5 active torsions:
REMARK  status: ('A' for Active; 'I' for Inactive)
REMARK    1  A    between atoms: C_1  and  C_2
REMARK    2  A    between atoms: C_7  and  C_8
REMARK    3  A    between atoms: C_13  and  C_14
REMARK    4  A    between atoms: C_14  and  O_16
REMARK    5  A    between atoms: O_16  and  C_17
REMARK                            x       y       z     vdW  Elec       q    Type
REMARK                         _______ _______ _______ _____ _____    ______ ____
ROOT
ATOM      1  C   UNL     1       1.658   8.033  19.247  0.00  0.00    +0.000 C 
ATOM      2  O   UNL     1       1.921   8.690  18.240  0.00  0.00    +0.000 OA
ATOM      3  N   UNL     1       1.864   6.636  19.295  0.00  0.00    +0.000 N 
ATOM      4  C   UNL     1       2.618   6.020  18.204  0.00  0.00    +0.000 C 
ATOM      5  C   UNL     1       2.008   4.685  17.784  0.00  0.00    +0.000 C 
ATOM      6  C   UNL     1       1.843   3.734  18.975  0.00  0.00    +0.000 C 
ATOM      7  C   UNL     1       1.017   4.420  20.058  0.00  0.00    +0.000 C 
ATOM      8  C   UNL     1       1.599   5.770  20.450  0.00  0.00    +0.000 C 
ENDROOT
BRANCH   1  15
ATOM      9  C   UNL     1      -0.558  10.108  18.999  0.00  0.00    +0.000 C 
ATOM     10  C   UNL     1       0.031   9.679  20.318  0.00  0.00    +0.000 A 
ATOM     11  C   UNL     1      -0.479  10.280  21.486  0.00  0.00    +0.000 A 
ATOM     12  C   UNL     1       0.038   9.966  22.742  0.00  0.00    +0.000 A 
ATOM     13  C   UNL     1       1.130   9.115  22.845  0.00  0.00    +0.000 A 
ATOM     14  C   UNL     1       1.691   8.569  21.693  0.00  0.00    +0.000 A 
ATOM     15  C   UNL     1       1.100   8.765  20.430  0.00  0.00    +0.000 A 
ENDBRANCH   1  15
BRANCH   6  16
ATOM     16  C   UNL     1       3.152   3.193  19.531  0.00  0.00    +0.000 C 
ATOM     17  O   UNL     1       3.311   2.769  20.669  0.00  0.00    +0.000 OA
BRANCH  16  18
ATOM     18  O   UNL     1       4.090   3.102  18.512  0.00  0.00    +0.000 OA
BRANCH  18  19
ATOM     19  C   UNL     1       5.006   4.163  18.389  0.00  0.00    +0.000 A 
ATOM     20  C   UNL     1       5.435   4.835  19.538  0.00  0.00    +0.000 A 
ATOM     21  C   UNL     1       6.453   5.771  19.444  0.00  0.00    +0.000 A 
ATOM     22  C   UNL     1       7.056   6.026  18.214  0.00  0.00    +0.000 A 
ATOM     23 CL   UNL     1       8.337   7.194  18.211  0.00  0.00    +0.000 Cl
ATOM     24  C   UNL     1       6.651   5.345  17.033  0.00  0.00    +0.000 A 
ATOM     25  C   UNL     1       7.252   5.554  15.769  0.00  0.00    +0.000 A 
ATOM     26  C   UNL     1       6.838   4.854  14.637  0.00  0.00    +0.000 A 
ATOM     27  C   UNL     1       5.809   3.928  14.732  0.00  0.00    +0.000 A 
ATOM     28  C   UNL     1       5.198   3.700  15.962  0.00  0.00    +0.000 A 
ATOM     29  C   UNL     1       5.601   4.396  17.126  0.00  0.00    +0.000 A 
ENDBRANCH  18  19
ENDBRANCH  16  18
ENDBRANCH   6  16
TORSDOF 4
ENDMDL
MODEL 6
REMARK VINA RESULT:      -7.5      2.116      3.782
REMARK  Name = 
REMARK  5 active torsions:
REMARK  status: ('A' for Active; 'I' for Inactive)
REMARK    1  A    between atoms: C_1  and  C_2
REMARK    2  A    between atoms: C_7  and  C_8
REMARK    3  A    between atoms: C_13  and  C_14
REMARK    4  A    between atoms: C_14  and  O_16
REMARK    5  A    between atoms: O_16  and  C_17
REMARK                            x       y       z     vdW  Elec       q    Type
REMARK                         _______ _______ _______ _____ _____    ______ ____
ROOT
ATOM      1  C   UNL     1       4.693   4.301  18.814  0.00  0.00    +0.000 C 
ATOM      2  O   UNL     1       4.923   3.325  19.528  0.00  0.00    +0.000 OA
ATOM      3  N   UNL     1       3.687   5.238  19.141  0.00  0.00    +0.000 N 
ATOM      4  C   UNL     1       3.082   5.153  20.470  0.00  0.00    +0.000 C 
ATOM      5  C   UNL     1       1.575   5.388  20.417  0.00  0.00    +0.000 C 
ATOM      6  C   UNL     1       1.228   6.704  19.713  0.00  0.00    +0.000 C 
ATOM      7  C   UNL     1       1.854   6.714  18.322  0.00  0.00    +0.000 C 
ATOM      8  C   UNL     1       3.349   6.438  18.367  0.00  0.00    +0.000 C 
ENDROOT
BRANCH   1  15
ATOM      9  C   UNL     1       7.362   5.769  18.788  0.00  0.00    +0.000 C 
ATOM     10  C   UNL     1       6.779   5.089  17.577  0.00  0.00    +0.000 A 
ATOM     11  C   UNL     1       7.517   5.148  16.378  0.00  0.00    +0.000 A 
ATOM     12  C   UNL     1       7.029   4.577  15.203  0.00  0.00    +0.000 A 
ATOM     13  C   UNL     1       5.759   4.018  15.184  0.00  0.00    +0.000 A 
ATOM     14  C   UNL     1       4.988   4.017  16.344  0.00  0.00    +0.000 A 
ATOM     15  C   UNL     1       5.514   4.464  17.570  0.00  0.00    +0.000 A 
ENDBRANCH   1  15
BRANCH   6  16
ATOM     16  C   UNL     1       1.601   7.954  20.499  0.00  0.00    +0.000 C 
ATOM     17  O   UNL     1       2.109   7.958  21.613  0.00  0.00    +0.000 OA
BRANCH  16  18
ATOM     18  O   UNL     1       1.430   9.076  19.700  0.00  0.00    +0.000 OA
BRANCH  18  19
ATOM     19  C   UNL     1       0.443   9.997  20.093  0.00  0.00    +0.000 A 
ATOM     20  C   UNL     1       0.598  10.698  21.293  0.00  0.00    +0.000 A 
ATOM     21  C   UNL     1      -0.286  11.718  21.609  0.00  0.00    +0.000 A 
ATOM     22  C   UNL     1      -1.310  12.054  20.727  0.00  0.00    +0.000 A 
ATOM     23 CL   UNL     1      -2.342  13.362  21.206  0.00  0.00    +0.000 Cl
ATOM     24  C   UNL     1      -1.481  11.369  19.492  0.00  0.00    +0.000 A 
ATOM     25  C   UNL     1      -2.491  11.693  18.556  0.00  0.00    +0.000 A 
ATOM     26  C   UNL     1      -2.616  11.009  17.348  0.00  0.00    +0.000 A 
ATOM     27  C   UNL     1      -1.738   9.979  17.041  0.00  0.00    +0.000 A 
ATOM     28  C   UNL     1      -0.734   9.637  17.941  0.00  0.00    +0.000 A 
ATOM     29  C   UNL     1      -0.585  10.317  19.174  0.00  0.00    +0.000 A 
ENDBRANCH  18  19
ENDBRANCH  16  18
ENDBRANCH   6  16
TORSDOF 4
ENDMDL
MODEL 7
REMARK VINA RESULT:      -7.3      3.455      9.090
REMARK  Name = 
REMARK  5 active torsions:
REMARK  status: ('A' for Active; 'I' for Inactive)
REMARK    1  A    between atoms: C_1  and  C_2
REMARK    2  A    between atoms: C_7  and  C_8
REMARK    3  A    between atoms: C_13  and  C_14
REMARK    4  A    between atoms: C_14  and  O_16
REMARK    5  A    between atoms: O_16  and  C_17
REMARK                            x       y       z     vdW  Elec       q    Type
REMARK                         _______ _______ _______ _____ _____    ______ ____
ROOT
ATOM      1  C   UNL     1       1.962  13.331  18.942  0.00  0.00    +0.000 C 
ATOM      2  O   UNL     1       2.373  13.545  17.802  0.00  0.00    +0.000 OA
ATOM      3  N   UNL     1       1.587  12.036  19.365  0.00  0.00    +0.000 N 
ATOM      4  C   UNL     1       1.919  10.911  18.491  0.00  0.00    +0.000 C 
ATOM      5  C   UNL     1       0.783   9.893  18.432  0.00  0.00    +0.000 C 
ATOM      6  C   UNL     1       0.360   9.428  19.829  0.00  0.00    +0.000 C 
ATOM      7  C   UNL     1      -0.010  10.642  20.675  0.00  0.00    +0.000 C 
ATOM      8  C   UNL     1       1.104  11.678  20.703  0.00  0.00    +0.000 C 
ENDROOT
BRANCH   1  15
ATOM      9  C   UNL     1      -0.431  15.216  18.971  0.00  0.00    +0.000 C 
ATOM     10  C   UNL     1       0.725  15.331  19.930  0.00  0.00    +0.000 A 
ATOM     11  C   UNL     1       0.683  16.371  20.879  0.00  0.00    +0.000 A 
ATOM     12  C   UNL     1       1.731  16.570  21.777  0.00  0.00    +0.000 A 
ATOM     13  C   UNL     1       2.877  15.791  21.683  0.00  0.00    +0.000 A 
ATOM     14  C   UNL     1       2.962  14.806  20.702  0.00  0.00    +0.000 A 
ATOM     15  C   UNL     1       1.864  14.499  19.877  0.00  0.00    +0.000 A 
ENDBRANCH   1  15
BRANCH   6  16
ATOM     16  C   UNL     1       1.384   8.549  20.534  0.00  0.00    +0.000 C 
ATOM     17  O   UNL     1       1.398   8.312  21.736  0.00  0.00    +0.000 OA
BRANCH  16  18
ATOM     18  O   UNL     1       2.195   7.930  19.593  0.00  0.00    +0.000 OA
BRANCH  18  19
ATOM     19  C   UNL     1       2.238   6.524  19.611  0.00  0.00    +0.000 A 
ATOM     20  C   UNL     1       1.373   5.823  20.457  0.00  0.00    +0.000 A 
ATOM     21  C   UNL     1       1.297   4.441  20.366  0.00  0.00    +0.000 A 
ATOM     22  C   UNL     1       2.066   3.761  19.424  0.00  0.00    +0.000 A 
ATOM     23 CL   UNL     1       1.876   2.038  19.375  0.00  0.00    +0.000 Cl
ATOM     24  C   UNL     1       2.941   4.450  18.540  0.00  0.00    +0.000 A 
ATOM     25  C   UNL     1       3.720   3.801  17.553  0.00  0.00    +0.000 A 
ATOM     26  C   UNL     1       4.554   4.514  16.694  0.00  0.00    +0.000 A 
ATOM     27  C   UNL     1       4.638   5.895  16.797  0.00  0.00    +0.000 A 
ATOM     28  C   UNL     1       3.883   6.563  17.758  0.00  0.00    +0.000 A 
ATOM     29  C   UNL     1       3.028   5.862  18.642  0.00  0.00    +0.000 A 
ENDBRANCH  18  19
ENDBRANCH  16  18
ENDBRANCH   6  16
TORSDOF 4
ENDMDL
MODEL 8
REMARK VINA RESULT:      -7.3      2.051      2.749
REMARK  Name = 
REMARK  5 active torsions:
REMARK  status: ('A' for Active; 'I' for Inactive)
REMARK    1  A    between atoms: C_1  and  C_2
REMARK    2  A    between atoms: C_7  and  C_8
REMARK    3  A    between atoms: C_13  and  C_14
REMARK    4  A    between atoms: C_14  and  O_16
REMARK    5  A    between atoms: O_16  and  C_17
REMARK                            x       y       z     vdW  Elec       q    Type
REMARK                         _______ _______ _______ _____ _____    ______ ____
ROOT
ATOM      1  C   UNL     1       2.531   6.351  19.800  0.00  0.00    +0.000 C 
ATOM      2  O   UNL     1       2.194   5.898  20.894  0.00  0.00    +0.000 OA
ATOM      3  N   UNL     1       2.126   7.635  19.373  0.00  0.00    +0.000 N 
ATOM      4  C   UNL     1       1.491   8.512  20.356  0.00  0.00    +0.000 C 
ATOM      5  C   UNL     1       0.319   9.279  19.750  0.00  0.00    +0.000 C 
ATOM      6  C   UNL     1       0.728  10.040  18.484  0.00  0.00    +0.000 C 
ATOM      7  C   UNL     1       1.345   9.065  17.486  0.00  0.00    +0.000 C 
ATOM      8  C   UNL     1       2.487   8.268  18.099  0.00  0.00    +0.000 C 
ENDROOT
BRANCH   1  15
ATOM      9  C   UNL     1       1.363   4.453  17.723  0.00  0.00    +0.000 C 
ATOM     10  C   UNL     1       2.843   4.657  17.919  0.00  0.00    +0.000 A 
ATOM     11  C   UNL     1       3.717   3.923  17.094  0.00  0.00    +0.000 A 
ATOM     12  C   UNL     1       5.100   4.026  17.238  0.00  0.00    +0.000 A 
ATOM     13  C   UNL     1       5.632   4.794  18.264  0.00  0.00    +0.000 A 
ATOM     14  C   UNL     1       4.778   5.469  19.134  0.00  0.00    +0.000 A 
ATOM     15  C   UNL     1       3.386   5.488  18.923  0.00  0.00    +0.000 A 
ENDBRANCH   1  15
BRANCH   6  16
ATOM     16  C   UNL     1       1.642  11.231  18.735  0.00  0.00    +0.000 C 
ATOM     17  O   UNL     1       2.595  11.546  18.034  0.00  0.00    +0.000 OA
BRANCH  16  18
ATOM     18  O   UNL     1       1.136  11.995  19.778  0.00  0.00    +0.000 OA
BRANCH  18  19
ATOM     19  C   UNL     1       1.025  13.380  19.562  0.00  0.00    +0.000 A 
ATOM     20  C   UNL     1      -0.069  13.877  18.847  0.00  0.00    +0.000 A 
ATOM     21  C   UNL     1      -0.269  15.247  18.766  0.00  0.00    +0.000 A 
ATOM     22  C   UNL     1       0.606  16.119  19.409  0.00  0.00    +0.000 A 
ATOM     23 CL   UNL     1       0.250  17.811  19.268  0.00  0.00    +0.000 Cl
ATOM     24  C   UNL     1       1.717  15.641  20.157  0.00  0.00    +0.000 A 
ATOM     25  C   UNL     1       2.615  16.490  20.846  0.00  0.00    +0.000 A 
ATOM     26  C   UNL     1       3.683  15.981  21.583  0.00  0.00    +0.000 A 
ATOM     27  C   UNL     1       3.889  14.611  21.650  0.00  0.00    +0.000 A 
ATOM     28  C   UNL     1       3.022  13.750  20.983  0.00  0.00    +0.000 A 
ATOM     29  C   UNL     1       1.929  14.240  20.230  0.00  0.00    +0.000 A 
ENDBRANCH  18  19
ENDBRANCH  16  18
ENDBRANCH   6  16
TORSDOF 4
ENDMDL
MODEL 9
REMARK VINA RESULT:      -7.2      0.853      1.068
REMARK  Name = 
REMARK  5 active torsions:
REMARK  status: ('A' for Active; 'I' for Inactive)
REMARK    1  A    between atoms: C_1  and  C_2
REMARK    2  A    between atoms: C_7  and  C_8
REMARK    3  A    between atoms: C_13  and  C_14
REMARK    4  A    between atoms: C_14  and  O_16
REMARK    5  A    between atoms: O_16  and  C_17
REMARK                            x       y       z     vdW  Elec       q    Type
REMARK                         _______ _______ _______ _____ _____    ______ ____
ROOT
ATOM      1  C   UNL     1       2.456   6.315  19.721  0.00  0.00    +0.000 C 
ATOM      2  O   UNL     1       2.220   5.826  20.826  0.00  0.00    +0.000 OA
ATOM      3  N   UNL     1       2.059   7.631  19.392  0.00  0.00    +0.000 N 
ATOM      4  C   UNL     1       1.569   8.485  20.473  0.00  0.00    +0.000 C 
ATOM      5  C   UNL     1       0.370   9.320  20.030  0.00  0.00    +0.000 C 
ATOM      6  C   UNL     1       0.672  10.120  18.759  0.00  0.00    +0.000 C 
ATOM      7  C   UNL     1       1.139   9.169  17.661  0.00  0.00    +0.000 C 
ATOM      8  C   UNL     1       2.307   8.306  18.113  0.00  0.00    +0.000 C 
ENDROOT
BRANCH   1  15
ATOM      9  C   UNL     1       1.190   3.856  18.443  0.00  0.00    +0.000 C 
ATOM     10  C   UNL     1       2.564   4.361  18.085  0.00  0.00    +0.000 A 
ATOM     11  C   UNL     1       3.287   3.646  17.111  0.00  0.00    +0.000 A 
ATOM     12  C   UNL     1       4.580   4.025  16.751  0.00  0.00    +0.000 A 
ATOM     13  C   UNL     1       5.204   5.068  17.421  0.00  0.00    +0.000 A 
ATOM     14  C   UNL     1       4.527   5.739  18.437  0.00  0.00    +0.000 A 
ATOM     15  C   UNL     1       3.177   5.462  18.721  0.00  0.00    +0.000 A 
ENDBRANCH   1  15
BRANCH   6  16
ATOM     16  C   UNL     1       1.654  11.266  18.957  0.00  0.00    +0.000 C 
ATOM     17  O   UNL     1       2.476  11.640  18.129  0.00  0.00    +0.000 OA
BRANCH  16  18
ATOM     18  O   UNL     1       1.370  11.923  20.147  0.00  0.00    +0.000 OA
BRANCH  18  19
ATOM     19  C   UNL     1       0.745  13.180  20.049  0.00  0.00    +0.000 A 
ATOM     20  C   UNL     1       1.333  14.179  19.267  0.00  0.00    +0.000 A 
ATOM     21  C   UNL     1       0.646  15.362  19.038  0.00  0.00    +0.000 A 
ATOM     22  C   UNL     1      -0.629  15.543  19.569  0.00  0.00    +0.000 A 
ATOM     23 CL   UNL     1      -1.411  17.046  19.200  0.00  0.00    +0.000 Cl
ATOM     24  C   UNL     1      -1.258  14.537  20.353  0.00  0.00    +0.000 A 
ATOM     25  C   UNL     1      -2.560  14.669  20.891  0.00  0.00    +0.000 A 
ATOM     26  C   UNL     1      -3.148  13.653  21.641  0.00  0.00    +0.000 A 
ATOM     27  C   UNL     1      -2.453  12.477  21.881  0.00  0.00    +0.000 A 
ATOM     28  C   UNL     1      -1.170  12.316  21.365  0.00  0.00    +0.000 A 
ATOM     29  C   UNL     1      -0.550  13.332  20.599  0.00  0.00    +0.000 A 
ENDBRANCH  18  19
ENDBRANCH  16  18
ENDBRANCH   6  16
TORSDOF 4
ENDMDL
