MODEL 1
REMARK VINA RESULT:      -7.3      0.000      0.000
REMARK  Name = 
REMARK  1 active torsions:
REMARK  status: ('A' for Active; 'I' for Inactive)
REMARK    1  A    between atoms: C_8  and  C_9
REMARK                            x       y       z     vdW  Elec       q    Type
REMARK                         _______ _______ _______ _____ _____    ______ ____
ROOT
ATOM      1  O   UNL     1       7.546   6.712  17.764  0.00  0.00    +0.000 OA
ATOM      2  C   UNL     1       7.026   5.927  16.987  0.00  0.00    +0.000 C 
ATOM      3  N   UNL     1       7.526   5.758  15.730  0.00  0.00    +0.000 N 
ATOM      4  C   UNL     1       6.781   4.987  14.735  0.00  0.00    +0.000 C 
ATOM      5  C   UNL     1       6.140   3.707  15.320  0.00  0.00    +0.000 C 
ATOM      6  C   UNL     1       5.477   4.048  16.623  0.00  0.00    +0.000 A 
ATOM      7  N   UNL     1       4.474   3.385  17.219  0.00  0.00    +0.000 N 
ATOM      8  C   UNL     1       4.226   4.030  18.386  0.00  0.00    +0.000 A 
ATOM      9  C   UNL     1       5.112   5.097  18.539  0.00  0.00    +0.000 A 
ATOM     10  C   UNL     1       5.893   5.089  17.400  0.00  0.00    +0.000 A 
ATOM     11  H   UNL     1       8.367   6.275  15.434  0.00  0.00    +0.000 HD
ATOM     12  H   UNL     1       3.989   2.546  16.832  0.00  0.00    +0.000 HD
ENDROOT
BRANCH   8  13
ATOM     13  C   UNL     1       3.167   3.655  19.351  0.00  0.00    +0.000 A 
ATOM     14  C   UNL     1       1.820   3.983  19.125  0.00  0.00    +0.000 A 
ATOM     15  C   UNL     1       0.874   3.632  20.086  0.00  0.00    +0.000 A 
ATOM     16  N   UNL     1       1.261   2.984  21.214  0.00  0.00    +0.000 NA
ATOM     17  C   UNL     1       2.565   2.668  21.422  0.00  0.00    +0.000 A 
ATOM     18  N   UNL     1       3.503   3.003  20.498  0.00  0.00    +0.000 NA
ENDBRANCH   8  13
TORSDOF 1
ENDMDL
MODEL 2
REMARK VINA RESULT:      -7.2      2.341      6.194
REMARK  Name = 
REMARK  1 active torsions:
REMARK  status: ('A' for Active; 'I' for Inactive)
REMARK    1  A    between atoms: C_8  and  C_9
REMARK                            x       y       z     vdW  Elec       q    Type
REMARK                         _______ _______ _______ _____ _____    ______ ____
ROOT
ATOM      1  O   UNL     1       0.216   2.659  18.255  0.00  0.00    +0.000 OA
ATOM      2  C   UNL     1       1.013   2.835  19.162  0.00  0.00    +0.000 C 
ATOM      3  N   UNL     1       0.672   2.556  20.452  0.00  0.00    +0.000 N 
ATOM      4  C   UNL     1       1.542   2.968  21.554  0.00  0.00    +0.000 C 
ATOM      5  C   UNL     1       3.042   2.745  21.252  0.00  0.00    +0.000 C 
ATOM      6  C   UNL     1       3.337   3.241  19.866  0.00  0.00    +0.000 A 
ATOM      7  N   UNL     1       4.525   3.636  19.382  0.00  0.00    +0.000 N 
ATOM      8  C   UNL     1       4.323   3.963  18.082  0.00  0.00    +0.000 A 
ATOM      9  C   UNL     1       2.990   3.737  17.735  0.00  0.00    +0.000 A 
ATOM     10  C   UNL     1       2.384   3.284  18.890  0.00  0.00    +0.000 A 
ATOM     11  H   UNL     1      -0.258   2.168  20.670  0.00  0.00    +0.000 HD
ATOM     12  H   UNL     1       5.414   3.684  19.927  0.00  0.00    +0.000 HD
ENDROOT
BRANCH   8  13
ATOM     13  C   UNL     1       5.365   4.486  17.169  0.00  0.00    +0.000 A 
ATOM     14  C   UNL     1       5.602   3.904  15.914  0.00  0.00    +0.000 A 
ATOM     15  C   UNL     1       6.619   4.422  15.115  0.00  0.00    +0.000 A 
ATOM     16  N   UNL     1       7.358   5.471  15.554  0.00  0.00    +0.000 NA
ATOM     17  C   UNL     1       7.121   6.030  16.768  0.00  0.00    +0.000 A 
ATOM     18  N   UNL     1       6.134   5.539  17.563  0.00  0.00    +0.000 NA
ENDBRANCH   8  13
TORSDOF 1
ENDMDL
MODEL 3
REMARK VINA RESULT:      -7.1      1.150      1.503
REMARK  Name = 
REMARK  1 active torsions:
REMARK  status: ('A' for Active; 'I' for Inactive)
REMARK    1  A    between atoms: C_8  and  C_9
REMARK                            x       y       z     vdW  Elec       q    Type
REMARK                         _______ _______ _______ _____ _____    ______ ____
ROOT
ATOM      1  O   UNL     1       8.313   4.378  17.641  0.00  0.00    +0.000 OA
ATOM      2  C   UNL     1       7.378   4.510  16.867  0.00  0.00    +0.000 C 
ATOM      3  N   UNL     1       7.600   4.817  15.557  0.00  0.00    +0.000 N 
ATOM      4  C   UNL     1       6.484   5.186  14.685  0.00  0.00    +0.000 C 
ATOM      5  C   UNL     1       5.229   4.311  14.909  0.00  0.00    +0.000 C 
ATOM      6  C   UNL     1       4.987   4.178  16.385  0.00  0.00    +0.000 A 
ATOM      7  N   UNL     1       3.824   3.900  16.993  0.00  0.00    +0.000 N 
ATOM      8  C   UNL     1       4.088   3.843  18.322  0.00  0.00    +0.000 A 
ATOM      9  C   UNL     1       5.448   4.057  18.547  0.00  0.00    +0.000 A 
ATOM     10  C   UNL     1       5.996   4.274  17.299  0.00  0.00    +0.000 A 
ATOM     11  H   UNL     1       8.563   4.915  15.203  0.00  0.00    +0.000 HD
ATOM     12  H   UNL     1       2.907   3.769  16.513  0.00  0.00    +0.000 HD
ENDROOT
BRANCH   8  13
ATOM     13  C   UNL     1       3.077   3.594  19.375  0.00  0.00    +0.000 A 
ATOM     14  C   UNL     1       3.394   2.887  20.546  0.00  0.00    +0.000 A 
ATOM     15  C   UNL     1       2.391   2.657  21.484  0.00  0.00    +0.000 A 
ATOM     16  N   UNL     1       1.134   3.116  21.259  0.00  0.00    +0.000 NA
ATOM     17  C   UNL     1       0.836   3.801  20.126  0.00  0.00    +0.000 A 
ATOM     18  N   UNL     1       1.801   4.035  19.197  0.00  0.00    +0.000 NA
ENDBRANCH   8  13
TORSDOF 1
ENDMDL
MODEL 4
REMARK VINA RESULT:      -7.0      1.105      1.105
REMARK  Name = 
REMARK  1 active torsions:
REMARK  status: ('A' for Active; 'I' for Inactive)
REMARK    1  A    between atoms: C_8  and  C_9
REMARK                            x       y       z     vdW  Elec       q    Type
REMARK                         _______ _______ _______ _____ _____    ______ ____
ROOT
ATOM      1  O   UNL     1       8.240   4.350  17.729  0.00  0.00    +0.000 OA
ATOM      2  C   UNL     1       7.359   4.491  16.896  0.00  0.00    +0.000 C 
ATOM      3  N   UNL     1       7.667   4.805  15.605  0.00  0.00    +0.000 N 
ATOM      4  C   UNL     1       6.614   5.185  14.664  0.00  0.00    +0.000 C 
ATOM      5  C   UNL     1       5.343   4.314  14.799  0.00  0.00    +0.000 C 
ATOM      6  C   UNL     1       5.003   4.173  16.254  0.00  0.00    +0.000 A 
ATOM      7  N   UNL     1       3.801   3.896  16.783  0.00  0.00    +0.000 N 
ATOM      8  C   UNL     1       3.977   3.829  18.126  0.00  0.00    +0.000 A 
ATOM      9  C   UNL     1       5.320   4.037  18.442  0.00  0.00    +0.000 A 
ATOM     10  C   UNL     1       5.950   4.258  17.234  0.00  0.00    +0.000 A 
ATOM     11  H   UNL     1       8.652   4.902  15.317  0.00  0.00    +0.000 HD
ATOM     12  H   UNL     1       2.917   3.773  16.242  0.00  0.00    +0.000 HD
ENDROOT
BRANCH   8  13
ATOM     13  C   UNL     1       2.897   3.579  19.109  0.00  0.00    +0.000 A 
ATOM     14  C   UNL     1       1.720   2.905  18.749  0.00  0.00    +0.000 A 
ATOM     15  C   UNL     1       0.726   2.729  19.710  0.00  0.00    +0.000 A 
ATOM     16  N   UNL     1       0.908   3.204  20.968  0.00  0.00    +0.000 NA
ATOM     17  C   UNL     1       2.051   3.853  21.307  0.00  0.00    +0.000 A 
ATOM     18  N   UNL     1       3.032   4.036  20.384  0.00  0.00    +0.000 NA
ENDBRANCH   8  13
TORSDOF 1
ENDMDL
MODEL 5
REMARK VINA RESULT:      -7.0      2.258      6.186
REMARK  Name = 
REMARK  1 active torsions:
REMARK  status: ('A' for Active; 'I' for Inactive)
REMARK    1  A    between atoms: C_8  and  C_9
REMARK                            x       y       z     vdW  Elec       q    Type
REMARK                         _______ _______ _______ _____ _____    ______ ____
ROOT
ATOM      1  O   UNL     1       0.281   3.004  18.199  0.00  0.00    +0.000 OA
ATOM      2  C   UNL     1       1.066   3.052  19.134  0.00  0.00    +0.000 C 
ATOM      3  N   UNL     1       0.682   2.665  20.383  0.00  0.00    +0.000 N 
ATOM      4  C   UNL     1       1.546   2.924  21.536  0.00  0.00    +0.000 C 
ATOM      5  C   UNL     1       3.040   2.660  21.241  0.00  0.00    +0.000 C 
ATOM      6  C   UNL     1       3.389   3.274  19.916  0.00  0.00    +0.000 A 
ATOM      7  N   UNL     1       4.605   3.657  19.496  0.00  0.00    +0.000 N 
ATOM      8  C   UNL     1       4.448   4.118  18.230  0.00  0.00    +0.000 A 
ATOM      9  C   UNL     1       3.115   3.992  17.839  0.00  0.00    +0.000 A 
ATOM     10  C   UNL     1       2.462   3.458  18.932  0.00  0.00    +0.000 A 
ATOM     11  H   UNL     1      -0.269   2.303  20.545  0.00  0.00    +0.000 HD
ATOM     12  H   UNL     1       5.482   3.608  20.058  0.00  0.00    +0.000 HD
ENDROOT
BRANCH   8  13
ATOM     13  C   UNL     1       5.534   4.677  17.393  0.00  0.00    +0.000 A 
ATOM     14  C   UNL     1       6.234   5.832  17.775  0.00  0.00    +0.000 A 
ATOM     15  C   UNL     1       7.223   6.329  16.929  0.00  0.00    +0.000 A 
ATOM     16  N   UNL     1       7.495   5.696  15.759  0.00  0.00    +0.000 NA
ATOM     17  C   UNL     1       6.815   4.579  15.399  0.00  0.00    +0.000 A 
ATOM     18  N   UNL     1       5.845   4.079  16.210  0.00  0.00    +0.000 NA
ENDBRANCH   8  13
TORSDOF 1
ENDMDL
MODEL 6
REMARK VINA RESULT:      -6.9      1.366      1.467
REMARK  Name = 
REMARK  1 active torsions:
REMARK  status: ('A' for Active; 'I' for Inactive)
REMARK    1  A    between atoms: C_8  and  C_9
REMARK                            x       y       z     vdW  Elec       q    Type
REMARK                         _______ _______ _______ _____ _____    ______ ____
ROOT
ATOM      1  O   UNL     1       4.806   6.909  15.398  0.00  0.00    +0.000 OA
ATOM      2  C   UNL     1       5.538   6.059  15.882  0.00  0.00    +0.000 C 
ATOM      3  N   UNL     1       6.811   5.896  15.423  0.00  0.00    +0.000 N 
ATOM      4  C   UNL     1       7.609   4.745  15.848  0.00  0.00    +0.000 C 
ATOM      5  C   UNL     1       7.450   4.425  17.353  0.00  0.00    +0.000 C 
ATOM      6  C   UNL     1       5.993   4.473  17.708  0.00  0.00    +0.000 A 
ATOM      7  N   UNL     1       5.389   3.857  18.737  0.00  0.00    +0.000 N 
ATOM      8  C   UNL     1       4.081   4.214  18.686  0.00  0.00    +0.000 A 
ATOM      9  C   UNL     1       3.868   5.094  17.625  0.00  0.00    +0.000 A 
ATOM     10  C   UNL     1       5.099   5.237  17.016  0.00  0.00    +0.000 A 
ATOM     11  H   UNL     1       7.176   6.507  14.678  0.00  0.00    +0.000 HD
ATOM     12  H   UNL     1       5.857   3.224  19.421  0.00  0.00    +0.000 HD
ENDROOT
BRANCH   8  13
ATOM     13  C   UNL     1       3.037   3.732  19.618  0.00  0.00    +0.000 A 
ATOM     14  C   UNL     1       1.691   4.100  19.466  0.00  0.00    +0.000 A 
ATOM     15  C   UNL     1       0.760   3.640  20.395  0.00  0.00    +0.000 A 
ATOM     16  N   UNL     1       1.161   2.850  21.423  0.00  0.00    +0.000 NA
ATOM     17  C   UNL     1       2.464   2.497  21.561  0.00  0.00    +0.000 A 
ATOM     18  N   UNL     1       3.388   2.936  20.666  0.00  0.00    +0.000 NA
ENDBRANCH   8  13
TORSDOF 1
ENDMDL
MODEL 7
REMARK VINA RESULT:      -6.8      2.120      5.937
REMARK  Name = 
REMARK  1 active torsions:
REMARK  status: ('A' for Active; 'I' for Inactive)
REMARK    1  A    between atoms: C_8  and  C_9
REMARK                            x       y       z     vdW  Elec       q    Type
REMARK                         _______ _______ _______ _____ _____    ______ ____
ROOT
ATOM      1  O   UNL     1       1.498   5.963  20.666  0.00  0.00    +0.000 OA
ATOM      2  C   UNL     1       1.554   4.851  20.165  0.00  0.00    +0.000 C 
ATOM      3  N   UNL     1       0.677   3.876  20.538  0.00  0.00    +0.000 N 
ATOM      4  C   UNL     1       0.879   2.494  20.102  0.00  0.00    +0.000 C 
ATOM      5  C   UNL     1       1.328   2.387  18.626  0.00  0.00    +0.000 C 
ATOM      6  C   UNL     1       2.410   3.396  18.373  0.00  0.00    +0.000 A 
ATOM      7  N   UNL     1       3.349   3.354  17.415  0.00  0.00    +0.000 N 
ATOM      8  C   UNL     1       4.083   4.488  17.545  0.00  0.00    +0.000 A 
ATOM      9  C   UNL     1       3.575   5.268  18.584  0.00  0.00    +0.000 A 
ATOM     10  C   UNL     1       2.515   4.548  19.097  0.00  0.00    +0.000 A 
ATOM     11  H   UNL     1      -0.058   4.078  21.231  0.00  0.00    +0.000 HD
ATOM     12  H   UNL     1       3.474   2.583  16.724  0.00  0.00    +0.000 HD
ENDROOT
BRANCH   8  13
ATOM     13  C   UNL     1       5.254   4.837  16.709  0.00  0.00    +0.000 A 
ATOM     14  C   UNL     1       5.413   4.316  15.415  0.00  0.00    +0.000 A 
ATOM     15  C   UNL     1       6.554   4.656  14.690  0.00  0.00    +0.000 A 
ATOM     16  N   UNL     1       7.485   5.478  15.237  0.00  0.00    +0.000 NA
ATOM     17  C   UNL     1       7.321   5.979  16.488  0.00  0.00    +0.000 A 
ATOM     18  N   UNL     1       6.217   5.659  17.212  0.00  0.00    +0.000 NA
ENDBRANCH   8  13
TORSDOF 1
ENDMDL
MODEL 8
REMARK VINA RESULT:      -6.7      1.511      1.878
REMARK  Name = 
REMARK  1 active torsions:
REMARK  status: ('A' for Active; 'I' for Inactive)
REMARK    1  A    between atoms: C_8  and  C_9
REMARK                            x       y       z     vdW  Elec       q    Type
REMARK                         _______ _______ _______ _____ _____    ______ ____
ROOT
ATOM      1  O   UNL     1       4.786   6.978  15.516  0.00  0.00    +0.000 OA
ATOM      2  C   UNL     1       5.513   6.105  15.966  0.00  0.00    +0.000 C 
ATOM      3  N   UNL     1       6.773   5.929  15.476  0.00  0.00    +0.000 N 
ATOM      4  C   UNL     1       7.559   4.756  15.859  0.00  0.00    +0.000 C 
ATOM      5  C   UNL     1       7.427   4.406  17.359  0.00  0.00    +0.000 C 
ATOM      6  C   UNL     1       5.978   4.472  17.748  0.00  0.00    +0.000 A 
ATOM      7  N   UNL     1       5.386   3.844  18.776  0.00  0.00    +0.000 N 
ATOM      8  C   UNL     1       4.084   4.225  18.761  0.00  0.00    +0.000 A 
ATOM      9  C   UNL     1       3.864   5.132  17.724  0.00  0.00    +0.000 A 
ATOM     10  C   UNL     1       5.084   5.267  17.091  0.00  0.00    +0.000 A 
ATOM     11  H   UNL     1       7.133   6.550  14.736  0.00  0.00    +0.000 HD
ATOM     12  H   UNL     1       5.857   3.188  19.436  0.00  0.00    +0.000 HD
ENDROOT
BRANCH   8  13
ATOM     13  C   UNL     1       3.051   3.741  19.705  0.00  0.00    +0.000 A 
ATOM     14  C   UNL     1       3.377   2.900  20.781  0.00  0.00    +0.000 A 
ATOM     15  C   UNL     1       2.355   2.451  21.616  0.00  0.00    +0.000 A 
ATOM     16  N   UNL     1       1.073   2.830  21.382  0.00  0.00    +0.000 NA
ATOM     17  C   UNL     1       0.768   3.646  20.341  0.00  0.00    +0.000 A 
ATOM     18  N   UNL     1       1.750   4.093  19.515  0.00  0.00    +0.000 NA
ENDBRANCH   8  13
TORSDOF 1
ENDMDL
MODEL 9
REMARK VINA RESULT:      -6.6      2.488      6.286
REMARK  Name = 
REMARK  1 active torsions:
REMARK  status: ('A' for Active; 'I' for Inactive)
REMARK    1  A    between atoms: C_8  and  C_9
REMARK                            x       y       z     vdW  Elec       q    Type
REMARK                         _______ _______ _______ _____ _____    ______ ____
ROOT
ATOM      1  O   UNL     1       0.584   2.050  18.176  0.00  0.00    +0.000 OA
ATOM      2  C   UNL     1       1.085   2.927  18.864  0.00  0.00    +0.000 C 
ATOM      3  N   UNL     1       0.516   3.291  20.048  0.00  0.00    +0.000 N 
ATOM      4  C   UNL     1       0.987   4.479  20.761  0.00  0.00    +0.000 C 
ATOM      5  C   UNL     1       2.527   4.617  20.749  0.00  0.00    +0.000 C 
ATOM      6  C   UNL     1       3.028   4.356  19.358  0.00  0.00    +0.000 A 
ATOM      7  N   UNL     1       4.180   4.782  18.818  0.00  0.00    +0.000 N 
ATOM      8  C   UNL     1       4.226   4.276  17.560  0.00  0.00    +0.000 A 
ATOM      9  C   UNL     1       3.097   3.493  17.319  0.00  0.00    +0.000 A 
ATOM     10  C   UNL     1       2.349   3.565  18.477  0.00  0.00    +0.000 A 
ATOM     11  H   UNL     1      -0.331   2.810  20.385  0.00  0.00    +0.000 HD
ATOM     12  H   UNL     1       4.881   5.392  19.293  0.00  0.00    +0.000 HD
ENDROOT
BRANCH   8  13
ATOM     13  C   UNL     1       5.315   4.527  16.588  0.00  0.00    +0.000 A 
ATOM     14  C   UNL     1       6.513   5.151  16.972  0.00  0.00    +0.000 A 
ATOM     15  C   UNL     1       7.486   5.389  16.004  0.00  0.00    +0.000 A 
ATOM     16  N   UNL     1       7.267   5.018  14.717  0.00  0.00    +0.000 NA
ATOM     17  C   UNL     1       6.108   4.413  14.355  0.00  0.00    +0.000 A 
ATOM     18  N   UNL     1       5.145   4.173  15.284  0.00  0.00    +0.000 NA
ENDBRANCH   8  13
TORSDOF 1
ENDMDL
