MODEL 1
REMARK VINA RESULT:      -9.5      0.000      0.000
REMARK  Name = 
REMARK  6 active torsions:
REMARK  status: ('A' for Active; 'I' for Inactive)
REMARK    1  A    between atoms: C_1  and  C_2
REMARK    2  A    between atoms: C_3  and  C_4
REMARK    3  A    between atoms: C_7  and  N_8
REMARK    4  A    between atoms: C_9  and  C_11
REMARK    5  A    between atoms: C_24  and  C_25
REMARK    6  A    between atoms: N_27  and  C_28
REMARK                            x       y       z     vdW  Elec       q    Type
REMARK                         _______ _______ _______ _____ _____    ______ ____
ROOT
ATOM      1  C   UNL     1       2.678   6.961  18.628  0.00  0.00    +0.000 A 
ATOM      2  C   UNL     1       2.323   8.064  17.842  0.00  0.00    +0.000 A 
ATOM      3  C   UNL     1       1.686   9.189  18.381  0.00  0.00    +0.000 A 
ATOM      4  C   UNL     1       1.292   9.221  19.715  0.00  0.00    +0.000 A 
ATOM      5  C   UNL     1       1.552   8.099  20.501  0.00  0.00    +0.000 A 
ATOM      6  C   UNL     1       2.254   7.000  19.972  0.00  0.00    +0.000 A 
ENDROOT
BRANCH   1   9
ATOM      7  C   UNL     1       4.641   7.126  16.227  0.00  0.00    +0.000 C 
ATOM      8  C   UNL     1       4.281   5.832  16.925  0.00  0.00    +0.000 A 
ATOM      9  C   UNL     1       3.407   5.787  18.058  0.00  0.00    +0.000 A 
ATOM     10  C   UNL     1       3.198   4.527  18.669  0.00  0.00    +0.000 A 
ATOM     11  C   UNL     1       3.782   3.354  18.193  0.00  0.00    +0.000 A 
ATOM     12  C   UNL     1       4.577   3.396  17.059  0.00  0.00    +0.000 A 
ATOM     13  C   UNL     1       4.828   4.616  16.416  0.00  0.00    +0.000 A 
BRANCH  13  14
ATOM     14  C   UNL     1       5.679   4.563  15.209  0.00  0.00    +0.000 A 
ATOM     15  N   UNL     1       5.524   3.860  14.130  0.00  0.00    +0.000 NA
ATOM     16  N   UNL     1       6.609   4.212  13.386  0.00  0.00    +0.000 N 
ATOM     17  C   UNL     1       6.844   3.695  12.067  0.00  0.00    +0.000 C 
ATOM     18  C   UNL     1       7.392   5.126  14.043  0.00  0.00    +0.000 A 
ATOM     19  O   UNL     1       8.420   5.662  13.667  0.00  0.00    +0.000 OA
ATOM     20  O   UNL     1       6.783   5.353  15.241  0.00  0.00    +0.000 OA
ENDBRANCH  13  14
ENDBRANCH   1   9
BRANCH   4  21
ATOM     21  N   UNL     1       0.640  10.326  20.314  0.00  0.00    +0.000 N 
ATOM     22  C   UNL     1      -0.659  10.747  20.057  0.00  0.00    +0.000 C 
ATOM     23  O   UNL     1      -1.430  10.234  19.252  0.00  0.00    +0.000 OA
ATOM     24  H   UNL     1       1.213  10.908  20.917  0.00  0.00    +0.000 HD
BRANCH  22  25
ATOM     25  C   UNL     1      -1.130  11.964  20.770  0.00  0.00    +0.000 A 
ATOM     26  C   UNL     1      -1.346  13.146  20.059  0.00  0.00    +0.000 A 
ATOM     27  F   UNL     1      -1.004  13.241  18.765  0.00  0.00    +0.000 F 
ATOM     28  C   UNL     1      -1.929  14.262  20.658  0.00  0.00    +0.000 A 
ATOM     29  C   UNL     1      -2.316  14.208  21.993  0.00  0.00    +0.000 A 
ATOM     30  C   UNL     1      -2.083  13.048  22.730  0.00  0.00    +0.000 A 
ATOM     31  C   UNL     1      -1.481  11.932  22.131  0.00  0.00    +0.000 A 
ATOM     32 CL   UNL     1      -1.148  10.596  23.180  0.00  0.00    +0.000 Cl
ENDBRANCH  22  25
ENDBRANCH   4  21
TORSDOF 4
ENDMDL
MODEL 2
REMARK VINA RESULT:      -9.4      1.376      1.624
REMARK  Name = 
REMARK  6 active torsions:
REMARK  status: ('A' for Active; 'I' for Inactive)
REMARK    1  A    between atoms: C_1  and  C_2
REMARK    2  A    between atoms: C_3  and  C_4
REMARK    3  A    between atoms: C_7  and  N_8
REMARK    4  A    between atoms: C_9  and  C_11
REMARK    5  A    between atoms: C_24  and  C_25
REMARK    6  A    between atoms: N_27  and  C_28
REMARK                            x       y       z     vdW  Elec       q    Type
REMARK                         _______ _______ _______ _____ _____    ______ ____
ROOT
ATOM      1  C   UNL     1       2.846   6.718  18.516  0.00  0.00    +0.000 A 
ATOM      2  C   UNL     1       2.470   7.851  17.784  0.00  0.00    +0.000 A 
ATOM      3  C   UNL     1       1.843   8.951  18.383  0.00  0.00    +0.000 A 
ATOM      4  C   UNL     1       1.479   8.927  19.725  0.00  0.00    +0.000 A 
ATOM      5  C   UNL     1       1.760   7.774  20.459  0.00  0.00    +0.000 A 
ATOM      6  C   UNL     1       2.453   6.701  19.870  0.00  0.00    +0.000 A 
ENDROOT
BRANCH   1   9
ATOM      7  C   UNL     1       4.833   7.001  16.147  0.00  0.00    +0.000 C 
ATOM      8  C   UNL     1       4.450   5.673  16.762  0.00  0.00    +0.000 A 
ATOM      9  C   UNL     1       3.566   5.571  17.883  0.00  0.00    +0.000 A 
ATOM     10  C   UNL     1       3.335   4.279  18.415  0.00  0.00    +0.000 A 
ATOM     11  C   UNL     1       3.907   3.130  17.874  0.00  0.00    +0.000 A 
ATOM     12  C   UNL     1       4.714   3.229  16.752  0.00  0.00    +0.000 A 
ATOM     13  C   UNL     1       4.986   4.483  16.185  0.00  0.00    +0.000 A 
BRANCH  13  14
ATOM     14  C   UNL     1       5.848   4.490  14.985  0.00  0.00    +0.000 A 
ATOM     15  N   UNL     1       5.719   3.822  13.881  0.00  0.00    +0.000 NA
ATOM     16  N   UNL     1       6.801   4.224  13.159  0.00  0.00    +0.000 N 
ATOM     17  C   UNL     1       7.058   3.759  11.825  0.00  0.00    +0.000 C 
ATOM     18  C   UNL     1       7.556   5.134  13.854  0.00  0.00    +0.000 A 
ATOM     19  O   UNL     1       8.575   5.706  13.505  0.00  0.00    +0.000 OA
ATOM     20  O   UNL     1       6.933   5.305  15.054  0.00  0.00    +0.000 OA
ENDBRANCH  13  14
ENDBRANCH   1   9
BRANCH   4  21
ATOM     21  N   UNL     1       0.837  10.004  20.384  0.00  0.00    +0.000 N 
ATOM     22  C   UNL     1      -0.446  10.469  20.130  0.00  0.00    +0.000 C 
ATOM     23  O   UNL     1      -1.211  10.028  19.279  0.00  0.00    +0.000 OA
ATOM     24  H   UNL     1       1.410  10.533  21.035  0.00  0.00    +0.000 HD
BRANCH  22  25
ATOM     25  C   UNL     1      -0.907  11.647  20.913  0.00  0.00    +0.000 A 
ATOM     26  C   UNL     1      -1.181  11.512  22.275  0.00  0.00    +0.000 A 
ATOM     27  F   UNL     1      -1.167  10.305  22.862  0.00  0.00    +0.000 F 
ATOM     28  C   UNL     1      -1.468  12.618  23.075  0.00  0.00    +0.000 A 
ATOM     29  C   UNL     1      -1.479  13.892  22.517  0.00  0.00    +0.000 A 
ATOM     30  C   UNL     1      -1.237  14.046  21.153  0.00  0.00    +0.000 A 
ATOM     31  C   UNL     1      -0.966  12.933  20.346  0.00  0.00    +0.000 A 
ATOM     32 CL   UNL     1      -0.792  13.247  18.653  0.00  0.00    +0.000 Cl
ENDBRANCH  22  25
ENDBRANCH   4  21
TORSDOF 4
ENDMDL
MODEL 3
REMARK VINA RESULT:      -9.3      1.598      2.008
REMARK  Name = 
REMARK  6 active torsions:
REMARK  status: ('A' for Active; 'I' for Inactive)
REMARK    1  A    between atoms: C_1  and  C_2
REMARK    2  A    between atoms: C_3  and  C_4
REMARK    3  A    between atoms: C_7  and  N_8
REMARK    4  A    between atoms: C_9  and  C_11
REMARK    5  A    between atoms: C_24  and  C_25
REMARK    6  A    between atoms: N_27  and  C_28
REMARK                            x       y       z     vdW  Elec       q    Type
REMARK                         _______ _______ _______ _____ _____    ______ ____
ROOT
ATOM      1  C   UNL     1       2.469   7.135  18.790  0.00  0.00    +0.000 A 
ATOM      2  C   UNL     1       2.102   7.274  20.134  0.00  0.00    +0.000 A 
ATOM      3  C   UNL     1       1.303   8.334  20.581  0.00  0.00    +0.000 A 
ATOM      4  C   UNL     1       0.912   9.354  19.719  0.00  0.00    +0.000 A 
ATOM      5  C   UNL     1       1.339   9.288  18.393  0.00  0.00    +0.000 A 
ATOM      6  C   UNL     1       2.083   8.185  17.933  0.00  0.00    +0.000 A 
ENDROOT
BRANCH   1   9
ATOM      7  C   UNL     1       4.367   7.227  16.334  0.00  0.00    +0.000 C 
ATOM      8  C   UNL     1       4.121   5.979  17.153  0.00  0.00    +0.000 A 
ATOM      9  C   UNL     1       3.275   5.971  18.308  0.00  0.00    +0.000 A 
ATOM     10  C   UNL     1       3.176   4.760  19.034  0.00  0.00    +0.000 A 
ATOM     11  C   UNL     1       3.838   3.596  18.649  0.00  0.00    +0.000 A 
ATOM     12  C   UNL     1       4.606   3.594  17.496  0.00  0.00    +0.000 A 
ATOM     13  C   UNL     1       4.750   4.766  16.741  0.00  0.00    +0.000 A 
BRANCH  13  14
ATOM     14  C   UNL     1       5.579   4.667  15.521  0.00  0.00    +0.000 A 
ATOM     15  N   UNL     1       5.393   3.943  14.463  0.00  0.00    +0.000 NA
ATOM     16  N   UNL     1       6.472   4.254  13.693  0.00  0.00    +0.000 N 
ATOM     17  C   UNL     1       6.675   3.702  12.383  0.00  0.00    +0.000 C 
ATOM     18  C   UNL     1       7.283   5.168  14.315  0.00  0.00    +0.000 A 
ATOM     19  O   UNL     1       8.316   5.674  13.909  0.00  0.00    +0.000 OA
ATOM     20  O   UNL     1       6.699   5.435  15.517  0.00  0.00    +0.000 OA
ENDBRANCH  13  14
ENDBRANCH   1   9
BRANCH   4  21
ATOM     21  N   UNL     1       0.111  10.452  20.115  0.00  0.00    +0.000 N 
ATOM     22  C   UNL     1       0.554  11.591  20.776  0.00  0.00    +0.000 C 
ATOM     23  O   UNL     1       1.707  11.805  21.136  0.00  0.00    +0.000 OA
ATOM     24  H   UNL     1      -0.889  10.346  19.977  0.00  0.00    +0.000 HD
BRANCH  22  25
ATOM     25  C   UNL     1      -0.471  12.607  21.136  0.00  0.00    +0.000 A 
ATOM     26  C   UNL     1      -1.048  12.590  22.408  0.00  0.00    +0.000 A 
ATOM     27  F   UNL     1      -0.795  11.589  23.264  0.00  0.00    +0.000 F 
ATOM     28  C   UNL     1      -1.897  13.610  22.836  0.00  0.00    +0.000 A 
ATOM     29  C   UNL     1      -2.178  14.678  21.991  0.00  0.00    +0.000 A 
ATOM     30  C   UNL     1      -1.636  14.700  20.707  0.00  0.00    +0.000 A 
ATOM     31  C   UNL     1      -0.796  13.665  20.270  0.00  0.00    +0.000 A 
ATOM     32 CL   UNL     1      -0.277  13.754  18.622  0.00  0.00    +0.000 Cl
ENDBRANCH  22  25
ENDBRANCH   4  21
TORSDOF 4
ENDMDL
MODEL 4
REMARK VINA RESULT:      -9.3      1.635      1.849
REMARK  Name = 
REMARK  6 active torsions:
REMARK  status: ('A' for Active; 'I' for Inactive)
REMARK    1  A    between atoms: C_1  and  C_2
REMARK    2  A    between atoms: C_3  and  C_4
REMARK    3  A    between atoms: C_7  and  N_8
REMARK    4  A    between atoms: C_9  and  C_11
REMARK    5  A    between atoms: C_24  and  C_25
REMARK    6  A    between atoms: N_27  and  C_28
REMARK                            x       y       z     vdW  Elec       q    Type
REMARK                         _______ _______ _______ _____ _____    ______ ____
ROOT
ATOM      1  C   UNL     1       2.941   7.088  18.815  0.00  0.00    +0.000 A 
ATOM      2  C   UNL     1       2.521   8.126  17.974  0.00  0.00    +0.000 A 
ATOM      3  C   UNL     1       1.602   9.097  18.392  0.00  0.00    +0.000 A 
ATOM      4  C   UNL     1       0.991   9.019  19.638  0.00  0.00    +0.000 A 
ATOM      5  C   UNL     1       1.322   7.944  20.464  0.00  0.00    +0.000 A 
ATOM      6  C   UNL     1       2.298   7.011  20.067  0.00  0.00    +0.000 A 
ENDROOT
BRANCH   1   9
ATOM      7  C   UNL     1       4.341   7.110  16.044  0.00  0.00    +0.000 C 
ATOM      8  C   UNL     1       4.589   6.051  17.096  0.00  0.00    +0.000 A 
ATOM      9  C   UNL     1       3.965   6.087  18.384  0.00  0.00    +0.000 A 
ATOM     10  C   UNL     1       4.326   5.079  19.310  0.00  0.00    +0.000 A 
ATOM     11  C   UNL     1       5.228   4.063  19.002  0.00  0.00    +0.000 A 
ATOM     12  C   UNL     1       5.782   4.000  17.734  0.00  0.00    +0.000 A 
ATOM     13  C   UNL     1       5.469   4.975  16.776  0.00  0.00    +0.000 A 
BRANCH  13  14
ATOM     14  C   UNL     1       6.099   4.820  15.448  0.00  0.00    +0.000 A 
ATOM     15  N   UNL     1       5.760   4.042  14.468  0.00  0.00    +0.000 NA
ATOM     16  N   UNL     1       6.701   4.323  13.524  0.00  0.00    +0.000 N 
ATOM     17  C   UNL     1       6.704   3.707  12.227  0.00  0.00    +0.000 C 
ATOM     18  C   UNL     1       7.585   5.273  13.966  0.00  0.00    +0.000 A 
ATOM     19  O   UNL     1       8.533   5.766  13.379  0.00  0.00    +0.000 OA
ATOM     20  O   UNL     1       7.192   5.596  15.231  0.00  0.00    +0.000 OA
ENDBRANCH  13  14
ENDBRANCH   1   9
BRANCH   4  21
ATOM     21  N   UNL     1       0.050   9.966  20.113  0.00  0.00    +0.000 N 
ATOM     22  C   UNL     1       0.314  11.012  20.987  0.00  0.00    +0.000 C 
ATOM     23  O   UNL     1       1.402  11.260  21.497  0.00  0.00    +0.000 OA
ATOM     24  H   UNL     1      -0.917   9.800  19.855  0.00  0.00    +0.000 HD
BRANCH  22  25
ATOM     25  C   UNL     1      -0.836  11.865  21.390  0.00  0.00    +0.000 A 
ATOM     26  C   UNL     1      -1.465  11.647  22.617  0.00  0.00    +0.000 A 
ATOM     27  F   UNL     1      -1.138  10.592  23.379  0.00  0.00    +0.000 F 
ATOM     28  C   UNL     1      -2.445  12.515  23.098  0.00  0.00    +0.000 A 
ATOM     29  C   UNL     1      -2.808  13.632  22.353  0.00  0.00    +0.000 A 
ATOM     30  C   UNL     1      -2.213  13.852  21.112  0.00  0.00    +0.000 A 
ATOM     31  C   UNL     1      -1.241  12.969  20.620  0.00  0.00    +0.000 A 
ATOM     32 CL   UNL     1      -0.660  13.294  19.022  0.00  0.00    +0.000 Cl
ENDBRANCH  22  25
ENDBRANCH   4  21
TORSDOF 4
ENDMDL
MODEL 5
REMARK VINA RESULT:      -9.2      0.928      1.263
REMARK  Name = 
REMARK  6 active torsions:
REMARK  status: ('A' for Active; 'I' for Inactive)
REMARK    1  A    between atoms: C_1  and  C_2
REMARK    2  A    between atoms: C_3  and  C_4
REMARK    3  A    between atoms: C_7  and  N_8
REMARK    4  A    between atoms: C_9  and  C_11
REMARK    5  A    between atoms: C_24  and  C_25
REMARK    6  A    between atoms: N_27  and  C_28
REMARK                            x       y       z     vdW  Elec       q    Type
REMARK                         _______ _______ _______ _____ _____    ______ ____
ROOT
ATOM      1  C   UNL     1       2.573   7.105  18.787  0.00  0.00    +0.000 A 
ATOM      2  C   UNL     1       2.154   7.220  20.118  0.00  0.00    +0.000 A 
ATOM      3  C   UNL     1       1.333   8.269  20.552  0.00  0.00    +0.000 A 
ATOM      4  C   UNL     1       0.973   9.302  19.694  0.00  0.00    +0.000 A 
ATOM      5  C   UNL     1       1.451   9.261  18.384  0.00  0.00    +0.000 A 
ATOM      6  C   UNL     1       2.216   8.169  17.934  0.00  0.00    +0.000 A 
ENDROOT
BRANCH   1   9
ATOM      7  C   UNL     1       4.369   7.169  16.255  0.00  0.00    +0.000 C 
ATOM      8  C   UNL     1       4.201   5.946  17.129  0.00  0.00    +0.000 A 
ATOM      9  C   UNL     1       3.402   5.953  18.317  0.00  0.00    +0.000 A 
ATOM     10  C   UNL     1       3.375   4.768  19.091  0.00  0.00    +0.000 A 
ATOM     11  C   UNL     1       4.065   3.614  18.723  0.00  0.00    +0.000 A 
ATOM     12  C   UNL     1       4.786   3.595  17.541  0.00  0.00    +0.000 A 
ATOM     13  C   UNL     1       4.857   4.741  16.737  0.00  0.00    +0.000 A 
BRANCH  13  14
ATOM     14  C   UNL     1       5.642   4.623  15.490  0.00  0.00    +0.000 A 
ATOM     15  N   UNL     1       5.422   3.876  14.453  0.00  0.00    +0.000 NA
ATOM     16  N   UNL     1       6.469   4.181  13.637  0.00  0.00    +0.000 N 
ATOM     17  C   UNL     1       6.628   3.603  12.332  0.00  0.00    +0.000 C 
ATOM     18  C   UNL     1       7.295   5.114  14.210  0.00  0.00    +0.000 A 
ATOM     19  O   UNL     1       8.306   5.621  13.756  0.00  0.00    +0.000 OA
ATOM     20  O   UNL     1       6.754   5.401  15.428  0.00  0.00    +0.000 OA
ENDBRANCH  13  14
ENDBRANCH   1   9
BRANCH   4  21
ATOM     21  N   UNL     1       0.152  10.391  20.077  0.00  0.00    +0.000 N 
ATOM     22  C   UNL     1       0.570  11.532  20.750  0.00  0.00    +0.000 C 
ATOM     23  O   UNL     1       1.714  11.757  21.134  0.00  0.00    +0.000 OA
ATOM     24  H   UNL     1      -0.843  10.275  19.919  0.00  0.00    +0.000 HD
BRANCH  22  25
ATOM     25  C   UNL     1      -0.472  12.536  21.094  0.00  0.00    +0.000 A 
ATOM     26  C   UNL     1      -0.589  13.703  20.336  0.00  0.00    +0.000 A 
ATOM     27  F   UNL     1       0.313  13.999  19.387  0.00  0.00    +0.000 F 
ATOM     28  C   UNL     1      -1.643  14.595  20.528  0.00  0.00    +0.000 A 
ATOM     29  C   UNL     1      -2.613  14.325  21.488  0.00  0.00    +0.000 A 
ATOM     30  C   UNL     1      -2.499  13.180  22.276  0.00  0.00    +0.000 A 
ATOM     31  C   UNL     1      -1.429  12.293  22.094  0.00  0.00    +0.000 A 
ATOM     32 CL   UNL     1      -1.344  10.969  23.206  0.00  0.00    +0.000 Cl
ENDBRANCH  22  25
ENDBRANCH   4  21
TORSDOF 4
ENDMDL
MODEL 6
REMARK VINA RESULT:      -9.2      0.961      1.052
REMARK  Name = 
REMARK  6 active torsions:
REMARK  status: ('A' for Active; 'I' for Inactive)
REMARK    1  A    between atoms: C_1  and  C_2
REMARK    2  A    between atoms: C_3  and  C_4
REMARK    3  A    between atoms: C_7  and  N_8
REMARK    4  A    between atoms: C_9  and  C_11
REMARK    5  A    between atoms: C_24  and  C_25
REMARK    6  A    between atoms: N_27  and  C_28
REMARK                            x       y       z     vdW  Elec       q    Type
REMARK                         _______ _______ _______ _____ _____    ______ ____
ROOT
ATOM      1  C   UNL     1       2.785   6.805  18.540  0.00  0.00    +0.000 A 
ATOM      2  C   UNL     1       2.410   7.935  17.802  0.00  0.00    +0.000 A 
ATOM      3  C   UNL     1       1.753   9.024  18.390  0.00  0.00    +0.000 A 
ATOM      4  C   UNL     1       1.360   8.991  19.723  0.00  0.00    +0.000 A 
ATOM      5  C   UNL     1       1.641   7.840  20.461  0.00  0.00    +0.000 A 
ATOM      6  C   UNL     1       2.362   6.778  19.884  0.00  0.00    +0.000 A 
ENDROOT
BRANCH   1   9
ATOM      7  C   UNL     1       4.782   7.117  16.182  0.00  0.00    +0.000 C 
ATOM      8  C   UNL     1       4.425   5.785  16.804  0.00  0.00    +0.000 A 
ATOM      9  C   UNL     1       3.535   5.670  17.919  0.00  0.00    +0.000 A 
ATOM     10  C   UNL     1       3.330   4.378  18.459  0.00  0.00    +0.000 A 
ATOM     11  C   UNL     1       3.932   3.238  17.930  0.00  0.00    +0.000 A 
ATOM     12  C   UNL     1       4.744   3.348  16.813  0.00  0.00    +0.000 A 
ATOM     13  C   UNL     1       4.992   4.603  16.240  0.00  0.00    +0.000 A 
BRANCH  13  14
ATOM     14  C   UNL     1       5.862   4.622  15.045  0.00  0.00    +0.000 A 
ATOM     15  N   UNL     1       6.856   5.406  14.770  0.00  0.00    +0.000 NA
ATOM     16  N   UNL     1       7.257   4.963  13.545  0.00  0.00    +0.000 N 
ATOM     17  C   UNL     1       8.376   5.529  12.846  0.00  0.00    +0.000 C 
ATOM     18  C   UNL     1       6.487   3.913  13.117  0.00  0.00    +0.000 A 
ATOM     19  O   UNL     1       6.577   3.271  12.084  0.00  0.00    +0.000 OA
ATOM     20  O   UNL     1       5.568   3.692  14.099  0.00  0.00    +0.000 OA
ENDBRANCH  13  14
ENDBRANCH   1   9
BRANCH   4  21
ATOM     21  N   UNL     1       0.689  10.057  20.371  0.00  0.00    +0.000 N 
ATOM     22  C   UNL     1      -0.585  10.524  20.070  0.00  0.00    +0.000 C 
ATOM     23  O   UNL     1      -1.312  10.093  19.181  0.00  0.00    +0.000 OA
ATOM     24  H   UNL     1       1.232  10.577  21.052  0.00  0.00    +0.000 HD
BRANCH  22  25
ATOM     25  C   UNL     1      -1.081  11.689  20.850  0.00  0.00    +0.000 A 
ATOM     26  C   UNL     1      -1.384  12.884  20.195  0.00  0.00    +0.000 A 
ATOM     27  F   UNL     1      -1.104  13.045  18.893  0.00  0.00    +0.000 F 
ATOM     28  C   UNL     1      -1.992  13.947  20.863  0.00  0.00    +0.000 A 
ATOM     29  C   UNL     1      -2.316  13.825  22.210  0.00  0.00    +0.000 A 
ATOM     30  C   UNL     1      -1.996  12.651  22.889  0.00  0.00    +0.000 A 
ATOM     31  C   UNL     1      -1.369  11.589  22.222  0.00  0.00    +0.000 A 
ATOM     32 CL   UNL     1      -0.927  10.232  23.202  0.00  0.00    +0.000 Cl
ENDBRANCH  22  25
ENDBRANCH   4  21
TORSDOF 4
ENDMDL
MODEL 7
REMARK VINA RESULT:      -9.2      2.203      2.905
REMARK  Name = 
REMARK  6 active torsions:
REMARK  status: ('A' for Active; 'I' for Inactive)
REMARK    1  A    between atoms: C_1  and  C_2
REMARK    2  A    between atoms: C_3  and  C_4
REMARK    3  A    between atoms: C_7  and  N_8
REMARK    4  A    between atoms: C_9  and  C_11
REMARK    5  A    between atoms: C_24  and  C_25
REMARK    6  A    between atoms: N_27  and  C_28
REMARK                            x       y       z     vdW  Elec       q    Type
REMARK                         _______ _______ _______ _____ _____    ______ ____
ROOT
ATOM      1  C   UNL     1       1.689   7.831  19.994  0.00  0.00    +0.000 A 
ATOM      2  C   UNL     1       1.272   8.181  21.284  0.00  0.00    +0.000 A 
ATOM      3  C   UNL     1       0.593   9.378  21.548  0.00  0.00    +0.000 A 
ATOM      4  C   UNL     1       0.384  10.321  20.547  0.00  0.00    +0.000 A 
ATOM      5  C   UNL     1       0.869  10.038  19.270  0.00  0.00    +0.000 A 
ATOM      6  C   UNL     1       1.488   8.805  18.996  0.00  0.00    +0.000 A 
ENDROOT
BRANCH   1   9
ATOM      7  C   UNL     1       3.931   7.454  17.880  0.00  0.00    +0.000 C 
ATOM      8  C   UNL     1       3.366   6.322  18.709  0.00  0.00    +0.000 A 
ATOM      9  C   UNL     1       2.363   6.527  19.709  0.00  0.00    +0.000 A 
ATOM     10  C   UNL     1       1.961   5.402  20.469  0.00  0.00    +0.000 A 
ATOM     11  C   UNL     1       2.480   4.127  20.256  0.00  0.00    +0.000 A 
ATOM     12  C   UNL     1       3.406   3.924  19.246  0.00  0.00    +0.000 A 
ATOM     13  C   UNL     1       3.849   5.001  18.466  0.00  0.00    +0.000 A 
BRANCH  13  14
ATOM     14  C   UNL     1       4.829   4.687  17.404  0.00  0.00    +0.000 A 
ATOM     15  N   UNL     1       4.618   4.342  16.173  0.00  0.00    +0.000 NA
ATOM     16  N   UNL     1       5.879   4.175  15.688  0.00  0.00    +0.000 N 
ATOM     17  C   UNL     1       6.143   3.815  14.324  0.00  0.00    +0.000 C 
ATOM     18  C   UNL     1       6.822   4.430  16.650  0.00  0.00    +0.000 A 
ATOM     19  O   UNL     1       8.037   4.393  16.558  0.00  0.00    +0.000 OA
ATOM     20  O   UNL     1       6.133   4.762  17.778  0.00  0.00    +0.000 OA
ENDBRANCH  13  14
ENDBRANCH   1   9
BRANCH   4  21
ATOM     21  N   UNL     1      -0.289  11.550  20.755  0.00  0.00    +0.000 N 
ATOM     22  C   UNL     1       0.296  12.746  21.149  0.00  0.00    +0.000 C 
ATOM     23  O   UNL     1       1.486  12.911  21.398  0.00  0.00    +0.000 OA
ATOM     24  H   UNL     1      -1.302  11.519  20.694  0.00  0.00    +0.000 HD
BRANCH  22  25
ATOM     25  C   UNL     1      -0.608  13.909  21.351  0.00  0.00    +0.000 A 
ATOM     26  C   UNL     1      -1.193  14.126  22.600  0.00  0.00    +0.000 A 
ATOM     27  F   UNL     1      -1.062  13.225  23.586  0.00  0.00    +0.000 F 
ATOM     28  C   UNL     1      -1.923  15.283  22.872  0.00  0.00    +0.000 A 
ATOM     29  C   UNL     1      -2.074  16.254  21.888  0.00  0.00    +0.000 A 
ATOM     30  C   UNL     1      -1.524  16.044  20.626  0.00  0.00    +0.000 A 
ATOM     31  C   UNL     1      -0.804  14.874  20.347  0.00  0.00    +0.000 A 
ATOM     32 CL   UNL     1      -0.267  14.685  18.712  0.00  0.00    +0.000 Cl
ENDBRANCH  22  25
ENDBRANCH   4  21
TORSDOF 4
ENDMDL
MODEL 8
REMARK VINA RESULT:      -9.2      1.639      1.902
REMARK  Name = 
REMARK  6 active torsions:
REMARK  status: ('A' for Active; 'I' for Inactive)
REMARK    1  A    between atoms: C_1  and  C_2
REMARK    2  A    between atoms: C_3  and  C_4
REMARK    3  A    between atoms: C_7  and  N_8
REMARK    4  A    between atoms: C_9  and  C_11
REMARK    5  A    between atoms: C_24  and  C_25
REMARK    6  A    between atoms: N_27  and  C_28
REMARK                            x       y       z     vdW  Elec       q    Type
REMARK                         _______ _______ _______ _____ _____    ______ ____
ROOT
ATOM      1  C   UNL     1       2.721   6.845  18.587  0.00  0.00    +0.000 A 
ATOM      2  C   UNL     1       2.368   7.996  17.873  0.00  0.00    +0.000 A 
ATOM      3  C   UNL     1       1.762   9.099  18.489  0.00  0.00    +0.000 A 
ATOM      4  C   UNL     1       1.396   9.060  19.831  0.00  0.00    +0.000 A 
ATOM      5  C   UNL     1       1.653   7.891  20.546  0.00  0.00    +0.000 A 
ATOM      6  C   UNL     1       2.326   6.813  19.940  0.00  0.00    +0.000 A 
ENDROOT
BRANCH   1   9
ATOM      7  C   UNL     1       4.817   7.137  16.315  0.00  0.00    +0.000 C 
ATOM      8  C   UNL     1       4.354   5.803  16.858  0.00  0.00    +0.000 A 
ATOM      9  C   UNL     1       3.419   5.694  17.936  0.00  0.00    +0.000 A 
ATOM     10  C   UNL     1       3.112   4.393  18.404  0.00  0.00    +0.000 A 
ATOM     11  C   UNL     1       3.660   3.243  17.839  0.00  0.00    +0.000 A 
ATOM     12  C   UNL     1       4.517   3.353  16.756  0.00  0.00    +0.000 A 
ATOM     13  C   UNL     1       4.864   4.615  16.254  0.00  0.00    +0.000 A 
BRANCH  13  14
ATOM     14  C   UNL     1       5.776   4.634  15.091  0.00  0.00    +0.000 A 
ATOM     15  N   UNL     1       6.791   5.405  14.860  0.00  0.00    +0.000 NA
ATOM     16  N   UNL     1       7.228   4.970  13.646  0.00  0.00    +0.000 N 
ATOM     17  C   UNL     1       8.380   5.526  12.993  0.00  0.00    +0.000 C 
ATOM     18  C   UNL     1       6.457   3.938  13.177  0.00  0.00    +0.000 A 
ATOM     19  O   UNL     1       6.574   3.308  12.140  0.00  0.00    +0.000 OA
ATOM     20  O   UNL     1       5.501   3.720  14.123  0.00  0.00    +0.000 OA
ENDBRANCH  13  14
ENDBRANCH   1   9
BRANCH   4  21
ATOM     21  N   UNL     1       0.774  10.139  20.506  0.00  0.00    +0.000 N 
ATOM     22  C   UNL     1      -0.489  10.651  20.240  0.00  0.00    +0.000 C 
ATOM     23  O   UNL     1      -1.250  10.255  19.363  0.00  0.00    +0.000 OA
ATOM     24  H   UNL     1       1.350  10.632  21.181  0.00  0.00    +0.000 HD
BRANCH  22  25
ATOM     25  C   UNL     1      -0.929  11.821  21.046  0.00  0.00    +0.000 A 
ATOM     26  C   UNL     1      -1.266  11.652  22.390  0.00  0.00    +0.000 A 
ATOM     27  F   UNL     1      -1.331  10.426  22.933  0.00  0.00    +0.000 F 
ATOM     28  C   UNL     1      -1.537  12.742  23.217  0.00  0.00    +0.000 A 
ATOM     29  C   UNL     1      -1.467  14.033  22.705  0.00  0.00    +0.000 A 
ATOM     30  C   UNL     1      -1.161  14.223  21.359  0.00  0.00    +0.000 A 
ATOM     31  C   UNL     1      -0.906  13.126  20.524  0.00  0.00    +0.000 A 
ATOM     32 CL   UNL     1      -0.647  13.490  18.852  0.00  0.00    +0.000 Cl
ENDBRANCH  22  25
ENDBRANCH   4  21
TORSDOF 4
ENDMDL
MODEL 9
REMARK VINA RESULT:      -9.0      3.748     10.921
REMARK  Name = 
REMARK  6 active torsions:
REMARK  status: ('A' for Active; 'I' for Inactive)
REMARK    1  A    between atoms: C_1  and  C_2
REMARK    2  A    between atoms: C_3  and  C_4
REMARK    3  A    between atoms: C_7  and  N_8
REMARK    4  A    between atoms: C_9  and  C_11
REMARK    5  A    between atoms: C_24  and  C_25
REMARK    6  A    between atoms: N_27  and  C_28
REMARK                            x       y       z     vdW  Elec       q    Type
REMARK                         _______ _______ _______ _____ _____    ______ ____
ROOT
ATOM      1  C   UNL     1       0.982   8.991  20.210  0.00  0.00    +0.000 A 
ATOM      2  C   UNL     1       1.437   7.719  20.581  0.00  0.00    +0.000 A 
ATOM      3  C   UNL     1       2.302   6.972  19.771  0.00  0.00    +0.000 A 
ATOM      4  C   UNL     1       2.675   7.425  18.510  0.00  0.00    +0.000 A 
ATOM      5  C   UNL     1       2.165   8.649  18.076  0.00  0.00    +0.000 A 
ATOM      6  C   UNL     1       1.353   9.427  18.923  0.00  0.00    +0.000 A 
ENDROOT
BRANCH   1   9
ATOM      7  C   UNL     1      -0.790  11.346  19.234  0.00  0.00    +0.000 C 
ATOM      8  C   UNL     1      -0.685  10.925  20.683  0.00  0.00    +0.000 A 
ATOM      9  C   UNL     1       0.104   9.807  21.104  0.00  0.00    +0.000 A 
ATOM     10  C   UNL     1       0.070   9.466  22.478  0.00  0.00    +0.000 A 
ATOM     11  C   UNL     1      -0.669  10.187  23.414  0.00  0.00    +0.000 A 
ATOM     12  C   UNL     1      -1.382  11.304  23.009  0.00  0.00    +0.000 A 
ATOM     13  C   UNL     1      -1.394  11.686  21.661  0.00  0.00    +0.000 A 
BRANCH  13  14
ATOM     14  C   UNL     1      -2.173  12.896  21.325  0.00  0.00    +0.000 A 
ATOM     15  N   UNL     1      -1.786  14.132  21.283  0.00  0.00    +0.000 NA
ATOM     16  N   UNL     1      -2.925  14.791  20.931  0.00  0.00    +0.000 N 
ATOM     17  C   UNL     1      -2.966  16.213  20.730  0.00  0.00    +0.000 C 
ATOM     18  C   UNL     1      -3.974  13.924  20.766  0.00  0.00    +0.000 A 
ATOM     19  O   UNL     1      -5.123  14.168  20.440  0.00  0.00    +0.000 OA
ATOM     20  O   UNL     1      -3.481  12.681  21.029  0.00  0.00    +0.000 OA
ENDBRANCH  13  14
ENDBRANCH   1   9
BRANCH   4  21
ATOM     21  N   UNL     1       3.541   6.712  17.644  0.00  0.00    +0.000 N 
ATOM     22  C   UNL     1       4.580   5.877  18.034  0.00  0.00    +0.000 C 
ATOM     23  O   UNL     1       4.917   5.648  19.191  0.00  0.00    +0.000 OA
ATOM     24  H   UNL     1       3.440   6.909  16.654  0.00  0.00    +0.000 HD
BRANCH  22  25
ATOM     25  C   UNL     1       5.394   5.260  16.953  0.00  0.00    +0.000 A 
ATOM     26  C   UNL     1       4.885   4.178  16.232  0.00  0.00    +0.000 A 
ATOM     27  F   UNL     1       3.730   3.596  16.589  0.00  0.00    +0.000 F 
ATOM     28  C   UNL     1       5.549   3.668  15.116  0.00  0.00    +0.000 A 
ATOM     29  C   UNL     1       6.742   4.247  14.696  0.00  0.00    +0.000 A 
ATOM     30  C   UNL     1       7.282   5.309  15.419  0.00  0.00    +0.000 A 
ATOM     31  C   UNL     1       6.624   5.810  16.551  0.00  0.00    +0.000 A 
ATOM     32 CL   UNL     1       7.452   7.056  17.421  0.00  0.00    +0.000 Cl
ENDBRANCH  22  25
ENDBRANCH   4  21
TORSDOF 4
ENDMDL
