MODEL 1
REMARK VINA RESULT:      -8.3      0.000      0.000
REMARK  Name = 
REMARK  5 active torsions:
REMARK  status: ('A' for Active; 'I' for Inactive)
REMARK    1  A    between atoms: C_1  and  C_2
REMARK    2  A    between atoms: C_2  and  C_3
REMARK    3  A    between atoms: C_2  and  C_4
REMARK    4  A    between atoms: C_7  and  O_8
REMARK    5  A    between atoms: N_16  and  C_17
REMARK                            x       y       z     vdW  Elec       q    Type
REMARK                         _______ _______ _______ _____ _____    ______ ____
ROOT
ATOM      1  C   UNL     1       2.860   5.751  18.984  0.00  0.00    +0.000 C 
ATOM      2  O   UNL     1       1.870   5.252  18.064  0.00  0.00    +0.000 OA
ATOM      3  C   UNL     1       1.256   4.098  18.608  0.00  0.00    +0.000 C 
ATOM      4  C   UNL     1       2.167   2.918  18.246  0.00  0.00    +0.000 C 
ATOM      5  C   UNL     1       2.876   2.638  19.597  0.00  0.00    +0.000 C 
ATOM      6  C   UNL     1       1.663   2.718  20.531  0.00  0.00    +0.000 C 
ATOM      7  C   UNL     1       1.339   4.167  20.134  0.00  0.00    +0.000 C 
ATOM      8  C   UNL     1       2.632   4.958  20.295  0.00  0.00    +0.000 C 
ATOM      9  C   UNL     1       3.663   3.826  20.237  0.00  0.00    +0.000 C 
ATOM     10  C   UNL     1       4.787   4.479  19.505  0.00  0.00    +0.000 C 
ATOM     11  O   UNL     1       5.957   4.231  19.721  0.00  0.00    +0.000 OA
ATOM     12  N   UNL     1       4.219   5.349  18.554  0.00  0.00    +0.000 N 
ENDROOT
BRANCH  12  13
ATOM     13  C   UNL     1       4.614   5.150  17.184  0.00  0.00    +0.000 A 
ATOM     14  C   UNL     1       4.930   6.272  16.377  0.00  0.00    +0.000 A 
ATOM     15  C   UNL     1       5.636   6.149  15.182  0.00  0.00    +0.000 A 
ATOM     16  C   UNL     1       5.988   4.890  14.735  0.00  0.00    +0.000 A 
ATOM     17 BR   UNL     1       7.073   4.718  13.203  0.00  0.00    +0.000 Br
ATOM     18  C   UNL     1       5.581   3.757  15.443  0.00  0.00    +0.000 A 
ATOM     19  C   UNL     1       4.884   3.889  16.651  0.00  0.00    +0.000 A 
ENDBRANCH  12  13
BRANCH   1  21
ATOM     20  C   UNL     1       1.925   7.782  17.712  0.00  0.00    +0.000 C 
ATOM     21  C   UNL     1       2.566   7.283  19.026  0.00  0.00    +0.000 C 
ATOM     22  C   UNL     1       1.752   7.800  20.206  0.00  0.00    +0.000 C 
ENDBRANCH   1  21
BRANCH   4  23
ATOM     23  O   UNL     1       1.363   1.812  17.838  0.00  0.00    +0.000 OA
ATOM     24  H   UNL     1       0.508   2.180  17.540  0.00  0.00    +0.000 HD
ENDBRANCH   4  23
TORSDOF 3
ENDMDL
MODEL 2
REMARK VINA RESULT:      -7.9      0.481      1.087
REMARK  Name = 
REMARK  5 active torsions:
REMARK  status: ('A' for Active; 'I' for Inactive)
REMARK    1  A    between atoms: C_1  and  C_2
REMARK    2  A    between atoms: C_2  and  C_3
REMARK    3  A    between atoms: C_2  and  C_4
REMARK    4  A    between atoms: C_7  and  O_8
REMARK    5  A    between atoms: N_16  and  C_17
REMARK                            x       y       z     vdW  Elec       q    Type
REMARK                         _______ _______ _______ _____ _____    ______ ____
ROOT
ATOM      1  C   UNL     1       3.030   5.821  18.815  0.00  0.00    +0.000 C 
ATOM      2  O   UNL     1       2.216   5.279  17.757  0.00  0.00    +0.000 OA
ATOM      3  C   UNL     1       1.560   4.111  18.216  0.00  0.00    +0.000 C 
ATOM      4  C   UNL     1       2.554   2.958  18.023  0.00  0.00    +0.000 C 
ATOM      5  C   UNL     1       3.046   2.718  19.475  0.00  0.00    +0.000 C 
ATOM      6  C   UNL     1       1.698   2.768  20.201  0.00  0.00    +0.000 C 
ATOM      7  C   UNL     1       1.396   4.200  19.734  0.00  0.00    +0.000 C 
ATOM      8  C   UNL     1       2.620   5.036  20.086  0.00  0.00    +0.000 C 
ATOM      9  C   UNL     1       3.683   3.939  20.212  0.00  0.00    +0.000 C 
ATOM     10  C   UNL     1       4.888   4.622  19.658  0.00  0.00    +0.000 C 
ATOM     11  O   UNL     1       6.015   4.416  20.061  0.00  0.00    +0.000 OA
ATOM     12  N   UNL     1       4.452   5.461  18.614  0.00  0.00    +0.000 N 
ENDROOT
BRANCH  12  13
ATOM     13  C   UNL     1       5.068   5.259  17.329  0.00  0.00    +0.000 A 
ATOM     14  C   UNL     1       5.600   3.987  17.000  0.00  0.00    +0.000 A 
ATOM     15  C   UNL     1       5.890   3.622  15.686  0.00  0.00    +0.000 A 
ATOM     16  C   UNL     1       5.712   4.548  14.676  0.00  0.00    +0.000 A 
ATOM     17 BR   UNL     1       5.953   4.023  12.882  0.00  0.00    +0.000 Br
ATOM     18  C   UNL     1       5.310   5.850  14.984  0.00  0.00    +0.000 A 
ATOM     19  C   UNL     1       5.007   6.205  16.305  0.00  0.00    +0.000 A 
ENDBRANCH  12  13
BRANCH   1  21
ATOM     20  C   UNL     1       1.969   7.744  17.475  0.00  0.00    +0.000 C 
ATOM     21  C   UNL     1       2.685   7.343  18.783  0.00  0.00    +0.000 C 
ATOM     22  C   UNL     1       1.907   7.901  19.969  0.00  0.00    +0.000 C 
ENDBRANCH   1  21
BRANCH   4  23
ATOM     23  O   UNL     1       1.861   1.821  17.511  0.00  0.00    +0.000 OA
ATOM     24  H   UNL     1       2.213   1.041  17.982  0.00  0.00    +0.000 HD
ENDBRANCH   4  23
TORSDOF 3
ENDMDL
MODEL 3
REMARK VINA RESULT:      -7.6      2.756      4.914
REMARK  Name = 
REMARK  5 active torsions:
REMARK  status: ('A' for Active; 'I' for Inactive)
REMARK    1  A    between atoms: C_1  and  C_2
REMARK    2  A    between atoms: C_2  and  C_3
REMARK    3  A    between atoms: C_2  and  C_4
REMARK    4  A    between atoms: C_7  and  O_8
REMARK    5  A    between atoms: N_16  and  C_17
REMARK                            x       y       z     vdW  Elec       q    Type
REMARK                         _______ _______ _______ _____ _____    ______ ____
ROOT
ATOM      1  C   UNL     1       4.150   4.179  17.942  0.00  0.00    +0.000 C 
ATOM      2  O   UNL     1       4.680   4.178  19.281  0.00  0.00    +0.000 OA
ATOM      3  C   UNL     1       4.343   2.962  19.924  0.00  0.00    +0.000 C 
ATOM      4  C   UNL     1       2.934   3.158  20.498  0.00  0.00    +0.000 C 
ATOM      5  C   UNL     1       2.068   2.353  19.493  0.00  0.00    +0.000 C 
ATOM      6  C   UNL     1       2.936   1.096  19.374  0.00  0.00    +0.000 C 
ATOM      7  C   UNL     1       4.157   1.877  18.863  0.00  0.00    +0.000 C 
ATOM      8  C   UNL     1       3.668   2.727  17.695  0.00  0.00    +0.000 C 
ATOM      9  C   UNL     1       2.165   2.771  17.991  0.00  0.00    +0.000 C 
ATOM     10  C   UNL     1       1.814   4.155  17.559  0.00  0.00    +0.000 C 
ATOM     11  O   UNL     1       0.744   4.448  17.063  0.00  0.00    +0.000 OA
ATOM     12  N   UNL     1       2.908   4.983  17.874  0.00  0.00    +0.000 N 
ENDROOT
BRANCH  12  13
ATOM     13  C   UNL     1       2.631   6.124  18.708  0.00  0.00    +0.000 A 
ATOM     14  C   UNL     1       2.669   7.426  18.147  0.00  0.00    +0.000 A 
ATOM     15  C   UNL     1       2.089   8.523  18.781  0.00  0.00    +0.000 A 
ATOM     16  C   UNL     1       1.512   8.353  20.025  0.00  0.00    +0.000 A 
ATOM     17 BR   UNL     1       0.591   9.790  20.826  0.00  0.00    +0.000 Br
ATOM     18  C   UNL     1       1.572   7.110  20.660  0.00  0.00    +0.000 A 
ATOM     19  C   UNL     1       2.144   6.009  20.009  0.00  0.00    +0.000 A 
ENDBRANCH  12  13
BRANCH   1  21
ATOM     20  C   UNL     1       6.661   4.733  17.903  0.00  0.00    +0.000 C 
ATOM     21  C   UNL     1       5.353   4.678  17.084  0.00  0.00    +0.000 C 
ATOM     22  C   UNL     1       5.617   3.950  15.771  0.00  0.00    +0.000 C 
ENDBRANCH   1  21
BRANCH   4  23
ATOM     23  O   UNL     1       2.877   2.593  21.807  0.00  0.00    +0.000 OA
ATOM     24  H   UNL     1       3.475   1.820  21.806  0.00  0.00    +0.000 HD
ENDBRANCH   4  23
TORSDOF 3
ENDMDL
MODEL 4
REMARK VINA RESULT:      -7.0      2.753      5.454
REMARK  Name = 
REMARK  5 active torsions:
REMARK  status: ('A' for Active; 'I' for Inactive)
REMARK    1  A    between atoms: C_1  and  C_2
REMARK    2  A    between atoms: C_2  and  C_3
REMARK    3  A    between atoms: C_2  and  C_4
REMARK    4  A    between atoms: C_7  and  O_8
REMARK    5  A    between atoms: N_16  and  C_17
REMARK                            x       y       z     vdW  Elec       q    Type
REMARK                         _______ _______ _______ _____ _____    ______ ____
ROOT
ATOM      1  C   UNL     1       4.536   3.665  17.599  0.00  0.00    +0.000 C 
ATOM      2  O   UNL     1       3.826   4.191  16.460  0.00  0.00    +0.000 OA
ATOM      3  C   UNL     1       4.754   4.659  15.499  0.00  0.00    +0.000 C 
ATOM      4  C   UNL     1       5.116   6.091  15.916  0.00  0.00    +0.000 C 
ATOM      5  C   UNL     1       6.527   5.894  16.532  0.00  0.00    +0.000 C 
ATOM      6  C   UNL     1       7.134   4.977  15.466  0.00  0.00    +0.000 C 
ATOM      7  C   UNL     1       6.066   3.890  15.662  0.00  0.00    +0.000 C 
ATOM      8  C   UNL     1       6.019   3.596  17.157  0.00  0.00    +0.000 C 
ATOM      9  C   UNL     1       6.641   4.880  17.715  0.00  0.00    +0.000 C 
ATOM     10  C   UNL     1       5.855   5.076  18.968  0.00  0.00    +0.000 C 
ATOM     11  O   UNL     1       6.322   5.557  19.980  0.00  0.00    +0.000 OA
ATOM     12  N   UNL     1       4.539   4.646  18.709  0.00  0.00    +0.000 N 
ENDROOT
BRANCH  12  13
ATOM     13  C   UNL     1       3.491   5.603  18.952  0.00  0.00    +0.000 A 
ATOM     14  C   UNL     1       2.638   5.436  20.072  0.00  0.00    +0.000 A 
ATOM     15  C   UNL     1       1.847   6.474  20.562  0.00  0.00    +0.000 A 
ATOM     16  C   UNL     1       1.845   7.687  19.901  0.00  0.00    +0.000 A 
ATOM     17 BR   UNL     1       0.901   9.144  20.637  0.00  0.00    +0.000 Br
ATOM     18  C   UNL     1       2.576   7.843  18.722  0.00  0.00    +0.000 A 
ATOM     19  C   UNL     1       3.380   6.800  18.244  0.00  0.00    +0.000 A 
ENDBRANCH  12  13
BRANCH   1  21
ATOM     20  C   UNL     1       4.141   1.755  19.275  0.00  0.00    +0.000 C 
ATOM     21  C   UNL     1       3.816   2.308  17.870  0.00  0.00    +0.000 C 
ATOM     22  C   UNL     1       2.308   2.268  17.655  0.00  0.00    +0.000 C 
ENDBRANCH   1  21
BRANCH   4  23
ATOM     23  O   UNL     1       5.163   6.920  14.756  0.00  0.00    +0.000 OA
ATOM     24  H   UNL     1       4.324   7.419  14.732  0.00  0.00    +0.000 HD
ENDBRANCH   4  23
TORSDOF 3
ENDMDL
MODEL 5
REMARK VINA RESULT:      -7.0      1.187      1.532
REMARK  Name = 
REMARK  5 active torsions:
REMARK  status: ('A' for Active; 'I' for Inactive)
REMARK    1  A    between atoms: C_1  and  C_2
REMARK    2  A    between atoms: C_2  and  C_3
REMARK    3  A    between atoms: C_2  and  C_4
REMARK    4  A    between atoms: C_7  and  O_8
REMARK    5  A    between atoms: N_16  and  C_17
REMARK                            x       y       z     vdW  Elec       q    Type
REMARK                         _______ _______ _______ _____ _____    ______ ____
ROOT
ATOM      1  C   UNL     1       3.491   5.494  18.351  0.00  0.00    +0.000 C 
ATOM      2  O   UNL     1       2.779   4.545  17.533  0.00  0.00    +0.000 OA
ATOM      3  C   UNL     1       2.355   3.456  18.332  0.00  0.00    +0.000 C 
ATOM      4  C   UNL     1       3.542   2.487  18.400  0.00  0.00    +0.000 C 
ATOM      5  C   UNL     1       4.085   2.750  19.829  0.00  0.00    +0.000 C 
ATOM      6  C   UNL     1       2.758   2.765  20.595  0.00  0.00    +0.000 C 
ATOM      7  C   UNL     1       2.193   3.935  19.775  0.00  0.00    +0.000 C 
ATOM      8  C   UNL     1       3.246   5.036  19.810  0.00  0.00    +0.000 C 
ATOM      9  C   UNL     1       4.494   4.220  20.165  0.00  0.00    +0.000 C 
ATOM     10  C   UNL     1       5.547   4.920  19.373  0.00  0.00    +0.000 C 
ATOM     11  O   UNL     1       6.697   5.034  19.747  0.00  0.00    +0.000 OA
ATOM     12  N   UNL     1       4.953   5.345  18.169  0.00  0.00    +0.000 N 
ENDROOT
BRANCH  12  13
ATOM     13  C   UNL     1       5.581   4.903  16.952  0.00  0.00    +0.000 A 
ATOM     14  C   UNL     1       4.777   4.499  15.856  0.00  0.00    +0.000 A 
ATOM     15  C   UNL     1       5.285   4.394  14.563  0.00  0.00    +0.000 A 
ATOM     16  C   UNL     1       6.630   4.630  14.348  0.00  0.00    +0.000 A 
ATOM     17 BR   UNL     1       7.300   4.641  12.586  0.00  0.00    +0.000 Br
ATOM     18  C   UNL     1       7.473   4.905  15.426  0.00  0.00    +0.000 A 
ATOM     19  C   UNL     1       6.952   5.024  16.721  0.00  0.00    +0.000 A 
ENDBRANCH  12  13
BRANCH   1  21
ATOM     20  C   UNL     1       2.210   7.588  19.120  0.00  0.00    +0.000 C 
ATOM     21  C   UNL     1       2.871   6.862  17.928  0.00  0.00    +0.000 C 
ATOM     22  C   UNL     1       3.782   7.838  17.192  0.00  0.00    +0.000 C 
ENDBRANCH   1  21
BRANCH   4  23
ATOM     23  O   UNL     1       3.065   1.149  18.259  0.00  0.00    +0.000 OA
ATOM     24  H   UNL     1       2.385   1.164  17.557  0.00  0.00    +0.000 HD
ENDBRANCH   4  23
TORSDOF 3
ENDMDL
MODEL 6
REMARK VINA RESULT:      -6.9      5.023      8.098
REMARK  Name = 
REMARK  5 active torsions:
REMARK  status: ('A' for Active; 'I' for Inactive)
REMARK    1  A    between atoms: C_1  and  C_2
REMARK    2  A    between atoms: C_2  and  C_3
REMARK    3  A    between atoms: C_2  and  C_4
REMARK    4  A    between atoms: C_7  and  O_8
REMARK    5  A    between atoms: N_16  and  C_17
REMARK                            x       y       z     vdW  Elec       q    Type
REMARK                         _______ _______ _______ _____ _____    ______ ____
ROOT
ATOM      1  C   UNL     1      -0.080  11.263  21.034  0.00  0.00    +0.000 C 
ATOM      2  O   UNL     1       1.244  11.825  21.118  0.00  0.00    +0.000 OA
ATOM      3  C   UNL     1       1.262  13.094  20.490  0.00  0.00    +0.000 C 
ATOM      4  C   UNL     1       1.484  12.829  18.996  0.00  0.00    +0.000 C 
ATOM      5  C   UNL     1       0.062  13.055  18.419  0.00  0.00    +0.000 C 
ATOM      6  C   UNL     1      -0.303  14.342  19.165  0.00  0.00    +0.000 C 
ATOM      7  C   UNL     1      -0.144  13.693  20.549  0.00  0.00    +0.000 C 
ATOM      8  C   UNL     1      -0.979  12.419  20.526  0.00  0.00    +0.000 C 
ATOM      9  C   UNL     1      -1.086  12.179  19.016  0.00  0.00    +0.000 C 
ATOM     10  C   UNL     1      -1.028  10.690  18.942  0.00  0.00    +0.000 C 
ATOM     11  O   UNL     1      -1.631  10.040  18.112  0.00  0.00    +0.000 OA
ATOM     12  N   UNL     1      -0.150  10.254  19.953  0.00  0.00    +0.000 N 
ENDROOT
BRANCH  12  13
ATOM     13  C   UNL     1       0.956   9.433  19.532  0.00  0.00    +0.000 A 
ATOM     14  C   UNL     1       1.381   8.358  20.353  0.00  0.00    +0.000 A 
ATOM     15  C   UNL     1       2.191   7.332  19.870  0.00  0.00    +0.000 A 
ATOM     16  C   UNL     1       2.648   7.393  18.567  0.00  0.00    +0.000 A 
ATOM     17 BR   UNL     1       3.616   5.942  17.854  0.00  0.00    +0.000 Br
ATOM     18  C   UNL     1       2.351   8.503  17.773  0.00  0.00    +0.000 A 
ATOM     19  C   UNL     1       1.524   9.523  18.261  0.00  0.00    +0.000 A 
ENDBRANCH  12  13
BRANCH   1  21
ATOM     20  C   UNL     1      -1.512  11.502  23.157  0.00  0.00    +0.000 C 
ATOM     21  C   UNL     1      -0.341  10.752  22.484  0.00  0.00    +0.000 C 
ATOM     22  C   UNL     1      -0.541   9.251  22.664  0.00  0.00    +0.000 C 
ENDBRANCH   1  21
BRANCH   4  23
ATOM     23  O   UNL     1       2.414  13.782  18.483  0.00  0.00    +0.000 OA
ATOM     24  H   UNL     1       3.274  13.593  18.907  0.00  0.00    +0.000 HD
ENDBRANCH   4  23
TORSDOF 3
ENDMDL
MODEL 7
REMARK VINA RESULT:      -6.6      2.839      5.034
REMARK  Name = 
REMARK  5 active torsions:
REMARK  status: ('A' for Active; 'I' for Inactive)
REMARK    1  A    between atoms: C_1  and  C_2
REMARK    2  A    between atoms: C_2  and  C_3
REMARK    3  A    between atoms: C_2  and  C_4
REMARK    4  A    between atoms: C_7  and  O_8
REMARK    5  A    between atoms: N_16  and  C_17
REMARK                            x       y       z     vdW  Elec       q    Type
REMARK                         _______ _______ _______ _____ _____    ______ ____
ROOT
ATOM      1  C   UNL     1       4.165   4.772  18.105  0.00  0.00    +0.000 C 
ATOM      2  O   UNL     1       4.554   4.768  19.491  0.00  0.00    +0.000 OA
ATOM      3  C   UNL     1       4.467   3.451  20.004  0.00  0.00    +0.000 C 
ATOM      4  C   UNL     1       3.007   3.252  20.428  0.00  0.00    +0.000 C 
ATOM      5  C   UNL     1       2.460   2.366  19.278  0.00  0.00    +0.000 C 
ATOM      6  C   UNL     1       3.617   1.367  19.168  0.00  0.00    +0.000 C 
ATOM      7  C   UNL     1       4.651   2.459  18.854  0.00  0.00    +0.000 C 
ATOM      8  C   UNL     1       4.078   3.278  17.703  0.00  0.00    +0.000 C 
ATOM      9  C   UNL     1       2.589   2.937  17.830  0.00  0.00    +0.000 C 
ATOM     10  C   UNL     1       1.951   4.234  17.461  0.00  0.00    +0.000 C 
ATOM     11  O   UNL     1       0.893   4.312  16.870  0.00  0.00    +0.000 OA
ATOM     12  N   UNL     1       2.776   5.263  17.955  0.00  0.00    +0.000 N 
ENDROOT
BRANCH  12  13
ATOM     13  C   UNL     1       2.152   6.221  18.831  0.00  0.00    +0.000 A 
ATOM     14  C   UNL     1       1.621   5.790  20.073  0.00  0.00    +0.000 A 
ATOM     15  C   UNL     1       1.323   6.683  21.101  0.00  0.00    +0.000 A 
ATOM     16  C   UNL     1       1.492   8.038  20.885  0.00  0.00    +0.000 A 
ATOM     17 BR   UNL     1       1.240   9.244  22.312  0.00  0.00    +0.000 Br
ATOM     18  C   UNL     1       1.893   8.501  19.630  0.00  0.00    +0.000 A 
ATOM     19  C   UNL     1       2.204   7.597  18.606  0.00  0.00    +0.000 A 
ENDBRANCH  12  13
BRANCH   1  21
ATOM     20  C   UNL     1       6.475   4.749  16.974  0.00  0.00    +0.000 C 
ATOM     21  C   UNL     1       5.282   5.621  17.424  0.00  0.00    +0.000 C 
ATOM     22  C   UNL     1       4.861   6.524  16.270  0.00  0.00    +0.000 C 
ENDBRANCH   1  21
BRANCH   4  23
ATOM     23  O   UNL     1       2.970   2.566  21.679  0.00  0.00    +0.000 OA
ATOM     24  H   UNL     1       2.075   2.700  22.048  0.00  0.00    +0.000 HD
ENDBRANCH   4  23
TORSDOF 3
ENDMDL
MODEL 8
REMARK VINA RESULT:      -6.6      9.664     11.537
REMARK  Name = 
REMARK  5 active torsions:
REMARK  status: ('A' for Active; 'I' for Inactive)
REMARK    1  A    between atoms: C_1  and  C_2
REMARK    2  A    between atoms: C_2  and  C_3
REMARK    3  A    between atoms: C_2  and  C_4
REMARK    4  A    between atoms: C_7  and  O_8
REMARK    5  A    between atoms: N_16  and  C_17
REMARK                            x       y       z     vdW  Elec       q    Type
REMARK                         _______ _______ _______ _____ _____    ______ ____
ROOT
ATOM      1  C   UNL     1       9.972  13.931  20.503  0.00  0.00    +0.000 C 
ATOM      2  O   UNL     1       9.243  12.706  20.713  0.00  0.00    +0.000 OA
ATOM      3  C   UNL     1       9.904  11.643  20.051  0.00  0.00    +0.000 C 
ATOM      4  C   UNL     1       9.410  11.671  18.599  0.00  0.00    +0.000 C 
ATOM      5  C   UNL     1      10.625  12.296  17.863  0.00  0.00    +0.000 C 
ATOM      6  C   UNL     1      11.750  11.493  18.524  0.00  0.00    +0.000 C 
ATOM      7  C   UNL     1      11.391  11.979  19.937  0.00  0.00    +0.000 C 
ATOM      8  C   UNL     1      11.316  13.500  19.864  0.00  0.00    +0.000 C 
ATOM      9  C   UNL     1      11.101  13.699  18.360  0.00  0.00    +0.000 C 
ATOM     10  C   UNL     1      10.177  14.870  18.340  0.00  0.00    +0.000 C 
ATOM     11  O   UNL     1      10.193  15.717  17.470  0.00  0.00    +0.000 OA
ATOM     12  N   UNL     1       9.323  14.750  19.453  0.00  0.00    +0.000 N 
ENDROOT
BRANCH  12  13
ATOM     13  C   UNL     1       7.909  14.753  19.182  0.00  0.00    +0.000 A 
ATOM     14  C   UNL     1       7.039  15.501  20.015  0.00  0.00    +0.000 A 
ATOM     15  C   UNL     1       5.742  15.830  19.626  0.00  0.00    +0.000 A 
ATOM     16  C   UNL     1       5.263  15.362  18.417  0.00  0.00    +0.000 A 
ATOM     17 BR   UNL     1       3.570  15.924  17.808  0.00  0.00    +0.000 Br
ATOM     18  C   UNL     1       6.052  14.518  17.632  0.00  0.00    +0.000 A 
ATOM     19  C   UNL     1       7.360  14.204  18.024  0.00  0.00    +0.000 A 
ENDBRANCH  12  13
BRANCH   1  21
ATOM     20  C   UNL     1      10.233  16.085  21.884  0.00  0.00    +0.000 C 
ATOM     21  C   UNL     1      10.038  14.554  21.932  0.00  0.00    +0.000 C 
ATOM     22  C   UNL     1       8.894  14.226  22.885  0.00  0.00    +0.000 C 
ENDBRANCH   1  21
BRANCH   4  23
ATOM     23  O   UNL     1       9.164  10.336  18.160  0.00  0.00    +0.000 OA
ATOM     24  H   UNL     1      10.036   9.902  18.073  0.00  0.00    +0.000 HD
ENDBRANCH   4  23
TORSDOF 3
ENDMDL
MODEL 9
REMARK VINA RESULT:      -6.2      0.950      1.127
REMARK  Name = 
REMARK  5 active torsions:
REMARK  status: ('A' for Active; 'I' for Inactive)
REMARK    1  A    between atoms: C_1  and  C_2
REMARK    2  A    between atoms: C_2  and  C_3
REMARK    3  A    between atoms: C_2  and  C_4
REMARK    4  A    between atoms: C_7  and  O_8
REMARK    5  A    between atoms: N_16  and  C_17
REMARK                            x       y       z     vdW  Elec       q    Type
REMARK                         _______ _______ _______ _____ _____    ______ ____
ROOT
ATOM      1  C   UNL     1       3.102   5.317  19.068  0.00  0.00    +0.000 C 
ATOM      2  O   UNL     1       2.378   4.991  17.865  0.00  0.00    +0.000 OA
ATOM      3  C   UNL     1       1.463   3.944  18.132  0.00  0.00    +0.000 C 
ATOM      4  C   UNL     1       2.255   2.637  17.994  0.00  0.00    +0.000 C 
ATOM      5  C   UNL     1       2.465   2.235  19.477  0.00  0.00    +0.000 C 
ATOM      6  C   UNL     1       1.051   2.499  20.005  0.00  0.00    +0.000 C 
ATOM      7  C   UNL     1       1.084   3.985  19.613  0.00  0.00    +0.000 C 
ATOM      8  C   UNL     1       2.367   4.558  20.202  0.00  0.00    +0.000 C 
ATOM      9  C   UNL     1       3.186   3.276  20.392  0.00  0.00    +0.000 C 
ATOM     10  C   UNL     1       4.565   3.749  20.071  0.00  0.00    +0.000 C 
ATOM     11  O   UNL     1       5.561   3.316  20.614  0.00  0.00    +0.000 OA
ATOM     12  N   UNL     1       4.451   4.708  19.045  0.00  0.00    +0.000 N 
ENDROOT
BRANCH  12  13
ATOM     13  C   UNL     1       5.213   4.461  17.849  0.00  0.00    +0.000 A 
ATOM     14  C   UNL     1       4.537   4.160  16.639  0.00  0.00    +0.000 A 
ATOM     15  C   UNL     1       5.165   4.250  15.398  0.00  0.00    +0.000 A 
ATOM     16  C   UNL     1       6.505   4.582  15.345  0.00  0.00    +0.000 A 
ATOM     17 BR   UNL     1       7.328   4.856  13.671  0.00  0.00    +0.000 Br
ATOM     18  C   UNL     1       7.229   4.759  16.525  0.00  0.00    +0.000 A 
ATOM     19  C   UNL     1       6.588   4.681  17.769  0.00  0.00    +0.000 A 
ENDBRANCH  12  13
BRANCH   1  21
ATOM     20  C   UNL     1       2.925   7.483  17.692  0.00  0.00    +0.000 C 
ATOM     21  C   UNL     1       3.040   6.875  19.107  0.00  0.00    +0.000 C 
ATOM     22  C   UNL     1       1.984   7.504  20.008  0.00  0.00    +0.000 C 
ENDBRANCH   1  21
BRANCH   4  23
ATOM     23  O   UNL     1       1.459   1.678  17.299  0.00  0.00    +0.000 OA
ATOM     24  H   UNL     1       0.864   2.180  16.709  0.00  0.00    +0.000 HD
ENDBRANCH   4  23
TORSDOF 3
ENDMDL
