MODEL 1
REMARK VINA RESULT:      -7.2      0.000      0.000
REMARK  Name = 
REMARK  9 active torsions:
REMARK  status: ('A' for Active; 'I' for Inactive)
REMARK    1  A    between atoms: C_2  and  O_3
REMARK    2  A    between atoms: C_2  and  C_4
REMARK    3  A    between atoms: C_4  and  C_5
REMARK    4  A    between atoms: C_5  and  N_6
REMARK    5  A    between atoms: C_10  and  C_11
REMARK    6  A    between atoms: C_15  and  O_16
REMARK    7  A    between atoms: O_16  and  C_17
REMARK    8  A    between atoms: C_17  and  C_18
REMARK    9  A    between atoms: N_20  and  C_21
REMARK                            x       y       z     vdW  Elec       q    Type
REMARK                         _______ _______ _______ _____ _____    ______ ____
ROOT
ATOM      1  C   UNL     1       1.533   9.724  18.058  0.00  0.00    +0.000 A 
ATOM      2  C   UNL     1       1.911  10.964  18.583  0.00  0.00    +0.000 A 
ATOM      3  C   UNL     1       0.935  11.891  18.950  0.00  0.00    +0.000 A 
ATOM      4  C   UNL     1      -0.416  11.581  18.787  0.00  0.00    +0.000 A 
ATOM      5  C   UNL     1      -0.802  10.338  18.284  0.00  0.00    +0.000 A 
ATOM      6  C   UNL     1       0.175   9.407  17.924  0.00  0.00    +0.000 A 
ENDROOT
BRANCH   1  11
ATOM      7  N   UNL     1       2.768   5.840  19.696  0.00  0.00    +0.000 N 
ATOM      8  C   UNL     1       2.317   7.128  19.456  0.00  0.00    +0.000 C 
ATOM      9  O   UNL     1       1.568   7.750  20.192  0.00  0.00    +0.000 OA
ATOM     10  C   UNL     1       2.889   7.656  18.187  0.00  0.00    +0.000 C 
ATOM     11  C   UNL     1       2.546   8.790  17.559  0.00  0.00    +0.000 C 
ATOM     12  S   UNL     1       4.072   6.559  17.589  0.00  0.00    +0.000 S 
ATOM     13  C   UNL     1       3.794   5.399  18.888  0.00  0.00    +0.000 C 
ATOM     14  S   UNL     1       4.696   4.004  19.026  0.00  0.00    +0.000 S 
BRANCH   7  15
ATOM     15  C   UNL     1       2.231   5.124  20.866  0.00  0.00    +0.000 C 
BRANCH  15  16
ATOM     16  C   UNL     1       0.962   4.333  20.531  0.00  0.00    +0.000 C 
BRANCH  16  18
ATOM     17  O   UNL     1       1.096   2.363  19.143  0.00  0.00    +0.000 OA
ATOM     18  C   UNL     1       1.293   2.899  20.223  0.00  0.00    +0.000 C 
BRANCH  18  19
ATOM     19  O   UNL     1       1.807   2.230  21.277  0.00  0.00    +0.000 OA
ATOM     20  H   UNL     1       2.684   1.827  21.119  0.00  0.00    +0.000 HD
ENDBRANCH  18  19
ENDBRANCH  16  18
ENDBRANCH  15  16
ENDBRANCH   7  15
ENDBRANCH   1  11
BRANCH   5  21
ATOM     21  O   UNL     1      -2.151  10.171  18.119  0.00  0.00    +0.000 OA
BRANCH  21  22
ATOM     22  C   UNL     1      -2.846  11.297  17.594  0.00  0.00    +0.000 C 
BRANCH  22  23
ATOM     23  C   UNL     1      -4.044  11.674  18.462  0.00  0.00    +0.000 C 
ATOM     24  O   UNL     1      -5.147  11.184  18.230  0.00  0.00    +0.000 OA
ATOM     25  N   UNL     1      -3.755  12.619  19.434  0.00  0.00    +0.000 N 
ATOM     26  H   UNL     1      -2.820  13.014  19.391  0.00  0.00    +0.000 HD
BRANCH  25  27
ATOM     27  C   UNL     1      -4.644  13.136  20.396  0.00  0.00    +0.000 A 
ATOM     28  C   UNL     1      -5.637  14.070  20.090  0.00  0.00    +0.000 A 
ATOM     29  C   UNL     1      -6.486  14.564  21.084  0.00  0.00    +0.000 A 
ATOM     30  C   UNL     1      -6.342  14.125  22.395  0.00  0.00    +0.000 A 
ATOM     31 CL   UNL     1      -7.375  14.749  23.621  0.00  0.00    +0.000 Cl
ATOM     32  C   UNL     1      -5.367  13.184  22.717  0.00  0.00    +0.000 A 
ATOM     33  C   UNL     1      -4.526  12.682  21.716  0.00  0.00    +0.000 A 
ENDBRANCH  25  27
ENDBRANCH  22  23
ENDBRANCH  21  22
ENDBRANCH   5  21
TORSDOF 9
ENDMDL
MODEL 2
REMARK VINA RESULT:      -7.1      4.358      6.354
REMARK  Name = 
REMARK  9 active torsions:
REMARK  status: ('A' for Active; 'I' for Inactive)
REMARK    1  A    between atoms: C_2  and  O_3
REMARK    2  A    between atoms: C_2  and  C_4
REMARK    3  A    between atoms: C_4  and  C_5
REMARK    4  A    between atoms: C_5  and  N_6
REMARK    5  A    between atoms: C_10  and  C_11
REMARK    6  A    between atoms: C_15  and  O_16
REMARK    7  A    between atoms: O_16  and  C_17
REMARK    8  A    between atoms: C_17  and  C_18
REMARK    9  A    between atoms: N_20  and  C_21
REMARK                            x       y       z     vdW  Elec       q    Type
REMARK                         _______ _______ _______ _____ _____    ______ ____
ROOT
ATOM      1  C   UNL     1       1.054  10.009  18.525  0.00  0.00    +0.000 A 
ATOM      2  C   UNL     1      -0.301   9.874  18.201  0.00  0.00    +0.000 A 
ATOM      3  C   UNL     1      -1.262  10.590  18.914  0.00  0.00    +0.000 A 
ATOM      4  C   UNL     1      -0.872  11.436  19.953  0.00  0.00    +0.000 A 
ATOM      5  C   UNL     1       0.478  11.594  20.268  0.00  0.00    +0.000 A 
ATOM      6  C   UNL     1       1.442  10.884  19.549  0.00  0.00    +0.000 A 
ENDROOT
BRANCH   1  11
ATOM      7  N   UNL     1       2.600   6.073  19.709  0.00  0.00    +0.000 N 
ATOM      8  C   UNL     1       2.071   7.350  19.621  0.00  0.00    +0.000 C 
ATOM      9  O   UNL     1       1.361   7.868  20.467  0.00  0.00    +0.000 OA
ATOM     10  C   UNL     1       2.508   8.013  18.360  0.00  0.00    +0.000 C 
ATOM     11  C   UNL     1       2.062   9.176  17.865  0.00  0.00    +0.000 C 
ATOM     12  S   UNL     1       3.685   7.034  17.575  0.00  0.00    +0.000 S 
ATOM     13  C   UNL     1       3.572   5.756  18.784  0.00  0.00    +0.000 C 
ATOM     14  S   UNL     1       4.545   4.404  18.724  0.00  0.00    +0.000 S 
BRANCH   7  15
ATOM     15  C   UNL     1       2.198   5.233  20.850  0.00  0.00    +0.000 C 
BRANCH  15  16
ATOM     16  C   UNL     1       1.085   4.246  20.482  0.00  0.00    +0.000 C 
BRANCH  16  18
ATOM     17  O   UNL     1       1.737   1.996  19.900  0.00  0.00    +0.000 OA
ATOM     18  C   UNL     1       1.513   2.832  20.762  0.00  0.00    +0.000 C 
BRANCH  18  19
ATOM     19  O   UNL     1       1.597   2.549  22.080  0.00  0.00    +0.000 OA
ATOM     20  H   UNL     1       2.287   1.897  22.315  0.00  0.00    +0.000 HD
ENDBRANCH  18  19
ENDBRANCH  16  18
ENDBRANCH  15  16
ENDBRANCH   7  15
ENDBRANCH   1  11
BRANCH   5  21
ATOM     21  O   UNL     1       0.734  12.407  21.340  0.00  0.00    +0.000 OA
BRANCH  21  22
ATOM     22  C   UNL     1       0.533  13.798  21.114  0.00  0.00    +0.000 C 
BRANCH  22  23
ATOM     23  C   UNL     1       1.565  14.365  20.142  0.00  0.00    +0.000 C 
ATOM     24  O   UNL     1       1.193  14.931  19.115  0.00  0.00    +0.000 OA
ATOM     25  N   UNL     1       2.877  14.119  20.512  0.00  0.00    +0.000 N 
ATOM     26  H   UNL     1       2.994  13.517  21.323  0.00  0.00    +0.000 HD
BRANCH  25  27
ATOM     27  C   UNL     1       4.037  14.543  19.835  0.00  0.00    +0.000 A 
ATOM     28  C   UNL     1       4.195  14.427  18.451  0.00  0.00    +0.000 A 
ATOM     29  C   UNL     1       5.372  14.848  17.827  0.00  0.00    +0.000 A 
ATOM     30  C   UNL     1       6.401  15.389  18.589  0.00  0.00    +0.000 A 
ATOM     31 CL   UNL     1       7.857  15.889  17.821  0.00  0.00    +0.000 Cl
ATOM     32  C   UNL     1       6.256  15.526  19.968  0.00  0.00    +0.000 A 
ATOM     33  C   UNL     1       5.071  15.113  20.588  0.00  0.00    +0.000 A 
ENDBRANCH  25  27
ENDBRANCH  22  23
ENDBRANCH  21  22
ENDBRANCH   5  21
TORSDOF 9
ENDMDL
MODEL 3
REMARK VINA RESULT:      -7.0      2.551      3.100
REMARK  Name = 
REMARK  9 active torsions:
REMARK  status: ('A' for Active; 'I' for Inactive)
REMARK    1  A    between atoms: C_2  and  O_3
REMARK    2  A    between atoms: C_2  and  C_4
REMARK    3  A    between atoms: C_4  and  C_5
REMARK    4  A    between atoms: C_5  and  N_6
REMARK    5  A    between atoms: C_10  and  C_11
REMARK    6  A    between atoms: C_15  and  O_16
REMARK    7  A    between atoms: O_16  and  C_17
REMARK    8  A    between atoms: C_17  and  C_18
REMARK    9  A    between atoms: N_20  and  C_21
REMARK                            x       y       z     vdW  Elec       q    Type
REMARK                         _______ _______ _______ _____ _____    ______ ____
ROOT
ATOM      1  C   UNL     1       1.209   9.635  18.428  0.00  0.00    +0.000 A 
ATOM      2  C   UNL     1      -0.091   9.575  17.914  0.00  0.00    +0.000 A 
ATOM      3  C   UNL     1      -1.127  10.244  18.565  0.00  0.00    +0.000 A 
ATOM      4  C   UNL     1      -0.868  10.967  19.730  0.00  0.00    +0.000 A 
ATOM      5  C   UNL     1       0.430  11.050  20.238  0.00  0.00    +0.000 A 
ATOM      6  C   UNL     1       1.470  10.387  19.582  0.00  0.00    +0.000 A 
ENDROOT
BRANCH   1  11
ATOM      7  N   UNL     1       2.821   5.745  19.676  0.00  0.00    +0.000 N 
ATOM      8  C   UNL     1       2.254   7.003  19.565  0.00  0.00    +0.000 C 
ATOM      9  O   UNL     1       1.477   7.489  20.371  0.00  0.00    +0.000 OA
ATOM     10  C   UNL     1       2.740   7.692  18.337  0.00  0.00    +0.000 C 
ATOM     11  C   UNL     1       2.283   8.843  17.823  0.00  0.00    +0.000 C 
ATOM     12  S   UNL     1       3.996   6.761  17.616  0.00  0.00    +0.000 S 
ATOM     13  C   UNL     1       3.857   5.470  18.808  0.00  0.00    +0.000 C 
ATOM     14  S   UNL     1       4.879   4.153  18.797  0.00  0.00    +0.000 S 
BRANCH   7  15
ATOM     15  C   UNL     1       2.383   4.881  20.786  0.00  0.00    +0.000 C 
BRANCH  15  16
ATOM     16  C   UNL     1       1.016   4.241  20.520  0.00  0.00    +0.000 C 
BRANCH  16  18
ATOM     17  O   UNL     1       2.191   2.211  19.954  0.00  0.00    +0.000 OA
ATOM     18  C   UNL     1       1.176   2.887  19.888  0.00  0.00    +0.000 C 
BRANCH  18  19
ATOM     19  O   UNL     1       0.087   2.485  19.197  0.00  0.00    +0.000 OA
ATOM     20  H   UNL     1      -0.337   1.672  19.536  0.00  0.00    +0.000 HD
ENDBRANCH  18  19
ENDBRANCH  16  18
ENDBRANCH  15  16
ENDBRANCH   7  15
ENDBRANCH   1  11
BRANCH   5  21
ATOM     21  O   UNL     1       0.551  11.740  21.414  0.00  0.00    +0.000 OA
BRANCH  21  22
ATOM     22  C   UNL     1      -0.580  11.683  22.275  0.00  0.00    +0.000 C 
BRANCH  22  23
ATOM     23  C   UNL     1      -1.114  13.077  22.596  0.00  0.00    +0.000 C 
ATOM     24  O   UNL     1      -0.584  14.066  22.094  0.00  0.00    +0.000 OA
ATOM     25  N   UNL     1      -2.158  13.080  23.508  0.00  0.00    +0.000 N 
ATOM     26  H   UNL     1      -2.375  12.178  23.922  0.00  0.00    +0.000 HD
BRANCH  25  27
ATOM     27  C   UNL     1      -2.868  14.204  23.970  0.00  0.00    +0.000 A 
ATOM     28  C   UNL     1      -4.148  14.536  23.515  0.00  0.00    +0.000 A 
ATOM     29  C   UNL     1      -4.807  15.671  23.994  0.00  0.00    +0.000 A 
ATOM     30  C   UNL     1      -4.184  16.485  24.933  0.00  0.00    +0.000 A 
ATOM     31 CL   UNL     1      -4.988  17.893  25.507  0.00  0.00    +0.000 Cl
ATOM     32  C   UNL     1      -2.915  16.163  25.410  0.00  0.00    +0.000 A 
ATOM     33  C   UNL     1      -2.263  15.018  24.936  0.00  0.00    +0.000 A 
ENDBRANCH  25  27
ENDBRANCH  22  23
ENDBRANCH  21  22
ENDBRANCH   5  21
TORSDOF 9
ENDMDL
MODEL 4
REMARK VINA RESULT:      -7.0      2.646      3.092
REMARK  Name = 
REMARK  9 active torsions:
REMARK  status: ('A' for Active; 'I' for Inactive)
REMARK    1  A    between atoms: C_2  and  O_3
REMARK    2  A    between atoms: C_2  and  C_4
REMARK    3  A    between atoms: C_4  and  C_5
REMARK    4  A    between atoms: C_5  and  N_6
REMARK    5  A    between atoms: C_10  and  C_11
REMARK    6  A    between atoms: C_15  and  O_16
REMARK    7  A    between atoms: O_16  and  C_17
REMARK    8  A    between atoms: C_17  and  C_18
REMARK    9  A    between atoms: N_20  and  C_21
REMARK                            x       y       z     vdW  Elec       q    Type
REMARK                         _______ _______ _______ _____ _____    ______ ____
ROOT
ATOM      1  C   UNL     1       0.845   9.859  18.425  0.00  0.00    +0.000 A 
ATOM      2  C   UNL     1      -0.438   9.733  17.881  0.00  0.00    +0.000 A 
ATOM      3  C   UNL     1      -1.523  10.343  18.510  0.00  0.00    +0.000 A 
ATOM      4  C   UNL     1      -1.329  11.073  19.684  0.00  0.00    +0.000 A 
ATOM      5  C   UNL     1      -0.049  11.222  20.221  0.00  0.00    +0.000 A 
ATOM      6  C   UNL     1       1.039  10.618  19.587  0.00  0.00    +0.000 A 
ENDROOT
BRANCH   1  11
ATOM      7  N   UNL     1       2.678   6.090  19.737  0.00  0.00    +0.000 N 
ATOM      8  C   UNL     1       2.036   7.310  19.605  0.00  0.00    +0.000 C 
ATOM      9  O   UNL     1       1.220   7.755  20.396  0.00  0.00    +0.000 OA
ATOM     10  C   UNL     1       2.494   8.014  18.375  0.00  0.00    +0.000 C 
ATOM     11  C   UNL     1       1.974   9.128  17.842  0.00  0.00    +0.000 C 
ATOM     12  S   UNL     1       3.813   7.154  17.679  0.00  0.00    +0.000 S 
ATOM     13  C   UNL     1       3.739   5.870  18.885  0.00  0.00    +0.000 C 
ATOM     14  S   UNL     1       4.840   4.619  18.902  0.00  0.00    +0.000 S 
BRANCH   7  15
ATOM     15  C   UNL     1       2.279   5.213  20.852  0.00  0.00    +0.000 C 
BRANCH  15  16
ATOM     16  C   UNL     1       1.223   4.184  20.434  0.00  0.00    +0.000 C 
BRANCH  16  18
ATOM     17  O   UNL     1       1.548   1.968  19.536  0.00  0.00    +0.000 OA
ATOM     18  C   UNL     1       1.814   2.803  20.386  0.00  0.00    +0.000 C 
BRANCH  18  19
ATOM     19  O   UNL     1       2.661   2.547  21.407  0.00  0.00    +0.000 OA
ATOM     20  H   UNL     1       2.267   2.635  22.298  0.00  0.00    +0.000 HD
ENDBRANCH  18  19
ENDBRANCH  16  18
ENDBRANCH  15  16
ENDBRANCH   7  15
ENDBRANCH   1  11
BRANCH   5  21
ATOM     21  O   UNL     1       0.008  11.911  21.402  0.00  0.00    +0.000 OA
BRANCH  21  22
ATOM     22  C   UNL     1      -0.590  11.263  22.519  0.00  0.00    +0.000 C 
BRANCH  22  23
ATOM     23  C   UNL     1      -1.720  12.098  23.117  0.00  0.00    +0.000 C 
ATOM     24  O   UNL     1      -2.793  11.566  23.396  0.00  0.00    +0.000 OA
ATOM     25  N   UNL     1      -1.418  13.445  23.235  0.00  0.00    +0.000 N 
ATOM     26  H   UNL     1      -0.532  13.729  22.826  0.00  0.00    +0.000 HD
BRANCH  25  27
ATOM     27  C   UNL     1      -2.245  14.449  23.775  0.00  0.00    +0.000 A 
ATOM     28  C   UNL     1      -3.590  14.598  23.423  0.00  0.00    +0.000 A 
ATOM     29  C   UNL     1      -4.366  15.620  23.977  0.00  0.00    +0.000 A 
ATOM     30  C   UNL     1      -3.796  16.503  24.886  0.00  0.00    +0.000 A 
ATOM     31 CL   UNL     1      -4.746  17.773  25.551  0.00  0.00    +0.000 Cl
ATOM     32  C   UNL     1      -2.461  16.362  25.259  0.00  0.00    +0.000 A 
ATOM     33  C   UNL     1      -1.690  15.329  24.712  0.00  0.00    +0.000 A 
ENDBRANCH  25  27
ENDBRANCH  22  23
ENDBRANCH  21  22
ENDBRANCH   5  21
TORSDOF 9
ENDMDL
MODEL 5
REMARK VINA RESULT:      -6.9      1.830      2.338
REMARK  Name = 
REMARK  9 active torsions:
REMARK  status: ('A' for Active; 'I' for Inactive)
REMARK    1  A    between atoms: C_2  and  O_3
REMARK    2  A    between atoms: C_2  and  C_4
REMARK    3  A    between atoms: C_4  and  C_5
REMARK    4  A    between atoms: C_5  and  N_6
REMARK    5  A    between atoms: C_10  and  C_11
REMARK    6  A    between atoms: C_15  and  O_16
REMARK    7  A    between atoms: O_16  and  C_17
REMARK    8  A    between atoms: C_17  and  C_18
REMARK    9  A    between atoms: N_20  and  C_21
REMARK                            x       y       z     vdW  Elec       q    Type
REMARK                         _______ _______ _______ _____ _____    ______ ____
ROOT
ATOM      1  C   UNL     1       0.942   9.839  18.299  0.00  0.00    +0.000 A 
ATOM      2  C   UNL     1      -0.369   9.607  17.869  0.00  0.00    +0.000 A 
ATOM      3  C   UNL     1      -1.429  10.284  18.472  0.00  0.00    +0.000 A 
ATOM      4  C   UNL     1      -1.181  11.188  19.506  0.00  0.00    +0.000 A 
ATOM      5  C   UNL     1       0.125  11.442  19.927  0.00  0.00    +0.000 A 
ATOM      6  C   UNL     1       1.188  10.770  19.318  0.00  0.00    +0.000 A 
ENDROOT
BRANCH   1  11
ATOM      7  N   UNL     1       2.625   6.057  19.767  0.00  0.00    +0.000 N 
ATOM      8  C   UNL     1       2.028   7.293  19.584  0.00  0.00    +0.000 C 
ATOM      9  O   UNL     1       1.218   7.794  20.347  0.00  0.00    +0.000 OA
ATOM     10  C   UNL     1       2.526   7.937  18.337  0.00  0.00    +0.000 C 
ATOM     11  C   UNL     1       2.052   9.049  17.759  0.00  0.00    +0.000 C 
ATOM     12  S   UNL     1       3.823   7.008  17.690  0.00  0.00    +0.000 S 
ATOM     13  C   UNL     1       3.689   5.770  18.938  0.00  0.00    +0.000 C 
ATOM     14  S   UNL     1       4.745   4.484  19.014  0.00  0.00    +0.000 S 
BRANCH   7  15
ATOM     15  C   UNL     1       2.182   5.234  20.906  0.00  0.00    +0.000 C 
BRANCH  15  16
ATOM     16  C   UNL     1       1.102   4.223  20.508  0.00  0.00    +0.000 C 
BRANCH  16  18
ATOM     17  O   UNL     1       1.716   1.986  19.840  0.00  0.00    +0.000 OA
ATOM     18  C   UNL     1       1.583   2.816  20.727  0.00  0.00    +0.000 C 
BRANCH  18  19
ATOM     19  O   UNL     1       1.830   2.530  22.024  0.00  0.00    +0.000 OA
ATOM     20  H   UNL     1       2.516   3.087  22.443  0.00  0.00    +0.000 HD
ENDBRANCH  18  19
ENDBRANCH  16  18
ENDBRANCH  15  16
ENDBRANCH   7  15
ENDBRANCH   1  11
BRANCH   5  21
ATOM     21  O   UNL     1       0.238  12.304  20.983  0.00  0.00    +0.000 OA
BRANCH  21  22
ATOM     22  C   UNL     1       0.072  13.682  20.668  0.00  0.00    +0.000 C 
BRANCH  22  23
ATOM     23  C   UNL     1      -1.339  14.168  20.996  0.00  0.00    +0.000 C 
ATOM     24  O   UNL     1      -1.800  15.146  20.412  0.00  0.00    +0.000 OA
ATOM     25  N   UNL     1      -1.957  13.450  22.007  0.00  0.00    +0.000 N 
ATOM     26  H   UNL     1      -1.372  12.760  22.470  0.00  0.00    +0.000 HD
BRANCH  25  27
ATOM     27  C   UNL     1      -3.261  13.645  22.502  0.00  0.00    +0.000 A 
ATOM     28  C   UNL     1      -4.339  12.831  22.146  0.00  0.00    +0.000 A 
ATOM     29  C   UNL     1      -5.619  13.075  22.653  0.00  0.00    +0.000 A 
ATOM     30  C   UNL     1      -5.826  14.140  23.521  0.00  0.00    +0.000 A 
ATOM     31 CL   UNL     1      -7.405  14.451  24.128  0.00  0.00    +0.000 Cl
ATOM     32  C   UNL     1      -4.760  14.954  23.899  0.00  0.00    +0.000 A 
ATOM     33  C   UNL     1      -3.477  14.700  23.398  0.00  0.00    +0.000 A 
ENDBRANCH  25  27
ENDBRANCH  22  23
ENDBRANCH  21  22
ENDBRANCH   5  21
TORSDOF 9
ENDMDL
MODEL 6
REMARK VINA RESULT:      -6.9      4.618      6.747
REMARK  Name = 
REMARK  9 active torsions:
REMARK  status: ('A' for Active; 'I' for Inactive)
REMARK    1  A    between atoms: C_2  and  O_3
REMARK    2  A    between atoms: C_2  and  C_4
REMARK    3  A    between atoms: C_4  and  C_5
REMARK    4  A    between atoms: C_5  and  N_6
REMARK    5  A    between atoms: C_10  and  C_11
REMARK    6  A    between atoms: C_15  and  O_16
REMARK    7  A    between atoms: O_16  and  C_17
REMARK    8  A    between atoms: C_17  and  C_18
REMARK    9  A    between atoms: N_20  and  C_21
REMARK                            x       y       z     vdW  Elec       q    Type
REMARK                         _______ _______ _______ _____ _____    ______ ____
ROOT
ATOM      1  C   UNL     1       1.429   9.835  18.025  0.00  0.00    +0.000 A 
ATOM      2  C   UNL     1       0.094   9.422  18.100  0.00  0.00    +0.000 A 
ATOM      3  C   UNL     1      -0.865  10.268  18.657  0.00  0.00    +0.000 A 
ATOM      4  C   UNL     1      -0.491  11.522  19.143  0.00  0.00    +0.000 A 
ATOM      5  C   UNL     1       0.834  11.950  19.053  0.00  0.00    +0.000 A 
ATOM      6  C   UNL     1       1.794  11.107  18.488  0.00  0.00    +0.000 A 
ENDROOT
BRANCH   1  11
ATOM      7  N   UNL     1       2.715   6.000  19.737  0.00  0.00    +0.000 N 
ATOM      8  C   UNL     1       2.243   7.275  19.472  0.00  0.00    +0.000 C 
ATOM      9  O   UNL     1       1.474   7.894  20.189  0.00  0.00    +0.000 OA
ATOM     10  C   UNL     1       2.821   7.795  18.202  0.00  0.00    +0.000 C 
ATOM     11  C   UNL     1       2.465   8.913  17.553  0.00  0.00    +0.000 C 
ATOM     12  S   UNL     1       4.032   6.712  17.636  0.00  0.00    +0.000 S 
ATOM     13  C   UNL     1       3.760   5.566  18.948  0.00  0.00    +0.000 C 
ATOM     14  S   UNL     1       4.685   4.191  19.118  0.00  0.00    +0.000 S 
BRANCH   7  15
ATOM     15  C   UNL     1       2.177   5.291  20.910  0.00  0.00    +0.000 C 
BRANCH  15  16
ATOM     16  C   UNL     1       1.069   4.301  20.534  0.00  0.00    +0.000 C 
BRANCH  16  18
ATOM     17  O   UNL     1       1.670   2.033  19.965  0.00  0.00    +0.000 OA
ATOM     18  C   UNL     1       1.497   2.889  20.820  0.00  0.00    +0.000 C 
BRANCH  18  19
ATOM     19  O   UNL     1       1.645   2.631  22.138  0.00  0.00    +0.000 OA
ATOM     20  H   UNL     1       2.354   3.141  22.578  0.00  0.00    +0.000 HD
ENDBRANCH  18  19
ENDBRANCH  16  18
ENDBRANCH  15  16
ENDBRANCH   7  15
ENDBRANCH   1  11
BRANCH   5  21
ATOM     21  O   UNL     1       1.089  13.173  19.612  0.00  0.00    +0.000 OA
BRANCH  21  22
ATOM     22  C   UNL     1       1.711  13.142  20.892  0.00  0.00    +0.000 C 
BRANCH  22  23
ATOM     23  C   UNL     1       3.078  13.822  20.871  0.00  0.00    +0.000 C 
ATOM     24  O   UNL     1       3.866  13.641  21.797  0.00  0.00    +0.000 OA
ATOM     25  N   UNL     1       3.272  14.656  19.781  0.00  0.00    +0.000 N 
ATOM     26  H   UNL     1       2.458  14.789  19.187  0.00  0.00    +0.000 HD
BRANCH  25  27
ATOM     27  C   UNL     1       4.435  15.388  19.478  0.00  0.00    +0.000 A 
ATOM     28  C   UNL     1       4.681  16.668  19.982  0.00  0.00    +0.000 A 
ATOM     29  C   UNL     1       5.845  17.362  19.639  0.00  0.00    +0.000 A 
ATOM     30  C   UNL     1       6.771  16.775  18.785  0.00  0.00    +0.000 A 
ATOM     31 CL   UNL     1       8.194  17.637  18.348  0.00  0.00    +0.000 Cl
ATOM     32  C   UNL     1       6.550  15.493  18.284  0.00  0.00    +0.000 A 
ATOM     33  C   UNL     1       5.388  14.798  18.639  0.00  0.00    +0.000 A 
ENDBRANCH  25  27
ENDBRANCH  22  23
ENDBRANCH  21  22
ENDBRANCH   5  21
TORSDOF 9
ENDMDL
MODEL 7
REMARK VINA RESULT:      -6.8      5.201     10.369
REMARK  Name = 
REMARK  9 active torsions:
REMARK  status: ('A' for Active; 'I' for Inactive)
REMARK    1  A    between atoms: C_2  and  O_3
REMARK    2  A    between atoms: C_2  and  C_4
REMARK    3  A    between atoms: C_4  and  C_5
REMARK    4  A    between atoms: C_5  and  N_6
REMARK    5  A    between atoms: C_10  and  C_11
REMARK    6  A    between atoms: C_15  and  O_16
REMARK    7  A    between atoms: O_16  and  C_17
REMARK    8  A    between atoms: C_17  and  C_18
REMARK    9  A    between atoms: N_20  and  C_21
REMARK                            x       y       z     vdW  Elec       q    Type
REMARK                         _______ _______ _______ _____ _____    ______ ____
ROOT
ATOM      1  C   UNL     1      -1.874  11.627  18.371  0.00  0.00    +0.000 A 
ATOM      2  C   UNL     1      -1.074  12.761  18.193  0.00  0.00    +0.000 A 
ATOM      3  C   UNL     1       0.272  12.726  18.557  0.00  0.00    +0.000 A 
ATOM      4  C   UNL     1       0.818  11.563  19.102  0.00  0.00    +0.000 A 
ATOM      5  C   UNL     1       0.032  10.421  19.263  0.00  0.00    +0.000 A 
ATOM      6  C   UNL     1      -1.314  10.452  18.892  0.00  0.00    +0.000 A 
ENDROOT
BRANCH   1  11
ATOM      7  N   UNL     1      -5.087  13.283  20.865  0.00  0.00    +0.000 N 
ATOM      8  C   UNL     1      -3.943  12.713  20.333  0.00  0.00    +0.000 C 
ATOM      9  O   UNL     1      -2.865  12.657  20.902  0.00  0.00    +0.000 OA
ATOM     10  C   UNL     1      -4.215  12.156  18.978  0.00  0.00    +0.000 C 
ATOM     11  C   UNL     1      -3.314  11.685  18.105  0.00  0.00    +0.000 C 
ATOM     12  S   UNL     1      -5.904  12.232  18.655  0.00  0.00    +0.000 S 
ATOM     13  C   UNL     1      -6.260  13.033  20.184  0.00  0.00    +0.000 C 
ATOM     14  S   UNL     1      -7.822  13.390  20.643  0.00  0.00    +0.000 S 
BRANCH   7  15
ATOM     15  C   UNL     1      -4.982  13.967  22.165  0.00  0.00    +0.000 C 
BRANCH  15  16
ATOM     16  C   UNL     1      -5.427  13.074  23.329  0.00  0.00    +0.000 C 
BRANCH  16  18
ATOM     17  O   UNL     1      -4.391  12.281  25.359  0.00  0.00    +0.000 OA
ATOM     18  C   UNL     1      -4.279  12.800  24.259  0.00  0.00    +0.000 C 
BRANCH  18  19
ATOM     19  O   UNL     1      -3.088  13.218  23.778  0.00  0.00    +0.000 OA
ATOM     20  H   UNL     1      -2.751  14.044  24.178  0.00  0.00    +0.000 HD
ENDBRANCH  18  19
ENDBRANCH  16  18
ENDBRANCH  15  16
ENDBRANCH   7  15
ENDBRANCH   1  11
BRANCH   5  21
ATOM     21  O   UNL     1       0.662   9.361  19.858  0.00  0.00    +0.000 OA
BRANCH  21  22
ATOM     22  C   UNL     1       1.834   8.897  19.198  0.00  0.00    +0.000 C 
BRANCH  22  23
ATOM     23  C   UNL     1       2.093   7.420  19.483  0.00  0.00    +0.000 C 
ATOM     24  O   UNL     1       1.938   6.979  20.620  0.00  0.00    +0.000 OA
ATOM     25  N   UNL     1       2.553   6.710  18.385  0.00  0.00    +0.000 N 
ATOM     26  H   UNL     1       2.752   7.269  17.559  0.00  0.00    +0.000 HD
BRANCH  25  27
ATOM     27  C   UNL     1       2.848   5.334  18.335  0.00  0.00    +0.000 A 
ATOM     28  C   UNL     1       1.980   4.390  17.779  0.00  0.00    +0.000 A 
ATOM     29  C   UNL     1       2.312   3.032  17.766  0.00  0.00    +0.000 A 
ATOM     30  C   UNL     1       3.519   2.612  18.314  0.00  0.00    +0.000 A 
ATOM     31 CL   UNL     1       3.917   0.939  18.315  0.00  0.00    +0.000 Cl
ATOM     32  C   UNL     1       4.403   3.541  18.859  0.00  0.00    +0.000 A 
ATOM     33  C   UNL     1       4.072   4.901  18.859  0.00  0.00    +0.000 A 
ENDBRANCH  25  27
ENDBRANCH  22  23
ENDBRANCH  21  22
ENDBRANCH   5  21
TORSDOF 9
ENDMDL
MODEL 8
REMARK VINA RESULT:      -6.8      5.465     10.709
REMARK  Name = 
REMARK  9 active torsions:
REMARK  status: ('A' for Active; 'I' for Inactive)
REMARK    1  A    between atoms: C_2  and  O_3
REMARK    2  A    between atoms: C_2  and  C_4
REMARK    3  A    between atoms: C_4  and  C_5
REMARK    4  A    between atoms: C_5  and  N_6
REMARK    5  A    between atoms: C_10  and  C_11
REMARK    6  A    between atoms: C_15  and  O_16
REMARK    7  A    between atoms: O_16  and  C_17
REMARK    8  A    between atoms: C_17  and  C_18
REMARK    9  A    between atoms: N_20  and  C_21
REMARK                            x       y       z     vdW  Elec       q    Type
REMARK                         _______ _______ _______ _____ _____    ______ ____
ROOT
ATOM      1  C   UNL     1      -0.731  12.453  21.357  0.00  0.00    +0.000 A 
ATOM      2  C   UNL     1       0.034  13.511  20.855  0.00  0.00    +0.000 A 
ATOM      3  C   UNL     1       0.872  13.304  19.759  0.00  0.00    +0.000 A 
ATOM      4  C   UNL     1       0.950  12.042  19.169  0.00  0.00    +0.000 A 
ATOM      5  C   UNL     1       0.174  10.986  19.650  0.00  0.00    +0.000 A 
ATOM      6  C   UNL     1      -0.671  11.195  20.742  0.00  0.00    +0.000 A 
ENDROOT
BRANCH   1  11
ATOM      7  N   UNL     1      -5.093  12.682  21.819  0.00  0.00    +0.000 N 
ATOM      8  C   UNL     1      -3.770  12.722  21.411  0.00  0.00    +0.000 C 
ATOM      9  O   UNL     1      -3.402  12.749  20.248  0.00  0.00    +0.000 OA
ATOM     10  C   UNL     1      -2.858  12.751  22.588  0.00  0.00    +0.000 C 
ATOM     11  C   UNL     1      -1.524  12.624  22.578  0.00  0.00    +0.000 C 
ATOM     12  S   UNL     1      -3.783  12.942  24.027  0.00  0.00    +0.000 S 
ATOM     13  C   UNL     1      -5.318  12.906  23.161  0.00  0.00    +0.000 C 
ATOM     14  S   UNL     1      -6.773  13.122  23.946  0.00  0.00    +0.000 S 
BRANCH   7  15
ATOM     15  C   UNL     1      -6.134  12.557  20.785  0.00  0.00    +0.000 C 
BRANCH  15  16
ATOM     16  C   UNL     1      -6.593  13.920  20.255  0.00  0.00    +0.000 C 
BRANCH  16  18
ATOM     17  O   UNL     1      -7.274  14.609  18.044  0.00  0.00    +0.000 OA
ATOM     18  C   UNL     1      -6.523  13.958  18.754  0.00  0.00    +0.000 C 
BRANCH  18  19
ATOM     19  O   UNL     1      -5.555  13.166  18.243  0.00  0.00    +0.000 OA
ATOM     20  H   UNL     1      -4.648  13.387  18.533  0.00  0.00    +0.000 HD
ENDBRANCH  18  19
ENDBRANCH  16  18
ENDBRANCH  15  16
ENDBRANCH   7  15
ENDBRANCH   1  11
BRANCH   5  21
ATOM     21  O   UNL     1       0.377   9.785  19.027  0.00  0.00    +0.000 OA
BRANCH  21  22
ATOM     22  C   UNL     1       1.493   9.035  19.494  0.00  0.00    +0.000 C 
BRANCH  22  23
ATOM     23  C   UNL     1       2.263   8.393  18.342  0.00  0.00    +0.000 C 
ATOM     24  O   UNL     1       2.292   8.945  17.243  0.00  0.00    +0.000 OA
ATOM     25  N   UNL     1       2.827   7.168  18.659  0.00  0.00    +0.000 N 
ATOM     26  H   UNL     1       2.584   6.803  19.576  0.00  0.00    +0.000 HD
BRANCH  25  27
ATOM     27  C   UNL     1       3.614   6.360  17.816  0.00  0.00    +0.000 A 
ATOM     28  C   UNL     1       4.722   6.845  17.115  0.00  0.00    +0.000 A 
ATOM     29  C   UNL     1       5.463   6.006  16.279  0.00  0.00    +0.000 A 
ATOM     30  C   UNL     1       5.096   4.672  16.138  0.00  0.00    +0.000 A 
ATOM     31 CL   UNL     1       5.998   3.646  15.093  0.00  0.00    +0.000 Cl
ATOM     32  C   UNL     1       4.004   4.168  16.841  0.00  0.00    +0.000 A 
ATOM     33  C   UNL     1       3.271   5.009  17.687  0.00  0.00    +0.000 A 
ENDBRANCH  25  27
ENDBRANCH  22  23
ENDBRANCH  21  22
ENDBRANCH   5  21
TORSDOF 9
ENDMDL
MODEL 9
REMARK VINA RESULT:      -6.8      2.841      3.383
REMARK  Name = 
REMARK  9 active torsions:
REMARK  status: ('A' for Active; 'I' for Inactive)
REMARK    1  A    between atoms: C_2  and  O_3
REMARK    2  A    between atoms: C_2  and  C_4
REMARK    3  A    between atoms: C_4  and  C_5
REMARK    4  A    between atoms: C_5  and  N_6
REMARK    5  A    between atoms: C_10  and  C_11
REMARK    6  A    between atoms: C_15  and  O_16
REMARK    7  A    between atoms: O_16  and  C_17
REMARK    8  A    between atoms: C_17  and  C_18
REMARK    9  A    between atoms: N_20  and  C_21
REMARK                            x       y       z     vdW  Elec       q    Type
REMARK                         _______ _______ _______ _____ _____    ______ ____
ROOT
ATOM      1  C   UNL     1       1.074   9.896  18.459  0.00  0.00    +0.000 A 
ATOM      2  C   UNL     1      -0.258   9.799  18.043  0.00  0.00    +0.000 A 
ATOM      3  C   UNL     1      -1.253  10.498  18.726  0.00  0.00    +0.000 A 
ATOM      4  C   UNL     1      -0.920  11.288  19.827  0.00  0.00    +0.000 A 
ATOM      5  C   UNL     1       0.409  11.408  20.236  0.00  0.00    +0.000 A 
ATOM      6  C   UNL     1       1.407  10.715  19.547  0.00  0.00    +0.000 A 
ENDROOT
BRANCH   1  11
ATOM      7  N   UNL     1       2.694   6.015  19.724  0.00  0.00    +0.000 N 
ATOM      8  C   UNL     1       2.138   7.278  19.609  0.00  0.00    +0.000 C 
ATOM      9  O   UNL     1       1.402   7.791  20.437  0.00  0.00    +0.000 OA
ATOM     10  C   UNL     1       2.577   7.933  18.346  0.00  0.00    +0.000 C 
ATOM     11  C   UNL     1       2.111   9.077  17.826  0.00  0.00    +0.000 C 
ATOM     12  S   UNL     1       3.788   6.970  17.592  0.00  0.00    +0.000 S 
ATOM     13  C   UNL     1       3.687   5.708  18.818  0.00  0.00    +0.000 C 
ATOM     14  S   UNL     1       4.693   4.378  18.793  0.00  0.00    +0.000 S 
BRANCH   7  15
ATOM     15  C   UNL     1       2.295   5.182  20.872  0.00  0.00    +0.000 C 
BRANCH  15  16
ATOM     16  C   UNL     1       1.139   4.236  20.530  0.00  0.00    +0.000 C 
BRANCH  16  18
ATOM     17  O   UNL     1       1.566   2.416  22.057  0.00  0.00    +0.000 OA
ATOM     18  C   UNL     1       1.479   2.821  20.907  0.00  0.00    +0.000 C 
BRANCH  18  19
ATOM     19  O   UNL     1       1.718   2.025  19.843  0.00  0.00    +0.000 OA
ATOM     20  H   UNL     1       2.348   2.392  19.190  0.00  0.00    +0.000 HD
ENDBRANCH  18  19
ENDBRANCH  16  18
ENDBRANCH  15  16
ENDBRANCH   7  15
ENDBRANCH   1  11
BRANCH   5  21
ATOM     21  O   UNL     1       0.605  12.164  21.360  0.00  0.00    +0.000 OA
BRANCH  21  22
ATOM     22  C   UNL     1       0.813  13.554  21.132  0.00  0.00    +0.000 C 
BRANCH  22  23
ATOM     23  C   UNL     1      -0.414  14.377  21.516  0.00  0.00    +0.000 C 
ATOM     24  O   UNL     1      -1.181  14.778  20.641  0.00  0.00    +0.000 OA
ATOM     25  N   UNL     1      -0.507  14.645  22.872  0.00  0.00    +0.000 N 
ATOM     26  H   UNL     1       0.291  14.350  23.428  0.00  0.00    +0.000 HD
BRANCH  25  27
ATOM     27  C   UNL     1      -1.537  15.351  23.522  0.00  0.00    +0.000 A 
ATOM     28  C   UNL     1      -2.648  14.722  24.092  0.00  0.00    +0.000 A 
ATOM     29  C   UNL     1      -3.653  15.469  24.714  0.00  0.00    +0.000 A 
ATOM     30  C   UNL     1      -3.550  16.854  24.768  0.00  0.00    +0.000 A 
ATOM     31 CL   UNL     1      -4.796  17.773  25.516  0.00  0.00    +0.000 Cl
ATOM     32  C   UNL     1      -2.443  17.497  24.218  0.00  0.00    +0.000 A 
ATOM     33  C   UNL     1      -1.433  16.745  23.606  0.00  0.00    +0.000 A 
ENDBRANCH  25  27
ENDBRANCH  22  23
ENDBRANCH  21  22
ENDBRANCH   5  21
TORSDOF 9
ENDMDL
