MODEL 1
REMARK VINA RESULT:      -8.4      0.000      0.000
REMARK  Name = 
REMARK  8 active torsions:
REMARK  status: ('A' for Active; 'I' for Inactive)
REMARK    1  A    between atoms: C_1  and  C_2
REMARK    2  A    between atoms: C_2  and  C_3
REMARK    3  A    between atoms: C_6  and  C_7
REMARK    4  A    between atoms: N_9  and  C_10
REMARK    5  A    between atoms: C_10  and  C_11
REMARK    6  A    between atoms: C_18  and  O_19
REMARK    7  A    between atoms: N_25  and  C_26
REMARK    8  A    between atoms: C_26  and  C_27
REMARK                            x       y       z     vdW  Elec       q    Type
REMARK                         _______ _______ _______ _____ _____    ______ ____
ROOT
ATOM      1  C   UNL     1      -0.995  13.503  19.822  0.00  0.00    +0.000 C 
ATOM      2  C   UNL     1      -1.829  12.238  20.124  0.00  0.00    +0.000 C 
ATOM      3  C   UNL     1      -2.591  11.835  18.841  0.00  0.00    +0.000 C 
ATOM      4  C   UNL     1      -0.795  11.080  20.431  0.00  0.00    +0.000 A 
ATOM      5  N   UNL     1      -0.100  10.586  19.445  0.00  0.00    +0.000 NA
ATOM      6  C   UNL     1       0.850   9.624  19.733  0.00  0.00    +0.000 A 
ATOM      7  C   UNL     1       1.095   9.121  20.959  0.00  0.00    +0.000 A 
ATOM      8  C   UNL     1       0.270   9.665  22.067  0.00  0.00    +0.000 A 
ATOM      9  O   UNL     1       0.354   9.190  23.199  0.00  0.00    +0.000 OA
ATOM     10  N   UNL     1      -0.586  10.700  21.741  0.00  0.00    +0.000 N 
ATOM     11  C   UNL     1      -1.446  11.158  22.817  0.00  0.00    +0.000 C 
ATOM     12  C   UNL     1      -2.126  12.486  22.543  0.00  0.00    +0.000 C 
ATOM     13  N   UNL     1      -2.813  12.421  21.245  0.00  0.00    +0.000 NA
ENDROOT
BRANCH   6  14
ATOM     14  C   UNL     1       1.699   9.069  18.607  0.00  0.00    +0.000 C 
ATOM     15  O   UNL     1       1.804   9.657  17.530  0.00  0.00    +0.000 OA
ATOM     16  N   UNL     1       2.327   7.883  18.879  0.00  0.00    +0.000 N 
ATOM     17  H   UNL     1       2.200   7.481  19.801  0.00  0.00    +0.000 HD
BRANCH  16  18
ATOM     18  C   UNL     1       3.220   7.257  17.929  0.00  0.00    +0.000 C 
BRANCH  18  19
ATOM     19  C   UNL     1       3.018   5.764  17.840  0.00  0.00    +0.000 A 
ATOM     20  C   UNL     1       1.771   5.193  18.144  0.00  0.00    +0.000 A 
ATOM     21  C   UNL     1       1.565   3.819  18.001  0.00  0.00    +0.000 A 
ATOM     22  C   UNL     1       2.603   3.015  17.548  0.00  0.00    +0.000 A 
ATOM     23  F   UNL     1       2.403   1.698  17.400  0.00  0.00    +0.000 F 
ATOM     24  C   UNL     1       3.843   3.557  17.235  0.00  0.00    +0.000 A 
ATOM     25  C   UNL     1       4.051   4.931  17.379  0.00  0.00    +0.000 A 
ENDBRANCH  18  19
ENDBRANCH  16  18
ENDBRANCH   6  14
BRANCH   7  26
ATOM     26  O   UNL     1       2.026   8.144  21.274  0.00  0.00    +0.000 OA
ATOM     27  H   UNL     1       2.419   7.804  20.440  0.00  0.00    +0.000 HD
ENDBRANCH   7  26
BRANCH  13  28
ATOM     28  C   UNL     1      -3.717  13.591  21.081  0.00  0.00    +0.000 C 
BRANCH  28  29
ATOM     29  C   UNL     1      -5.180  13.263  21.037  0.00  0.00    +0.000 A 
ATOM     30  N   UNL     1      -6.152  13.906  20.422  0.00  0.00    +0.000 NA
ATOM     31  N   UNL     1      -7.311  13.211  20.697  0.00  0.00    +0.000 NA
ATOM     32  C   UNL     1      -6.959  12.202  21.459  0.00  0.00    +0.000 A 
ATOM     33  O   UNL     1      -5.623  12.158  21.720  0.00  0.00    +0.000 OA
ENDBRANCH  28  29
ENDBRANCH  13  28
TORSDOF 6
ENDMDL
MODEL 2
REMARK VINA RESULT:      -8.3      1.058      1.206
REMARK  Name = 
REMARK  8 active torsions:
REMARK  status: ('A' for Active; 'I' for Inactive)
REMARK    1  A    between atoms: C_1  and  C_2
REMARK    2  A    between atoms: C_2  and  C_3
REMARK    3  A    between atoms: C_6  and  C_7
REMARK    4  A    between atoms: N_9  and  C_10
REMARK    5  A    between atoms: C_10  and  C_11
REMARK    6  A    between atoms: C_18  and  O_19
REMARK    7  A    between atoms: N_25  and  C_26
REMARK    8  A    between atoms: C_26  and  C_27
REMARK                            x       y       z     vdW  Elec       q    Type
REMARK                         _______ _______ _______ _____ _____    ______ ____
ROOT
ATOM      1  C   UNL     1      -1.128  13.240  19.370  0.00  0.00    +0.000 C 
ATOM      2  C   UNL     1      -1.977  12.100  19.976  0.00  0.00    +0.000 C 
ATOM      3  C   UNL     1      -2.682  11.348  18.824  0.00  0.00    +0.000 C 
ATOM      4  C   UNL     1      -0.960  11.084  20.638  0.00  0.00    +0.000 A 
ATOM      5  N   UNL     1      -0.223  10.342  19.860  0.00  0.00    +0.000 NA
ATOM      6  C   UNL     1       0.712   9.508  20.445  0.00  0.00    +0.000 A 
ATOM      7  C   UNL     1       0.901   9.369  21.772  0.00  0.00    +0.000 A 
ATOM      8  C   UNL     1       0.029  10.192  22.648  0.00  0.00    +0.000 A 
ATOM      9  O   UNL     1       0.062  10.051  23.870  0.00  0.00    +0.000 OA
ATOM     10  N   UNL     1      -0.810  11.086  22.010  0.00  0.00    +0.000 N 
ATOM     11  C   UNL     1      -1.715  11.817  22.877  0.00  0.00    +0.000 C 
ATOM     12  C   UNL     1      -2.380  13.008  22.216  0.00  0.00    +0.000 C 
ATOM     13  N   UNL     1      -3.009  12.578  20.958  0.00  0.00    +0.000 NA
ENDROOT
BRANCH   6  14
ATOM     14  C   UNL     1       1.609   8.671  19.555  0.00  0.00    +0.000 C 
ATOM     15  O   UNL     1       1.961   9.064  18.443  0.00  0.00    +0.000 OA
ATOM     16  N   UNL     1       1.987   7.463  20.080  0.00  0.00    +0.000 N 
ATOM     17  H   UNL     1       1.666   7.230  21.012  0.00  0.00    +0.000 HD
BRANCH  16  18
ATOM     18  C   UNL     1       2.890   6.577  19.379  0.00  0.00    +0.000 C 
BRANCH  18  19
ATOM     19  C   UNL     1       2.303   5.204  19.162  0.00  0.00    +0.000 A 
ATOM     20  C   UNL     1       1.673   4.523  20.217  0.00  0.00    +0.000 A 
ATOM     21  C   UNL     1       1.073   3.279  20.002  0.00  0.00    +0.000 A 
ATOM     22  C   UNL     1       1.096   2.719  18.731  0.00  0.00    +0.000 A 
ATOM     23  F   UNL     1       0.512   1.532  18.521  0.00  0.00    +0.000 F 
ATOM     24  C   UNL     1       1.707   3.377  17.671  0.00  0.00    +0.000 A 
ATOM     25  C   UNL     1       2.308   4.620  17.885  0.00  0.00    +0.000 A 
ENDBRANCH  18  19
ENDBRANCH  16  18
ENDBRANCH   6  14
BRANCH   7  26
ATOM     26  O   UNL     1       1.815   8.528  22.386  0.00  0.00    +0.000 OA
ATOM     27  H   UNL     1       1.987   7.764  21.793  0.00  0.00    +0.000 HD
ENDBRANCH   7  26
BRANCH  13  28
ATOM     28  C   UNL     1      -3.902  13.646  20.436  0.00  0.00    +0.000 C 
BRANCH  28  29
ATOM     29  C   UNL     1      -5.366  13.426  20.679  0.00  0.00    +0.000 A 
ATOM     30  N   UNL     1      -6.312  14.320  20.887  0.00  0.00    +0.000 NA
ATOM     31  N   UNL     1      -7.482  13.611  21.067  0.00  0.00    +0.000 NA
ATOM     32  C   UNL     1      -7.161  12.344  20.959  0.00  0.00    +0.000 A 
ATOM     33  O   UNL     1      -5.837  12.138  20.708  0.00  0.00    +0.000 OA
ENDBRANCH  28  29
ENDBRANCH  13  28
TORSDOF 6
ENDMDL
MODEL 3
REMARK VINA RESULT:      -8.3      1.028      1.240
REMARK  Name = 
REMARK  8 active torsions:
REMARK  status: ('A' for Active; 'I' for Inactive)
REMARK    1  A    between atoms: C_1  and  C_2
REMARK    2  A    between atoms: C_2  and  C_3
REMARK    3  A    between atoms: C_6  and  C_7
REMARK    4  A    between atoms: N_9  and  C_10
REMARK    5  A    between atoms: C_10  and  C_11
REMARK    6  A    between atoms: C_18  and  O_19
REMARK    7  A    between atoms: N_25  and  C_26
REMARK    8  A    between atoms: C_26  and  C_27
REMARK                            x       y       z     vdW  Elec       q    Type
REMARK                         _______ _______ _______ _____ _____    ______ ____
ROOT
ATOM      1  C   UNL     1      -1.426  13.606  19.994  0.00  0.00    +0.000 C 
ATOM      2  C   UNL     1      -2.169  12.309  20.386  0.00  0.00    +0.000 C 
ATOM      3  C   UNL     1      -2.909  11.772  19.140  0.00  0.00    +0.000 C 
ATOM      4  C   UNL     1      -1.054  11.247  20.755  0.00  0.00    +0.000 A 
ATOM      5  N   UNL     1      -0.333  10.739  19.796  0.00  0.00    +0.000 NA
ATOM      6  C   UNL     1       0.684   9.866  20.134  0.00  0.00    +0.000 A 
ATOM      7  C   UNL     1       0.971   9.462  21.387  0.00  0.00    +0.000 A 
ATOM      8  C   UNL     1       0.118  10.019  22.467  0.00  0.00    +0.000 A 
ATOM      9  O   UNL     1       0.243   9.626  23.626  0.00  0.00    +0.000 OA
ATOM     10  N   UNL     1      -0.810  10.969  22.084  0.00  0.00    +0.000 N 
ATOM     11  C   UNL     1      -1.692  11.436  23.138  0.00  0.00    +0.000 C 
ATOM     12  C   UNL     1      -2.465  12.692  22.788  0.00  0.00    +0.000 C 
ATOM     13  N   UNL     1      -3.155  12.497  21.503  0.00  0.00    +0.000 NA
ENDROOT
BRANCH   6  14
ATOM     14  C   UNL     1       1.562   9.300  19.036  0.00  0.00    +0.000 C 
ATOM     15  O   UNL     1       1.991  10.007  18.125  0.00  0.00    +0.000 OA
ATOM     16  N   UNL     1       1.833   7.961  19.139  0.00  0.00    +0.000 N 
ATOM     17  H   UNL     1       1.455   7.461  19.935  0.00  0.00    +0.000 HD
BRANCH  16  18
ATOM     18  C   UNL     1       2.705   7.286  18.203  0.00  0.00    +0.000 C 
BRANCH  18  19
ATOM     19  C   UNL     1       2.767   5.796  18.439  0.00  0.00    +0.000 A 
ATOM     20  C   UNL     1       3.721   5.252  19.315  0.00  0.00    +0.000 A 
ATOM     21  C   UNL     1       3.738   3.880  19.583  0.00  0.00    +0.000 A 
ATOM     22  C   UNL     1       2.796   3.055  18.982  0.00  0.00    +0.000 A 
ATOM     23  F   UNL     1       2.804   1.741  19.247  0.00  0.00    +0.000 F 
ATOM     24  C   UNL     1       1.839   3.571  18.118  0.00  0.00    +0.000 A 
ATOM     25  C   UNL     1       1.822   4.942  17.848  0.00  0.00    +0.000 A 
ENDBRANCH  18  19
ENDBRANCH  16  18
ENDBRANCH   6  14
BRANCH   7  26
ATOM     26  O   UNL     1       1.970   8.575  21.754  0.00  0.00    +0.000 OA
ATOM     27  H   UNL     1       2.059   8.588  22.733  0.00  0.00    +0.000 HD
ENDBRANCH   7  26
BRANCH  13  28
ATOM     28  C   UNL     1      -4.139  13.588  21.275  0.00  0.00    +0.000 C 
BRANCH  28  29
ATOM     29  C   UNL     1      -5.569  13.144  21.176  0.00  0.00    +0.000 A 
ATOM     30  N   UNL     1      -6.229  12.305  21.949  0.00  0.00    +0.000 NA
ATOM     31  N   UNL     1      -7.505  12.225  21.433  0.00  0.00    +0.000 NA
ATOM     32  C   UNL     1      -7.526  13.015  20.386  0.00  0.00    +0.000 A 
ATOM     33  O   UNL     1      -6.338  13.641  20.154  0.00  0.00    +0.000 OA
ENDBRANCH  28  29
ENDBRANCH  13  28
TORSDOF 6
ENDMDL
MODEL 4
REMARK VINA RESULT:      -8.3      1.088      1.099
REMARK  Name = 
REMARK  8 active torsions:
REMARK  status: ('A' for Active; 'I' for Inactive)
REMARK    1  A    between atoms: C_1  and  C_2
REMARK    2  A    between atoms: C_2  and  C_3
REMARK    3  A    between atoms: C_6  and  C_7
REMARK    4  A    between atoms: N_9  and  C_10
REMARK    5  A    between atoms: C_10  and  C_11
REMARK    6  A    between atoms: C_18  and  O_19
REMARK    7  A    between atoms: N_25  and  C_26
REMARK    8  A    between atoms: C_26  and  C_27
REMARK                            x       y       z     vdW  Elec       q    Type
REMARK                         _______ _______ _______ _____ _____    ______ ____
ROOT
ATOM      1  C   UNL     1      -1.300  13.598  19.938  0.00  0.00    +0.000 C 
ATOM      2  C   UNL     1      -2.077  12.319  20.328  0.00  0.00    +0.000 C 
ATOM      3  C   UNL     1      -2.811  11.791  19.074  0.00  0.00    +0.000 C 
ATOM      4  C   UNL     1      -0.991  11.236  20.719  0.00  0.00    +0.000 A 
ATOM      5  N   UNL     1      -0.268  10.706  19.773  0.00  0.00    +0.000 NA
ATOM      6  C   UNL     1       0.725   9.813  20.131  0.00  0.00    +0.000 A 
ATOM      7  C   UNL     1       0.985   9.411  21.391  0.00  0.00    +0.000 A 
ATOM      8  C   UNL     1       0.130   9.993  22.455  0.00  0.00    +0.000 A 
ATOM      9  O   UNL     1       0.229   9.605  23.618  0.00  0.00    +0.000 OA
ATOM     10  N   UNL     1      -0.772  10.961  22.053  0.00  0.00    +0.000 N 
ATOM     11  C   UNL     1      -1.658  11.454  23.092  0.00  0.00    +0.000 C 
ATOM     12  C   UNL     1      -2.399  12.725  22.722  0.00  0.00    +0.000 C 
ATOM     13  N   UNL     1      -3.074  12.536  21.430  0.00  0.00    +0.000 NA
ENDROOT
BRANCH   6  14
ATOM     14  C   UNL     1       1.605   9.220  19.050  0.00  0.00    +0.000 C 
ATOM     15  O   UNL     1       2.031   9.904  18.119  0.00  0.00    +0.000 OA
ATOM     16  N   UNL     1       1.882   7.886  19.189  0.00  0.00    +0.000 N 
ATOM     17  H   UNL     1       1.506   7.406  19.999  0.00  0.00    +0.000 HD
BRANCH  16  18
ATOM     18  C   UNL     1       2.758   7.189  18.273  0.00  0.00    +0.000 C 
BRANCH  18  19
ATOM     19  C   UNL     1       2.776   5.699  18.509  0.00  0.00    +0.000 A 
ATOM     20  C   UNL     1       1.857   4.861  17.856  0.00  0.00    +0.000 A 
ATOM     21  C   UNL     1       1.914   3.476  18.025  0.00  0.00    +0.000 A 
ATOM     22  C   UNL     1       2.894   2.926  18.840  0.00  0.00    +0.000 A 
ATOM     23  F   UNL     1       2.957   1.596  18.995  0.00  0.00    +0.000 F 
ATOM     24  C   UNL     1       3.818   3.733  19.492  0.00  0.00    +0.000 A 
ATOM     25  C   UNL     1       3.762   5.119  19.325  0.00  0.00    +0.000 A 
ENDBRANCH  18  19
ENDBRANCH  16  18
ENDBRANCH   6  14
BRANCH   7  26
ATOM     26  O   UNL     1       1.959   8.504  21.777  0.00  0.00    +0.000 OA
ATOM     27  H   UNL     1       1.552   7.843  22.379  0.00  0.00    +0.000 HD
ENDBRANCH   7  26
BRANCH  13  28
ATOM     28  C   UNL     1      -4.031  13.647  21.181  0.00  0.00    +0.000 C 
BRANCH  28  29
ATOM     29  C   UNL     1      -5.252  13.643  22.052  0.00  0.00    +0.000 A 
ATOM     30  N   UNL     1      -5.813  14.649  22.693  0.00  0.00    +0.000 NA
ATOM     31  N   UNL     1      -6.900  14.124  23.360  0.00  0.00    +0.000 NA
ATOM     32  C   UNL     1      -6.917  12.843  23.081  0.00  0.00    +0.000 A 
ATOM     33  O   UNL     1      -5.907  12.454  22.252  0.00  0.00    +0.000 OA
ENDBRANCH  28  29
ENDBRANCH  13  28
TORSDOF 6
ENDMDL
MODEL 5
REMARK VINA RESULT:      -8.2      1.058      1.383
REMARK  Name = 
REMARK  8 active torsions:
REMARK  status: ('A' for Active; 'I' for Inactive)
REMARK    1  A    between atoms: C_1  and  C_2
REMARK    2  A    between atoms: C_2  and  C_3
REMARK    3  A    between atoms: C_6  and  C_7
REMARK    4  A    between atoms: N_9  and  C_10
REMARK    5  A    between atoms: C_10  and  C_11
REMARK    6  A    between atoms: C_18  and  O_19
REMARK    7  A    between atoms: N_25  and  C_26
REMARK    8  A    between atoms: C_26  and  C_27
REMARK                            x       y       z     vdW  Elec       q    Type
REMARK                         _______ _______ _______ _____ _____    ______ ____
ROOT
ATOM      1  C   UNL     1      -0.873  13.374  19.823  0.00  0.00    +0.000 C 
ATOM      2  C   UNL     1      -1.707  12.111  20.137  0.00  0.00    +0.000 C 
ATOM      3  C   UNL     1      -2.495  11.716  18.868  0.00  0.00    +0.000 C 
ATOM      4  C   UNL     1      -0.671  10.947  20.419  0.00  0.00    +0.000 A 
ATOM      5  N   UNL     1       0.002  10.454  19.418  0.00  0.00    +0.000 NA
ATOM      6  C   UNL     1       0.954   9.487  19.684  0.00  0.00    +0.000 A 
ATOM      7  C   UNL     1       1.220   8.979  20.903  0.00  0.00    +0.000 A 
ATOM      8  C   UNL     1       0.421   9.522  22.029  0.00  0.00    +0.000 A 
ATOM      9  O   UNL     1       0.525   9.043  23.157  0.00  0.00    +0.000 OA
ATOM     10  N   UNL     1      -0.437  10.562  21.724  0.00  0.00    +0.000 N 
ATOM     11  C   UNL     1      -1.274  11.020  22.818  0.00  0.00    +0.000 C 
ATOM     12  C   UNL     1      -1.954  12.351  22.563  0.00  0.00    +0.000 C 
ATOM     13  N   UNL     1      -2.667  12.294  21.278  0.00  0.00    +0.000 NA
ENDROOT
BRANCH   6  14
ATOM     14  C   UNL     1       1.778   8.933  18.539  0.00  0.00    +0.000 C 
ATOM     15  O   UNL     1       1.966   9.580  17.508  0.00  0.00    +0.000 OA
ATOM     16  N   UNL     1       2.286   7.677  18.740  0.00  0.00    +0.000 N 
ATOM     17  H   UNL     1       2.099   7.227  19.629  0.00  0.00    +0.000 HD
BRANCH  16  18
ATOM     18  C   UNL     1       3.143   7.036  17.767  0.00  0.00    +0.000 C 
BRANCH  18  19
ATOM     19  C   UNL     1       3.036   5.531  17.802  0.00  0.00    +0.000 A 
ATOM     20  C   UNL     1       4.190   4.732  17.748  0.00  0.00    +0.000 A 
ATOM     21  C   UNL     1       4.096   3.341  17.845  0.00  0.00    +0.000 A 
ATOM     22  C   UNL     1       2.849   2.749  18.004  0.00  0.00    +0.000 A 
ATOM     23  F   UNL     1       2.759   1.417  18.107  0.00  0.00    +0.000 F 
ATOM     24  C   UNL     1       1.694   3.519  18.066  0.00  0.00    +0.000 A 
ATOM     25  C   UNL     1       1.787   4.910  17.967  0.00  0.00    +0.000 A 
ENDBRANCH  18  19
ENDBRANCH  16  18
ENDBRANCH   6  14
BRANCH   7  26
ATOM     26  O   UNL     1       2.154   7.997  21.196  0.00  0.00    +0.000 OA
ATOM     27  H   UNL     1       2.777   8.347  21.870  0.00  0.00    +0.000 HD
ENDBRANCH   7  26
BRANCH  13  28
ATOM     28  C   UNL     1      -3.569  13.469  21.136  0.00  0.00    +0.000 C 
BRANCH  28  29
ATOM     29  C   UNL     1      -4.697  13.526  22.124  0.00  0.00    +0.000 A 
ATOM     30  N   UNL     1      -5.598  12.606  22.402  0.00  0.00    +0.000 NA
ATOM     31  N   UNL     1      -6.419  13.148  23.369  0.00  0.00    +0.000 NA
ATOM     32  C   UNL     1      -5.960  14.355  23.603  0.00  0.00    +0.000 A 
ATOM     33  O   UNL     1      -4.865  14.674  22.858  0.00  0.00    +0.000 OA
ENDBRANCH  28  29
ENDBRANCH  13  28
TORSDOF 6
ENDMDL
MODEL 6
REMARK VINA RESULT:      -8.0      1.688      1.875
REMARK  Name = 
REMARK  8 active torsions:
REMARK  status: ('A' for Active; 'I' for Inactive)
REMARK    1  A    between atoms: C_1  and  C_2
REMARK    2  A    between atoms: C_2  and  C_3
REMARK    3  A    between atoms: C_6  and  C_7
REMARK    4  A    between atoms: N_9  and  C_10
REMARK    5  A    between atoms: C_10  and  C_11
REMARK    6  A    between atoms: C_18  and  O_19
REMARK    7  A    between atoms: N_25  and  C_26
REMARK    8  A    between atoms: C_26  and  C_27
REMARK                            x       y       z     vdW  Elec       q    Type
REMARK                         _______ _______ _______ _____ _____    ______ ____
ROOT
ATOM      1  C   UNL     1      -1.233  12.437  18.094  0.00  0.00    +0.000 C 
ATOM      2  C   UNL     1      -2.029  11.449  18.977  0.00  0.00    +0.000 C 
ATOM      3  C   UNL     1      -2.612  10.342  18.069  0.00  0.00    +0.000 C 
ATOM      4  C   UNL     1      -0.978  10.755  19.936  0.00  0.00    +0.000 A 
ATOM      5  N   UNL     1      -0.147   9.889  19.429  0.00  0.00    +0.000 NA
ATOM      6  C   UNL     1       0.813   9.341  20.260  0.00  0.00    +0.000 A 
ATOM      7  C   UNL     1       0.937   9.603  21.576  0.00  0.00    +0.000 A 
ATOM      8  C   UNL     1      -0.039  10.563  22.149  0.00  0.00    +0.000 A 
ATOM      9  O   UNL     1      -0.064  10.780  23.359  0.00  0.00    +0.000 OA
ATOM     10  N   UNL     1      -0.905  11.162  21.252  0.00  0.00    +0.000 N 
ATOM     11  C   UNL     1      -1.908  12.029  21.843  0.00  0.00    +0.000 C 
ATOM     12  C   UNL     1      -2.621  12.920  20.844  0.00  0.00    +0.000 C 
ATOM     13  N   UNL     1      -3.146  12.096  19.745  0.00  0.00    +0.000 NA
ENDROOT
BRANCH   6  14
ATOM     14  C   UNL     1       1.817   8.365  19.679  0.00  0.00    +0.000 C 
ATOM     15  O   UNL     1       2.438   8.618  18.647  0.00  0.00    +0.000 OA
ATOM     16  N   UNL     1       1.972   7.200  20.383  0.00  0.00    +0.000 N 
ATOM     17  H   UNL     1       1.434   7.086  21.235  0.00  0.00    +0.000 HD
BRANCH  16  18
ATOM     18  C   UNL     1       2.937   6.196  19.991  0.00  0.00    +0.000 C 
BRANCH  18  19
ATOM     19  C   UNL     1       2.286   4.895  19.588  0.00  0.00    +0.000 A 
ATOM     20  C   UNL     1       1.572   4.133  20.527  0.00  0.00    +0.000 A 
ATOM     21  C   UNL     1       0.916   2.961  20.140  0.00  0.00    +0.000 A 
ATOM     22  C   UNL     1       0.968   2.555  18.813  0.00  0.00    +0.000 A 
ATOM     23  F   UNL     1       0.331   1.437  18.439  0.00  0.00    +0.000 F 
ATOM     24  C   UNL     1       1.663   3.295  17.865  0.00  0.00    +0.000 A 
ATOM     25  C   UNL     1       2.321   4.466  18.251  0.00  0.00    +0.000 A 
ENDBRANCH  18  19
ENDBRANCH  16  18
ENDBRANCH   6  14
BRANCH   7  26
ATOM     26  O   UNL     1       1.876   9.055  22.435  0.00  0.00    +0.000 OA
ATOM     27  H   UNL     1       1.424   8.409  23.023  0.00  0.00    +0.000 HD
ENDBRANCH   7  26
BRANCH  13  28
ATOM     28  C   UNL     1      -4.085  12.890  18.908  0.00  0.00    +0.000 C 
BRANCH  28  29
ATOM     29  C   UNL     1      -5.539  12.593  19.128  0.00  0.00    +0.000 A 
ATOM     30  N   UNL     1      -6.220  12.588  20.257  0.00  0.00    +0.000 NA
ATOM     31  N   UNL     1      -7.514  12.243  19.927  0.00  0.00    +0.000 NA
ATOM     32  C   UNL     1      -7.523  12.060  18.628  0.00  0.00    +0.000 A 
ATOM     33  O   UNL     1      -6.311  12.267  18.041  0.00  0.00    +0.000 OA
ENDBRANCH  28  29
ENDBRANCH  13  28
TORSDOF 6
ENDMDL
MODEL 7
REMARK VINA RESULT:      -7.9      1.638      1.995
REMARK  Name = 
REMARK  8 active torsions:
REMARK  status: ('A' for Active; 'I' for Inactive)
REMARK    1  A    between atoms: C_1  and  C_2
REMARK    2  A    between atoms: C_2  and  C_3
REMARK    3  A    between atoms: C_6  and  C_7
REMARK    4  A    between atoms: N_9  and  C_10
REMARK    5  A    between atoms: C_10  and  C_11
REMARK    6  A    between atoms: C_18  and  O_19
REMARK    7  A    between atoms: N_25  and  C_26
REMARK    8  A    between atoms: C_26  and  C_27
REMARK                            x       y       z     vdW  Elec       q    Type
REMARK                         _______ _______ _______ _____ _____    ______ ____
ROOT
ATOM      1  C   UNL     1      -1.121  13.630  19.765  0.00  0.00    +0.000 C 
ATOM      2  C   UNL     1      -1.978  12.432  20.232  0.00  0.00    +0.000 C 
ATOM      3  C   UNL     1      -2.725  11.857  19.007  0.00  0.00    +0.000 C 
ATOM      4  C   UNL     1      -0.965  11.318  20.721  0.00  0.00    +0.000 A 
ATOM      5  N   UNL     1      -0.262  10.679  19.829  0.00  0.00    +0.000 NA
ATOM      6  C   UNL     1       0.670   9.757  20.269  0.00  0.00    +0.000 A 
ATOM      7  C   UNL     1       0.888   9.434  21.559  0.00  0.00    +0.000 A 
ATOM      8  C   UNL     1       0.055  10.143  22.563  0.00  0.00    +0.000 A 
ATOM      9  O   UNL     1       0.115   9.835  23.752  0.00  0.00    +0.000 OA
ATOM     10  N   UNL     1      -0.781  11.130  22.075  0.00  0.00    +0.000 N 
ATOM     11  C   UNL     1      -1.651  11.749  23.059  0.00  0.00    +0.000 C 
ATOM     12  C   UNL     1      -2.308  13.031  22.585  0.00  0.00    +0.000 C 
ATOM     13  N   UNL     1      -2.976  12.788  21.297  0.00  0.00    +0.000 NA
ENDROOT
BRANCH   6  14
ATOM     14  C   UNL     1       1.528   9.035  19.249  0.00  0.00    +0.000 C 
ATOM     15  O   UNL     1       1.967   9.611  18.253  0.00  0.00    +0.000 OA
ATOM     16  N   UNL     1       1.770   7.715  19.521  0.00  0.00    +0.000 N 
ATOM     17  H   UNL     1       1.386   7.329  20.376  0.00  0.00    +0.000 HD
BRANCH  16  18
ATOM     18  C   UNL     1       2.622   6.907  18.676  0.00  0.00    +0.000 C 
BRANCH  18  19
ATOM     19  C   UNL     1       2.302   5.434  18.770  0.00  0.00    +0.000 A 
ATOM     20  C   UNL     1       2.658   4.559  17.731  0.00  0.00    +0.000 A 
ATOM     21  C   UNL     1       2.419   3.187  17.845  0.00  0.00    +0.000 A 
ATOM     22  C   UNL     1       1.832   2.689  19.001  0.00  0.00    +0.000 A 
ATOM     23  F   UNL     1       1.612   1.372  19.116  0.00  0.00    +0.000 F 
ATOM     24  C   UNL     1       1.477   3.534  20.044  0.00  0.00    +0.000 A 
ATOM     25  C   UNL     1       1.713   4.906  19.931  0.00  0.00    +0.000 A 
ENDBRANCH  18  19
ENDBRANCH  16  18
ENDBRANCH   6  14
BRANCH   7  26
ATOM     26  O   UNL     1       1.801   8.502  22.027  0.00  0.00    +0.000 OA
ATOM     27  H   UNL     1       2.337   8.918  22.738  0.00  0.00    +0.000 HD
ENDBRANCH   7  26
BRANCH  13  28
ATOM     28  C   UNL     1      -3.860  13.932  20.951  0.00  0.00    +0.000 C 
BRANCH  28  29
ATOM     29  C   UNL     1      -4.092  14.914  22.061  0.00  0.00    +0.000 A 
ATOM     30  N   UNL     1      -3.443  16.031  22.325  0.00  0.00    +0.000 NA
ATOM     31  N   UNL     1      -4.032  16.564  23.453  0.00  0.00    +0.000 NA
ATOM     32  C   UNL     1      -4.990  15.733  23.791  0.00  0.00    +0.000 A 
ATOM     33  O   UNL     1      -5.100  14.661  22.957  0.00  0.00    +0.000 OA
ENDBRANCH  28  29
ENDBRANCH  13  28
TORSDOF 6
ENDMDL
MODEL 8
REMARK VINA RESULT:      -7.9      3.050      4.313
REMARK  Name = 
REMARK  8 active torsions:
REMARK  status: ('A' for Active; 'I' for Inactive)
REMARK    1  A    between atoms: C_1  and  C_2
REMARK    2  A    between atoms: C_2  and  C_3
REMARK    3  A    between atoms: C_6  and  C_7
REMARK    4  A    between atoms: N_9  and  C_10
REMARK    5  A    between atoms: C_10  and  C_11
REMARK    6  A    between atoms: C_18  and  O_19
REMARK    7  A    between atoms: N_25  and  C_26
REMARK    8  A    between atoms: C_26  and  C_27
REMARK                            x       y       z     vdW  Elec       q    Type
REMARK                         _______ _______ _______ _____ _____    ______ ____
ROOT
ATOM      1  C   UNL     1      -1.006   8.705  21.966  0.00  0.00    +0.000 C 
ATOM      2  C   UNL     1       0.277   9.562  21.884  0.00  0.00    +0.000 C 
ATOM      3  C   UNL     1       1.152   9.254  23.121  0.00  0.00    +0.000 C 
ATOM      4  C   UNL     1       1.076   9.054  20.615  0.00  0.00    +0.000 A 
ATOM      5  N   UNL     1       1.659   7.890  20.668  0.00  0.00    +0.000 NA
ATOM      6  C   UNL     1       2.295   7.425  19.533  0.00  0.00    +0.000 A 
ATOM      7  C   UNL     1       2.395   8.100  18.371  0.00  0.00    +0.000 A 
ATOM      8  C   UNL     1       1.758   9.441  18.335  0.00  0.00    +0.000 A 
ATOM      9  O   UNL     1       1.890  10.168  17.351  0.00  0.00    +0.000 OA
ATOM     10  N   UNL     1       1.044   9.809  19.460  0.00  0.00    +0.000 N 
ATOM     11  C   UNL     1       0.505  11.156  19.440  0.00  0.00    +0.000 C 
ATOM     12  C   UNL     1      -0.535  11.422  20.512  0.00  0.00    +0.000 C 
ATOM     13  N   UNL     1       0.010  11.039  21.823  0.00  0.00    +0.000 NA
ENDROOT
BRANCH   6  14
ATOM     14  C   UNL     1       2.942   6.054  19.561  0.00  0.00    +0.000 C 
ATOM     15  O   UNL     1       2.274   5.030  19.705  0.00  0.00    +0.000 OA
ATOM     16  N   UNL     1       4.303   6.049  19.417  0.00  0.00    +0.000 N 
ATOM     17  H   UNL     1       4.769   6.939  19.282  0.00  0.00    +0.000 HD
BRANCH  16  18
ATOM     18  C   UNL     1       5.059   4.816  19.363  0.00  0.00    +0.000 C 
BRANCH  18  19
ATOM     19  C   UNL     1       5.558   4.503  17.973  0.00  0.00    +0.000 A 
ATOM     20  C   UNL     1       4.663   4.102  16.967  0.00  0.00    +0.000 A 
ATOM     21  C   UNL     1       5.114   3.874  15.665  0.00  0.00    +0.000 A 
ATOM     22  C   UNL     1       6.458   4.054  15.365  0.00  0.00    +0.000 A 
ATOM     23  F   UNL     1       6.890   3.845  14.114  0.00  0.00    +0.000 F 
ATOM     24  C   UNL     1       7.361   4.456  16.341  0.00  0.00    +0.000 A 
ATOM     25  C   UNL     1       6.912   4.683  17.645  0.00  0.00    +0.000 A 
ENDBRANCH  18  19
ENDBRANCH  16  18
ENDBRANCH   6  14
BRANCH   7  26
ATOM     26  O   UNL     1       3.041   7.668  17.224  0.00  0.00    +0.000 OA
ATOM     27  H   UNL     1       2.815   6.723  17.073  0.00  0.00    +0.000 HD
ENDBRANCH   7  26
BRANCH  13  28
ATOM     28  C   UNL     1      -0.864  11.548  22.914  0.00  0.00    +0.000 C 
BRANCH  28  29
ATOM     29  C   UNL     1      -1.084  13.032  22.911  0.00  0.00    +0.000 A 
ATOM     30  N   UNL     1      -0.193  13.999  22.996  0.00  0.00    +0.000 NA
ATOM     31  N   UNL     1      -0.901  15.183  22.960  0.00  0.00    +0.000 NA
ATOM     32  C   UNL     1      -2.166  14.848  22.861  0.00  0.00    +0.000 A 
ATOM     33  O   UNL     1      -2.371  13.502  22.819  0.00  0.00    +0.000 OA
ENDBRANCH  28  29
ENDBRANCH  13  28
TORSDOF 6
ENDMDL
MODEL 9
REMARK VINA RESULT:      -7.9      1.434      1.722
REMARK  Name = 
REMARK  8 active torsions:
REMARK  status: ('A' for Active; 'I' for Inactive)
REMARK    1  A    between atoms: C_1  and  C_2
REMARK    2  A    between atoms: C_2  and  C_3
REMARK    3  A    between atoms: C_6  and  C_7
REMARK    4  A    between atoms: N_9  and  C_10
REMARK    5  A    between atoms: C_10  and  C_11
REMARK    6  A    between atoms: C_18  and  O_19
REMARK    7  A    between atoms: N_25  and  C_26
REMARK    8  A    between atoms: C_26  and  C_27
REMARK                            x       y       z     vdW  Elec       q    Type
REMARK                         _______ _______ _______ _____ _____    ______ ____
ROOT
ATOM      1  C   UNL     1      -1.279  12.727  18.434  0.00  0.00    +0.000 C 
ATOM      2  C   UNL     1      -2.069  11.654  19.217  0.00  0.00    +0.000 C 
ATOM      3  C   UNL     1      -2.683  10.660  18.204  0.00  0.00    +0.000 C 
ATOM      4  C   UNL     1      -1.008  10.849  20.072  0.00  0.00    +0.000 A 
ATOM      5  N   UNL     1      -0.196  10.036  19.455  0.00  0.00    +0.000 NA
ATOM      6  C   UNL     1       0.772   9.390  20.200  0.00  0.00    +0.000 A 
ATOM      7  C   UNL     1       0.925   9.503  21.534  0.00  0.00    +0.000 A 
ATOM      8  C   UNL     1      -0.029  10.403  22.230  0.00  0.00    +0.000 A 
ATOM      9  O   UNL     1      -0.028  10.485  23.457  0.00  0.00    +0.000 OA
ATOM     10  N   UNL     1      -0.905  11.106  21.423  0.00  0.00    +0.000 N 
ATOM     11  C   UNL     1      -1.887  11.911  22.127  0.00  0.00    +0.000 C 
ATOM     12  C   UNL     1      -2.608  12.914  21.248  0.00  0.00    +0.000 C 
ATOM     13  N   UNL     1      -3.164  12.222  20.075  0.00  0.00    +0.000 NA
ENDROOT
BRANCH   6  14
ATOM     14  C   UNL     1       1.754   8.476  19.494  0.00  0.00    +0.000 C 
ATOM     15  O   UNL     1       2.322   8.818  18.457  0.00  0.00    +0.000 OA
ATOM     16  N   UNL     1       1.952   7.260  20.093  0.00  0.00    +0.000 N 
ATOM     17  H   UNL     1       1.457   7.071  20.957  0.00  0.00    +0.000 HD
BRANCH  16  18
ATOM     18  C   UNL     1       2.903   6.301  19.574  0.00  0.00    +0.000 C 
BRANCH  18  19
ATOM     19  C   UNL     1       2.272   4.963  19.276  0.00  0.00    +0.000 A 
ATOM     20  C   UNL     1       2.562   4.288  18.079  0.00  0.00    +0.000 A 
ATOM     21  C   UNL     1       2.029   3.021  17.830  0.00  0.00    +0.000 A 
ATOM     22  C   UNL     1       1.212   2.424  18.782  0.00  0.00    +0.000 A 
ATOM     23  F   UNL     1       0.709   1.204  18.549  0.00  0.00    +0.000 F 
ATOM     24  C   UNL     1       0.916   3.069  19.976  0.00  0.00    +0.000 A 
ATOM     25  C   UNL     1       1.447   4.337  20.225  0.00  0.00    +0.000 A 
ENDBRANCH  18  19
ENDBRANCH  16  18
ENDBRANCH   6  14
BRANCH   7  26
ATOM     26  O   UNL     1       1.874   8.854  22.308  0.00  0.00    +0.000 OA
ATOM     27  H   UNL     1       2.418   8.281  21.724  0.00  0.00    +0.000 HD
ENDBRANCH   7  26
BRANCH  13  28
ATOM     28  C   UNL     1      -4.110  13.113  19.351  0.00  0.00    +0.000 C 
BRANCH  28  29
ATOM     29  C   UNL     1      -5.551  12.956  19.735  0.00  0.00    +0.000 A 
ATOM     30  N   UNL     1      -6.267  11.852  19.820  0.00  0.00    +0.000 NA
ATOM     31  N   UNL     1      -7.535  12.241  20.200  0.00  0.00    +0.000 NA
ATOM     32  C   UNL     1      -7.497  13.548  20.312  0.00  0.00    +0.000 A 
ATOM     33  O   UNL     1      -6.274  14.082  20.039  0.00  0.00    +0.000 OA
ENDBRANCH  28  29
ENDBRANCH  13  28
TORSDOF 6
ENDMDL
