MODEL 1
REMARK VINA RESULT:      -9.2      0.000      0.000
REMARK  Name = 
REMARK  6 active torsions:
REMARK  status: ('A' for Active; 'I' for Inactive)
REMARK    1  A    between atoms: C_2  and  C_4
REMARK    2  A    between atoms: C_9  and  N_10
REMARK    3  A    between atoms: N_10  and  C_11
REMARK    4  A    between atoms: C_15  and  C_16
REMARK    5  A    between atoms: N_18  and  C_19
REMARK    6  A    between atoms: C_19  and  C_20
REMARK                            x       y       z     vdW  Elec       q    Type
REMARK                         _______ _______ _______ _____ _____    ______ ____
ROOT
ATOM      1  C   UNL     1       3.988   4.054  19.561  0.00  0.00    +0.000 A 
ATOM      2  C   UNL     1       3.236   3.085  20.230  0.00  0.00    +0.000 A 
ATOM      3  C   UNL     1       2.007   3.413  20.816  0.00  0.00    +0.000 A 
ATOM      4  C   UNL     1       1.524   4.726  20.762  0.00  0.00    +0.000 A 
ATOM      5  C   UNL     1       2.270   5.714  20.115  0.00  0.00    +0.000 A 
ATOM      6  C   UNL     1       3.480   5.355  19.500  0.00  0.00    +0.000 A 
ENDROOT
BRANCH   5   7
ATOM      7  C   UNL     1       1.844   7.099  20.095  0.00  0.00    +0.000 A 
ATOM      8  C   UNL     1       1.955   7.942  19.011  0.00  0.00    +0.000 A 
ATOM      9  N   UNL     1       1.399   9.107  19.436  0.00  0.00    +0.000 N 
ATOM     10  N   UNL     1       0.976   9.009  20.711  0.00  0.00    +0.000 NA
ATOM     11  N   UNL     1       1.268   7.780  21.135  0.00  0.00    +0.000 NA
BRANCH   9  12
ATOM     12  C   UNL     1       1.143  10.288  18.632  0.00  0.00    +0.000 C 
BRANCH  12  13
ATOM     13  C   UNL     1      -0.330  10.572  18.484  0.00  0.00    +0.000 A 
ATOM     14  C   UNL     1      -0.933  11.630  19.183  0.00  0.00    +0.000 A 
ATOM     15  C   UNL     1      -2.285  11.925  18.993  0.00  0.00    +0.000 A 
ATOM     16  C   UNL     1      -3.047  11.164  18.108  0.00  0.00    +0.000 A 
ATOM     17  C   UNL     1      -2.464  10.102  17.422  0.00  0.00    +0.000 A 
ATOM     18  C   UNL     1      -1.113   9.807  17.609  0.00  0.00    +0.000 A 
ENDBRANCH  12  13
ENDBRANCH   9  12
ENDBRANCH   5   7
BRANCH   1  19
ATOM     19  N   UNL     1       5.234   3.725  18.983  0.00  0.00    +0.000 N 
ATOM     20  H   UNL     1       5.926   3.450  19.678  0.00  0.00    +0.000 HD
BRANCH  19  26
ATOM     21  C   UNL     1       6.832   5.203  17.763  0.00  0.00    +0.000 A 
ATOM     22  C   UNL     1       7.348   5.655  16.533  0.00  0.00    +0.000 A 
ATOM     23  C   UNL     1       6.832   5.187  15.325  0.00  0.00    +0.000 A 
ATOM     24  C   UNL     1       5.804   4.254  15.335  0.00  0.00    +0.000 A 
ATOM     25  C   UNL     1       5.297   3.790  16.551  0.00  0.00    +0.000 A 
ATOM     26  C   UNL     1       5.793   4.249  17.788  0.00  0.00    +0.000 A 
BRANCH  21  28
ATOM     27  N   UNL     1       8.234   6.913  18.800  0.00  0.00    +0.000 N 
ATOM     28  C   UNL     1       7.452   5.803  18.973  0.00  0.00    +0.000 C 
ATOM     29  O   UNL     1       7.332   5.291  20.079  0.00  0.00    +0.000 OA
ATOM     30  H   UNL     1       8.793   7.166  19.607  0.00  0.00    +0.000 HD
ATOM     31  H   UNL     1       8.623   7.126  17.889  0.00  0.00    +0.000 HD
ENDBRANCH  21  28
ENDBRANCH  19  26
ENDBRANCH   1  19
TORSDOF 6
ENDMDL
MODEL 2
REMARK VINA RESULT:      -8.9      3.708      7.912
REMARK  Name = 
REMARK  6 active torsions:
REMARK  status: ('A' for Active; 'I' for Inactive)
REMARK    1  A    between atoms: C_2  and  C_4
REMARK    2  A    between atoms: C_9  and  N_10
REMARK    3  A    between atoms: N_10  and  C_11
REMARK    4  A    between atoms: C_15  and  C_16
REMARK    5  A    between atoms: N_18  and  C_19
REMARK    6  A    between atoms: C_19  and  C_20
REMARK                            x       y       z     vdW  Elec       q    Type
REMARK                         _______ _______ _______ _____ _____    ______ ____
ROOT
ATOM      1  C   UNL     1       4.468   4.983  17.110  0.00  0.00    +0.000 A 
ATOM      2  C   UNL     1       5.056   4.012  16.296  0.00  0.00    +0.000 A 
ATOM      3  C   UNL     1       6.421   4.066  15.991  0.00  0.00    +0.000 A 
ATOM      4  C   UNL     1       7.215   5.112  16.477  0.00  0.00    +0.000 A 
ATOM      5  C   UNL     1       6.643   6.104  17.276  0.00  0.00    +0.000 A 
ATOM      6  C   UNL     1       5.281   6.007  17.604  0.00  0.00    +0.000 A 
ENDROOT
BRANCH   5   7
ATOM      7  C   UNL     1       7.410   7.241  17.744  0.00  0.00    +0.000 A 
ATOM      8  C   UNL     1       7.288   8.526  17.262  0.00  0.00    +0.000 A 
ATOM      9  N   UNL     1       8.162   9.248  18.013  0.00  0.00    +0.000 N 
ATOM     10  N   UNL     1       8.803   8.465  18.902  0.00  0.00    +0.000 NA
ATOM     11  N   UNL     1       8.363   7.220  18.727  0.00  0.00    +0.000 NA
BRANCH   9  12
ATOM     12  C   UNL     1       8.328  10.689  18.000  0.00  0.00    +0.000 C 
BRANCH  12  13
ATOM     13  C   UNL     1       9.610  11.124  18.664  0.00  0.00    +0.000 A 
ATOM     14  C   UNL     1      10.784  11.302  17.915  0.00  0.00    +0.000 A 
ATOM     15  C   UNL     1      11.951  11.764  18.528  0.00  0.00    +0.000 A 
ATOM     16  C   UNL     1      11.957  12.048  19.892  0.00  0.00    +0.000 A 
ATOM     17  C   UNL     1      10.803  11.860  20.648  0.00  0.00    +0.000 A 
ATOM     18  C   UNL     1       9.636  11.400  20.038  0.00  0.00    +0.000 A 
ENDBRANCH  12  13
ENDBRANCH   9  12
ENDBRANCH   5   7
BRANCH   1  19
ATOM     19  N   UNL     1       3.087   4.934  17.407  0.00  0.00    +0.000 N 
ATOM     20  H   UNL     1       2.580   5.734  17.030  0.00  0.00    +0.000 HD
BRANCH  19  26
ATOM     21  C   UNL     1       2.017   5.072  19.656  0.00  0.00    +0.000 A 
ATOM     22  C   UNL     1       1.394   4.408  20.731  0.00  0.00    +0.000 A 
ATOM     23  C   UNL     1       1.232   3.023  20.719  0.00  0.00    +0.000 A 
ATOM     24  C   UNL     1       1.681   2.290  19.629  0.00  0.00    +0.000 A 
ATOM     25  C   UNL     1       2.287   2.943  18.553  0.00  0.00    +0.000 A 
ATOM     26  C   UNL     1       2.472   4.341  18.539  0.00  0.00    +0.000 A 
BRANCH  21  28
ATOM     27  N   UNL     1       1.891   7.080  21.042  0.00  0.00    +0.000 N 
ATOM     28  C   UNL     1       2.152   6.544  19.809  0.00  0.00    +0.000 C 
ATOM     29  O   UNL     1       2.417   7.269  18.858  0.00  0.00    +0.000 OA
ATOM     30  H   UNL     1       1.798   8.089  21.053  0.00  0.00    +0.000 HD
ATOM     31  H   UNL     1       1.342   6.562  21.717  0.00  0.00    +0.000 HD
ENDBRANCH  21  28
ENDBRANCH  19  26
ENDBRANCH   1  19
TORSDOF 6
ENDMDL
MODEL 3
REMARK VINA RESULT:      -8.8      2.883      4.857
REMARK  Name = 
REMARK  6 active torsions:
REMARK  status: ('A' for Active; 'I' for Inactive)
REMARK    1  A    between atoms: C_2  and  C_4
REMARK    2  A    between atoms: C_9  and  N_10
REMARK    3  A    between atoms: N_10  and  C_11
REMARK    4  A    between atoms: C_15  and  C_16
REMARK    5  A    between atoms: N_18  and  C_19
REMARK    6  A    between atoms: C_19  and  C_20
REMARK                            x       y       z     vdW  Elec       q    Type
REMARK                         _______ _______ _______ _____ _____    ______ ____
ROOT
ATOM      1  C   UNL     1       2.217   7.269  19.787  0.00  0.00    +0.000 A 
ATOM      2  C   UNL     1       2.214   7.715  18.463  0.00  0.00    +0.000 A 
ATOM      3  C   UNL     1       1.623   8.938  18.122  0.00  0.00    +0.000 A 
ATOM      4  C   UNL     1       1.001   9.722  19.101  0.00  0.00    +0.000 A 
ATOM      5  C   UNL     1       0.976   9.285  20.427  0.00  0.00    +0.000 A 
ATOM      6  C   UNL     1       1.611   8.076  20.754  0.00  0.00    +0.000 A 
ENDROOT
BRANCH   5   7
ATOM      7  C   UNL     1       0.284  10.029  21.461  0.00  0.00    +0.000 A 
ATOM      8  C   UNL     1       0.046  11.385  21.430  0.00  0.00    +0.000 A 
ATOM      9  N   UNL     1      -0.654  11.628  22.570  0.00  0.00    +0.000 N 
ATOM     10  N   UNL     1      -0.833  10.498  23.281  0.00  0.00    +0.000 NA
ATOM     11  N   UNL     1      -0.236   9.510  22.616  0.00  0.00    +0.000 NA
BRANCH   9  12
ATOM     12  C   UNL     1      -1.269  12.884  22.957  0.00  0.00    +0.000 C 
BRANCH  12  13
ATOM     13  C   UNL     1      -2.773  12.832  22.884  0.00  0.00    +0.000 A 
ATOM     14  C   UNL     1      -3.554  12.900  24.049  0.00  0.00    +0.000 A 
ATOM     15  C   UNL     1      -4.948  12.913  23.967  0.00  0.00    +0.000 A 
ATOM     16  C   UNL     1      -5.575  12.855  22.723  0.00  0.00    +0.000 A 
ATOM     17  C   UNL     1      -4.811  12.771  21.562  0.00  0.00    +0.000 A 
ATOM     18  C   UNL     1      -3.418  12.759  21.641  0.00  0.00    +0.000 A 
ENDBRANCH  12  13
ENDBRANCH   9  12
ENDBRANCH   5   7
BRANCH   1  19
ATOM     19  N   UNL     1       2.802   6.029  20.128  0.00  0.00    +0.000 N 
ATOM     20  H   UNL     1       3.785   6.119  20.380  0.00  0.00    +0.000 HD
BRANCH  19  26
ATOM     21  C   UNL     1       3.271   3.979  18.786  0.00  0.00    +0.000 A 
ATOM     22  C   UNL     1       2.854   2.702  18.360  0.00  0.00    +0.000 A 
ATOM     23  C   UNL     1       1.620   2.186  18.752  0.00  0.00    +0.000 A 
ATOM     24  C   UNL     1       0.795   2.933  19.581  0.00  0.00    +0.000 A 
ATOM     25  C   UNL     1       1.208   4.194  20.020  0.00  0.00    +0.000 A 
ATOM     26  C   UNL     1       2.447   4.747  19.635  0.00  0.00    +0.000 A 
BRANCH  21  28
ATOM     27  N   UNL     1       5.692   3.688  18.638  0.00  0.00    +0.000 N 
ATOM     28  C   UNL     1       4.594   4.420  18.274  0.00  0.00    +0.000 C 
ATOM     29  O   UNL     1       4.719   5.440  17.607  0.00  0.00    +0.000 OA
ATOM     30  H   UNL     1       6.581   4.131  18.439  0.00  0.00    +0.000 HD
ATOM     31  H   UNL     1       5.654   3.081  19.449  0.00  0.00    +0.000 HD
ENDBRANCH  21  28
ENDBRANCH  19  26
ENDBRANCH   1  19
TORSDOF 6
ENDMDL
MODEL 4
REMARK VINA RESULT:      -8.6      1.200      1.462
REMARK  Name = 
REMARK  6 active torsions:
REMARK  status: ('A' for Active; 'I' for Inactive)
REMARK    1  A    between atoms: C_2  and  C_4
REMARK    2  A    between atoms: C_9  and  N_10
REMARK    3  A    between atoms: N_10  and  C_11
REMARK    4  A    between atoms: C_15  and  C_16
REMARK    5  A    between atoms: N_18  and  C_19
REMARK    6  A    between atoms: C_19  and  C_20
REMARK                            x       y       z     vdW  Elec       q    Type
REMARK                         _______ _______ _______ _____ _____    ______ ____
ROOT
ATOM      1  C   UNL     1       4.350   4.707  18.864  0.00  0.00    +0.000 A 
ATOM      2  C   UNL     1       3.722   4.034  19.914  0.00  0.00    +0.000 A 
ATOM      3  C   UNL     1       2.588   4.574  20.533  0.00  0.00    +0.000 A 
ATOM      4  C   UNL     1       2.081   5.814  20.124  0.00  0.00    +0.000 A 
ATOM      5  C   UNL     1       2.706   6.513  19.090  0.00  0.00    +0.000 A 
ATOM      6  C   UNL     1       3.816   5.933  18.456  0.00  0.00    +0.000 A 
ENDROOT
BRANCH   5   7
ATOM      7  C   UNL     1       2.258   7.829  18.680  0.00  0.00    +0.000 A 
ATOM      8  C   UNL     1       1.400   8.629  19.402  0.00  0.00    +0.000 A 
ATOM      9  N   UNL     1       1.299   9.764  18.661  0.00  0.00    +0.000 N 
ATOM     10  N   UNL     1       2.036   9.679  17.537  0.00  0.00    +0.000 NA
ATOM     11  N   UNL     1       2.613   8.478  17.528  0.00  0.00    +0.000 NA
BRANCH   9  12
ATOM     12  C   UNL     1       0.616  10.987  19.040  0.00  0.00    +0.000 C 
BRANCH  12  13
ATOM     13  C   UNL     1      -0.847  10.961  18.679  0.00  0.00    +0.000 A 
ATOM     14  C   UNL     1      -1.758  11.833  19.297  0.00  0.00    +0.000 A 
ATOM     15  C   UNL     1      -3.101  11.844  18.912  0.00  0.00    +0.000 A 
ATOM     16  C   UNL     1      -3.547  10.983  17.911  0.00  0.00    +0.000 A 
ATOM     17  C   UNL     1      -2.656  10.103  17.302  0.00  0.00    +0.000 A 
ATOM     18  C   UNL     1      -1.315  10.091  17.683  0.00  0.00    +0.000 A 
ENDBRANCH  12  13
ENDBRANCH   9  12
ENDBRANCH   5   7
BRANCH   1  19
ATOM     19  N   UNL     1       5.502   4.167  18.249  0.00  0.00    +0.000 N 
ATOM     20  H   UNL     1       6.237   3.951  18.921  0.00  0.00    +0.000 HD
BRANCH  19  26
ATOM     21  C   UNL     1       6.885   5.456  16.621  0.00  0.00    +0.000 A 
ATOM     22  C   UNL     1       7.326   5.630  15.295  0.00  0.00    +0.000 A 
ATOM     23  C   UNL     1       6.862   4.803  14.273  0.00  0.00    +0.000 A 
ATOM     24  C   UNL     1       5.962   3.788  14.567  0.00  0.00    +0.000 A 
ATOM     25  C   UNL     1       5.531   3.600  15.883  0.00  0.00    +0.000 A 
ATOM     26  C   UNL     1       5.976   4.424  16.937  0.00  0.00    +0.000 A 
BRANCH  21  28
ATOM     27  N   UNL     1       7.637   7.710  17.188  0.00  0.00    +0.000 N 
ATOM     28  C   UNL     1       7.436   6.422  17.607  0.00  0.00    +0.000 C 
ATOM     29  O   UNL     1       7.767   6.074  18.734  0.00  0.00    +0.000 OA
ATOM     30  H   UNL     1       8.193   8.277  17.817  0.00  0.00    +0.000 HD
ATOM     31  H   UNL     1       7.707   7.919  16.199  0.00  0.00    +0.000 HD
ENDBRANCH  21  28
ENDBRANCH  19  26
ENDBRANCH   1  19
TORSDOF 6
ENDMDL
MODEL 5
REMARK VINA RESULT:      -8.5      1.049      1.706
REMARK  Name = 
REMARK  6 active torsions:
REMARK  status: ('A' for Active; 'I' for Inactive)
REMARK    1  A    between atoms: C_2  and  C_4
REMARK    2  A    between atoms: C_9  and  N_10
REMARK    3  A    between atoms: N_10  and  C_11
REMARK    4  A    between atoms: C_15  and  C_16
REMARK    5  A    between atoms: N_18  and  C_19
REMARK    6  A    between atoms: C_19  and  C_20
REMARK                            x       y       z     vdW  Elec       q    Type
REMARK                         _______ _______ _______ _____ _____    ______ ____
ROOT
ATOM      1  C   UNL     1       4.040   4.038  19.529  0.00  0.00    +0.000 A 
ATOM      2  C   UNL     1       3.334   3.140  20.333  0.00  0.00    +0.000 A 
ATOM      3  C   UNL     1       2.149   3.531  20.970  0.00  0.00    +0.000 A 
ATOM      4  C   UNL     1       1.668   4.839  20.831  0.00  0.00    +0.000 A 
ATOM      5  C   UNL     1       2.370   5.757  20.049  0.00  0.00    +0.000 A 
ATOM      6  C   UNL     1       3.533   5.333  19.386  0.00  0.00    +0.000 A 
ENDROOT
BRANCH   5   7
ATOM      7  C   UNL     1       1.947   7.139  19.933  0.00  0.00    +0.000 A 
ATOM      8  C   UNL     1       1.312   7.854  20.924  0.00  0.00    +0.000 A 
ATOM      9  N   UNL     1       1.149   9.093  20.389  0.00  0.00    +0.000 N 
ATOM     10  N   UNL     1       1.637   9.151  19.135  0.00  0.00    +0.000 NA
ATOM     11  N   UNL     1       2.110   7.942  18.836  0.00  0.00    +0.000 NA
BRANCH   9  12
ATOM     12  C   UNL     1       0.648  10.271  21.072  0.00  0.00    +0.000 C 
BRANCH  12  13
ATOM     13  C   UNL     1       0.292  11.380  20.114  0.00  0.00    +0.000 A 
ATOM     14  C   UNL     1      -0.910  11.348  19.389  0.00  0.00    +0.000 A 
ATOM     15  C   UNL     1      -1.260  12.409  18.551  0.00  0.00    +0.000 A 
ATOM     16  C   UNL     1      -0.412  13.508  18.426  0.00  0.00    +0.000 A 
ATOM     17  C   UNL     1       0.790  13.544  19.128  0.00  0.00    +0.000 A 
ATOM     18  C   UNL     1       1.140  12.486  19.967  0.00  0.00    +0.000 A 
ENDBRANCH  12  13
ENDBRANCH   9  12
ENDBRANCH   5   7
BRANCH   1  19
ATOM     19  N   UNL     1       5.242   3.648  18.897  0.00  0.00    +0.000 N 
ATOM     20  H   UNL     1       5.930   3.289  19.558  0.00  0.00    +0.000 HD
BRANCH  19  26
ATOM     21  C   UNL     1       6.831   5.157  17.704  0.00  0.00    +0.000 A 
ATOM     22  C   UNL     1       7.353   5.625  16.482  0.00  0.00    +0.000 A 
ATOM     23  C   UNL     1       6.857   5.156  15.266  0.00  0.00    +0.000 A 
ATOM     24  C   UNL     1       5.843   4.207  15.259  0.00  0.00    +0.000 A 
ATOM     25  C   UNL     1       5.330   3.728  16.467  0.00  0.00    +0.000 A 
ATOM     26  C   UNL     1       5.805   4.188  17.712  0.00  0.00    +0.000 A 
BRANCH  21  28
ATOM     27  N   UNL     1       8.202   6.877  18.765  0.00  0.00    +0.000 N 
ATOM     28  C   UNL     1       7.428   5.759  18.924  0.00  0.00    +0.000 C 
ATOM     29  O   UNL     1       7.297   5.243  20.027  0.00  0.00    +0.000 OA
ATOM     30  H   UNL     1       8.747   7.133  19.580  0.00  0.00    +0.000 HD
ATOM     31  H   UNL     1       8.601   7.096  17.860  0.00  0.00    +0.000 HD
ENDBRANCH  21  28
ENDBRANCH  19  26
ENDBRANCH   1  19
TORSDOF 6
ENDMDL
MODEL 6
REMARK VINA RESULT:      -8.4      3.248      5.037
REMARK  Name = 
REMARK  6 active torsions:
REMARK  status: ('A' for Active; 'I' for Inactive)
REMARK    1  A    between atoms: C_2  and  C_4
REMARK    2  A    between atoms: C_9  and  N_10
REMARK    3  A    between atoms: N_10  and  C_11
REMARK    4  A    between atoms: C_15  and  C_16
REMARK    5  A    between atoms: N_18  and  C_19
REMARK    6  A    between atoms: C_19  and  C_20
REMARK                            x       y       z     vdW  Elec       q    Type
REMARK                         _______ _______ _______ _____ _____    ______ ____
ROOT
ATOM      1  C   UNL     1       2.139   7.529  19.630  0.00  0.00    +0.000 A 
ATOM      2  C   UNL     1       2.079   8.035  18.329  0.00  0.00    +0.000 A 
ATOM      3  C   UNL     1       1.428   9.246  18.062  0.00  0.00    +0.000 A 
ATOM      4  C   UNL     1       0.804   9.957  19.095  0.00  0.00    +0.000 A 
ATOM      5  C   UNL     1       0.836   9.459  20.399  0.00  0.00    +0.000 A 
ATOM      6  C   UNL     1       1.528   8.264  20.650  0.00  0.00    +0.000 A 
ENDROOT
BRANCH   5   7
ATOM      7  C   UNL     1       0.145  10.126  21.485  0.00  0.00    +0.000 A 
ATOM      8  C   UNL     1      -0.116  11.477  21.541  0.00  0.00    +0.000 A 
ATOM      9  N   UNL     1      -0.806  11.635  22.702  0.00  0.00    +0.000 N 
ATOM     10  N   UNL     1      -0.956  10.461  23.344  0.00  0.00    +0.000 NA
ATOM     11  N   UNL     1      -0.351   9.526  22.612  0.00  0.00    +0.000 NA
BRANCH   9  12
ATOM     12  C   UNL     1      -1.436  12.854  23.175  0.00  0.00    +0.000 C 
BRANCH  12  13
ATOM     13  C   UNL     1      -2.938  12.803  23.060  0.00  0.00    +0.000 A 
ATOM     14  C   UNL     1      -3.748  12.794  24.206  0.00  0.00    +0.000 A 
ATOM     15  C   UNL     1      -5.140  12.809  24.089  0.00  0.00    +0.000 A 
ATOM     16  C   UNL     1      -5.735  12.830  22.829  0.00  0.00    +0.000 A 
ATOM     17  C   UNL     1      -4.941  12.824  21.685  0.00  0.00    +0.000 A 
ATOM     18  C   UNL     1      -3.551  12.810  21.799  0.00  0.00    +0.000 A 
ENDBRANCH  12  13
ENDBRANCH   9  12
ENDBRANCH   5   7
BRANCH   1  19
ATOM     19  N   UNL     1       2.784   6.301  19.896  0.00  0.00    +0.000 N 
ATOM     20  H   UNL     1       3.319   6.321  20.763  0.00  0.00    +0.000 HD
BRANCH  19  26
ATOM     21  C   UNL     1       2.599   4.137  18.668  0.00  0.00    +0.000 A 
ATOM     22  C   UNL     1       3.119   3.261  17.695  0.00  0.00    +0.000 A 
ATOM     23  C   UNL     1       4.293   3.570  17.009  0.00  0.00    +0.000 A 
ATOM     24  C   UNL     1       4.952   4.762  17.280  0.00  0.00    +0.000 A 
ATOM     25  C   UNL     1       4.434   5.642  18.234  0.00  0.00    +0.000 A 
ATOM     26  C   UNL     1       3.254   5.354  18.949  0.00  0.00    +0.000 A 
BRANCH  21  28
ATOM     27  N   UNL     1       0.705   2.599  18.802  0.00  0.00    +0.000 N 
ATOM     28  C   UNL     1       1.359   3.673  19.344  0.00  0.00    +0.000 C 
ATOM     29  O   UNL     1       0.892   4.265  20.309  0.00  0.00    +0.000 OA
ATOM     30  H   UNL     1      -0.227   2.445  19.167  0.00  0.00    +0.000 HD
ATOM     31  H   UNL     1       0.870   2.335  17.838  0.00  0.00    +0.000 HD
ENDBRANCH  21  28
ENDBRANCH  19  26
ENDBRANCH   1  19
TORSDOF 6
ENDMDL
MODEL 7
REMARK VINA RESULT:      -8.4      2.876      4.969
REMARK  Name = 
REMARK  6 active torsions:
REMARK  status: ('A' for Active; 'I' for Inactive)
REMARK    1  A    between atoms: C_2  and  C_4
REMARK    2  A    between atoms: C_9  and  N_10
REMARK    3  A    between atoms: N_10  and  C_11
REMARK    4  A    between atoms: C_15  and  C_16
REMARK    5  A    between atoms: N_18  and  C_19
REMARK    6  A    between atoms: C_19  and  C_20
REMARK                            x       y       z     vdW  Elec       q    Type
REMARK                         _______ _______ _______ _____ _____    ______ ____
ROOT
ATOM      1  C   UNL     1       2.375   7.217  19.546  0.00  0.00    +0.000 A 
ATOM      2  C   UNL     1       2.311   7.746  18.255  0.00  0.00    +0.000 A 
ATOM      3  C   UNL     1       1.659   8.962  18.013  0.00  0.00    +0.000 A 
ATOM      4  C   UNL     1       1.038   9.654  19.060  0.00  0.00    +0.000 A 
ATOM      5  C   UNL     1       1.074   9.132  20.354  0.00  0.00    +0.000 A 
ATOM      6  C   UNL     1       1.768   7.933  20.582  0.00  0.00    +0.000 A 
ENDROOT
BRANCH   5   7
ATOM      7  C   UNL     1       0.387   9.778  21.455  0.00  0.00    +0.000 A 
ATOM      8  C   UNL     1      -0.638  10.688  21.318  0.00  0.00    +0.000 A 
ATOM      9  N   UNL     1      -0.991  10.988  22.597  0.00  0.00    +0.000 N 
ATOM     10  N   UNL     1      -0.227  10.320  23.482  0.00  0.00    +0.000 NA
ATOM     11  N   UNL     1       0.643   9.589  22.787  0.00  0.00    +0.000 NA
BRANCH   9  12
ATOM     12  C   UNL     1      -2.116  11.803  23.015  0.00  0.00    +0.000 C 
BRANCH  12  13
ATOM     13  C   UNL     1      -1.943  13.253  22.642  0.00  0.00    +0.000 A 
ATOM     14  C   UNL     1      -2.787  13.860  21.699  0.00  0.00    +0.000 A 
ATOM     15  C   UNL     1      -2.658  15.219  21.404  0.00  0.00    +0.000 A 
ATOM     16  C   UNL     1      -1.685  15.983  22.045  0.00  0.00    +0.000 A 
ATOM     17  C   UNL     1      -0.831  15.388  22.971  0.00  0.00    +0.000 A 
ATOM     18  C   UNL     1      -0.958  14.031  23.267  0.00  0.00    +0.000 A 
ENDBRANCH  12  13
ENDBRANCH   9  12
ENDBRANCH   5   7
BRANCH   1  19
ATOM     19  N   UNL     1       3.021   5.984  19.788  0.00  0.00    +0.000 N 
ATOM     20  H   UNL     1       4.037   6.063  19.752  0.00  0.00    +0.000 HD
BRANCH  19  26
ATOM     21  C   UNL     1       3.198   3.769  18.654  0.00  0.00    +0.000 A 
ATOM     22  C   UNL     1       2.656   2.488  18.432  0.00  0.00    +0.000 A 
ATOM     23  C   UNL     1       1.449   2.110  19.020  0.00  0.00    +0.000 A 
ATOM     24  C   UNL     1       0.779   3.004  19.844  0.00  0.00    +0.000 A 
ATOM     25  C   UNL     1       1.318   4.271  20.080  0.00  0.00    +0.000 A 
ATOM     26  C   UNL     1       2.532   4.685  19.494  0.00  0.00    +0.000 A 
BRANCH  21  28
ATOM     27  N   UNL     1       5.640   3.813  18.620  0.00  0.00    +0.000 N 
ATOM     28  C   UNL     1       4.473   4.052  17.945  0.00  0.00    +0.000 C 
ATOM     29  O   UNL     1       4.491   4.547  16.825  0.00  0.00    +0.000 OA
ATOM     30  H   UNL     1       6.468   4.203  18.184  0.00  0.00    +0.000 HD
ATOM     31  H   UNL     1       5.641   3.751  19.631  0.00  0.00    +0.000 HD
ENDBRANCH  21  28
ENDBRANCH  19  26
ENDBRANCH   1  19
TORSDOF 6
ENDMDL
MODEL 8
REMARK VINA RESULT:      -8.3      2.825      4.972
REMARK  Name = 
REMARK  6 active torsions:
REMARK  status: ('A' for Active; 'I' for Inactive)
REMARK    1  A    between atoms: C_2  and  C_4
REMARK    2  A    between atoms: C_9  and  N_10
REMARK    3  A    between atoms: N_10  and  C_11
REMARK    4  A    between atoms: C_15  and  C_16
REMARK    5  A    between atoms: N_18  and  C_19
REMARK    6  A    between atoms: C_19  and  C_20
REMARK                            x       y       z     vdW  Elec       q    Type
REMARK                         _______ _______ _______ _____ _____    ______ ____
ROOT
ATOM      1  C   UNL     1       2.191   7.243  19.859  0.00  0.00    +0.000 A 
ATOM      2  C   UNL     1       2.344   7.466  18.489  0.00  0.00    +0.000 A 
ATOM      3  C   UNL     1       1.927   8.671  17.910  0.00  0.00    +0.000 A 
ATOM      4  C   UNL     1       1.325   9.663  18.694  0.00  0.00    +0.000 A 
ATOM      5  C   UNL     1       1.144   9.452  20.063  0.00  0.00    +0.000 A 
ATOM      6  C   UNL     1       1.608   8.253  20.630  0.00  0.00    +0.000 A 
ENDROOT
BRANCH   5   7
ATOM      7  C   UNL     1       0.465  10.420  20.899  0.00  0.00    +0.000 A 
ATOM      8  C   UNL     1      -0.669  10.165  21.638  0.00  0.00    +0.000 A 
ATOM      9  N   UNL     1      -0.918  11.336  22.283  0.00  0.00    +0.000 N 
ATOM     10  N   UNL     1      -0.006  12.274  21.960  0.00  0.00    +0.000 NA
ATOM     11  N   UNL     1       0.838  11.725  21.088  0.00  0.00    +0.000 NA
BRANCH   9  12
ATOM     12  C   UNL     1      -1.931  11.568  23.296  0.00  0.00    +0.000 C 
BRANCH  12  13
ATOM     13  C   UNL     1      -2.801  12.756  22.974  0.00  0.00    +0.000 A 
ATOM     14  C   UNL     1      -3.748  12.696  21.940  0.00  0.00    +0.000 A 
ATOM     15  C   UNL     1      -4.593  13.780  21.688  0.00  0.00    +0.000 A 
ATOM     16  C   UNL     1      -4.496  14.933  22.464  0.00  0.00    +0.000 A 
ATOM     17  C   UNL     1      -3.550  15.011  23.483  0.00  0.00    +0.000 A 
ATOM     18  C   UNL     1      -2.706  13.929  23.736  0.00  0.00    +0.000 A 
ENDBRANCH  12  13
ENDBRANCH   9  12
ENDBRANCH   5   7
BRANCH   1  19
ATOM     19  N   UNL     1       2.600   6.022  20.440  0.00  0.00    +0.000 N 
ATOM     20  H   UNL     1       3.447   6.121  20.999  0.00  0.00    +0.000 HD
BRANCH  19  26
ATOM     21  C   UNL     1       3.415   3.938  19.337  0.00  0.00    +0.000 A 
ATOM     22  C   UNL     1       3.135   2.638  18.872  0.00  0.00    +0.000 A 
ATOM     23  C   UNL     1       1.850   2.105  18.970  0.00  0.00    +0.000 A 
ATOM     24  C   UNL     1       0.836   2.861  19.543  0.00  0.00    +0.000 A 
ATOM     25  C   UNL     1       1.110   4.146  20.019  0.00  0.00    +0.000 A 
ATOM     26  C   UNL     1       2.396   4.715  19.927  0.00  0.00    +0.000 A 
BRANCH  21  28
ATOM     27  N   UNL     1       5.665   3.565  18.462  0.00  0.00    +0.000 N 
ATOM     28  C   UNL     1       4.817   4.394  19.146  0.00  0.00    +0.000 C 
ATOM     29  O   UNL     1       5.227   5.438  19.638  0.00  0.00    +0.000 OA
ATOM     30  H   UNL     1       6.645   3.815  18.528  0.00  0.00    +0.000 HD
ATOM     31  H   UNL     1       5.449   2.580  18.367  0.00  0.00    +0.000 HD
ENDBRANCH  21  28
ENDBRANCH  19  26
ENDBRANCH   1  19
TORSDOF 6
ENDMDL
MODEL 9
REMARK VINA RESULT:      -8.3      1.555      1.844
REMARK  Name = 
REMARK  6 active torsions:
REMARK  status: ('A' for Active; 'I' for Inactive)
REMARK    1  A    between atoms: C_2  and  C_4
REMARK    2  A    between atoms: C_9  and  N_10
REMARK    3  A    between atoms: N_10  and  C_11
REMARK    4  A    between atoms: C_15  and  C_16
REMARK    5  A    between atoms: N_18  and  C_19
REMARK    6  A    between atoms: C_19  and  C_20
REMARK                            x       y       z     vdW  Elec       q    Type
REMARK                         _______ _______ _______ _____ _____    ______ ____
ROOT
ATOM      1  C   UNL     1       4.019   3.698  17.289  0.00  0.00    +0.000 A 
ATOM      2  C   UNL     1       3.042   2.712  17.449  0.00  0.00    +0.000 A 
ATOM      3  C   UNL     1       1.784   3.032  17.974  0.00  0.00    +0.000 A 
ATOM      4  C   UNL     1       1.495   4.343  18.372  0.00  0.00    +0.000 A 
ATOM      5  C   UNL     1       2.464   5.339  18.239  0.00  0.00    +0.000 A 
ATOM      6  C   UNL     1       3.704   5.005  17.671  0.00  0.00    +0.000 A 
ENDROOT
BRANCH   5   7
ATOM      7  C   UNL     1       2.233   6.693  18.701  0.00  0.00    +0.000 A 
ATOM      8  C   UNL     1       2.236   7.811  17.897  0.00  0.00    +0.000 A 
ATOM      9  N   UNL     1       1.939   8.832  18.743  0.00  0.00    +0.000 N 
ATOM     10  N   UNL     1       1.772   8.387  20.004  0.00  0.00    +0.000 NA
ATOM     11  N   UNL     1       1.976   7.071  19.992  0.00  0.00    +0.000 NA
BRANCH   9  12
ATOM     12  C   UNL     1       1.687  10.214  18.379  0.00  0.00    +0.000 C 
BRANCH  12  13
ATOM     13  C   UNL     1       0.230  10.580  18.491  0.00  0.00    +0.000 A 
ATOM     14  C   UNL     1      -0.179  11.681  19.262  0.00  0.00    +0.000 A 
ATOM     15  C   UNL     1      -1.525  12.050  19.312  0.00  0.00    +0.000 A 
ATOM     16  C   UNL     1      -2.474  11.322  18.596  0.00  0.00    +0.000 A 
ATOM     17  C   UNL     1      -2.083  10.220  17.841  0.00  0.00    +0.000 A 
ATOM     18  C   UNL     1      -0.739   9.850  17.789  0.00  0.00    +0.000 A 
ENDBRANCH  12  13
ENDBRANCH   9  12
ENDBRANCH   5   7
BRANCH   1  19
ATOM     19  N   UNL     1       5.293   3.372  16.771  0.00  0.00    +0.000 N 
ATOM     20  H   UNL     1       5.956   3.115  17.501  0.00  0.00    +0.000 HD
BRANCH  19  26
ATOM     21  C   UNL     1       6.892   4.885  15.597  0.00  0.00    +0.000 A 
ATOM     22  C   UNL     1       7.461   5.321  14.384  0.00  0.00    +0.000 A 
ATOM     23  C   UNL     1       7.043   4.788  13.166  0.00  0.00    +0.000 A 
ATOM     24  C   UNL     1       6.062   3.806  13.147  0.00  0.00    +0.000 A 
ATOM     25  C   UNL     1       5.503   3.358  14.347  0.00  0.00    +0.000 A 
ATOM     26  C   UNL     1       5.899   3.883  15.594  0.00  0.00    +0.000 A 
BRANCH  21  28
ATOM     27  N   UNL     1       7.508   6.920  16.799  0.00  0.00    +0.000 N 
ATOM     28  C   UNL     1       7.407   5.555  16.820  0.00  0.00    +0.000 C 
ATOM     29  O   UNL     1       7.795   4.915  17.789  0.00  0.00    +0.000 OA
ATOM     30  H   UNL     1       8.045   7.315  17.562  0.00  0.00    +0.000 HD
ATOM     31  H   UNL     1       7.534   7.416  15.916  0.00  0.00    +0.000 HD
ENDBRANCH  21  28
ENDBRANCH  19  26
ENDBRANCH   1  19
TORSDOF 6
ENDMDL
