MODEL 1
REMARK VINA RESULT:      -8.3      0.000      0.000
REMARK  Name = 
REMARK  4 active torsions:
REMARK  status: ('A' for Active; 'I' for Inactive)
REMARK    1  A    between atoms: C_1  and  O_2
REMARK    2  A    between atoms: O_2  and  C_3
REMARK    3  A    between atoms: C_6  and  N_7
REMARK    4  A    between atoms: N_18  and  C_19
REMARK                            x       y       z     vdW  Elec       q    Type
REMARK                         _______ _______ _______ _____ _____    ______ ____
ROOT
ATOM      1  N   UNL     1       2.087   7.597  19.094  0.00  0.00    +0.000 N 
ATOM      2  C   UNL     1       2.012   8.758  18.329  0.00  0.00    +0.000 A 
ATOM      3  N   UNL     1       1.521   9.918  18.686  0.00  0.00    +0.000 NA
ATOM      4  C   UNL     1       1.004   9.949  19.997  0.00  0.00    +0.000 A 
ATOM      5  C   UNL     1       1.026   8.835  20.791  0.00  0.00    +0.000 A 
ATOM      6  S   UNL     1       0.326   9.087  22.306  0.00  0.00    +0.000 S 
ATOM      7  C   UNL     1       0.022  10.718  21.930  0.00  0.00    +0.000 A 
ATOM      8  N   UNL     1      -0.557  11.484  22.868  0.00  0.00    +0.000 NA
ATOM      9  C   UNL     1      -0.720  12.739  22.456  0.00  0.00    +0.000 A 
ATOM     10  N   UNL     1      -0.370  13.245  21.273  0.00  0.00    +0.000 NA
ATOM     11  C   UNL     1       0.212  12.451  20.329  0.00  0.00    +0.000 A 
ATOM     12  N   UNL     1       0.533  13.035  19.095  0.00  0.00    +0.000 N 
ATOM     13  C   UNL     1       0.429  11.092  20.652  0.00  0.00    +0.000 A 
ATOM     14  C   UNL     1       1.565   7.569  20.394  0.00  0.00    +0.000 A 
ATOM     15  O   UNL     1       1.522   6.567  21.107  0.00  0.00    +0.000 OA
ATOM     16  H   UNL     1       0.786  12.384  18.361  0.00  0.00    +0.000 HD
ENDROOT
BRANCH  12  17
ATOM     17  C   UNL     1       0.793  14.395  18.843  0.00  0.00    +0.000 A 
ATOM     18  C   UNL     1       2.106  14.842  18.651  0.00  0.00    +0.000 A 
ATOM     19  C   UNL     1       2.376  16.182  18.338  0.00  0.00    +0.000 A 
ATOM     20  C   UNL     1       1.331  17.099  18.223  0.00  0.00    +0.000 A 
ATOM     21  C   UNL     1       0.022  16.668  18.404  0.00  0.00    +0.000 A 
ATOM     22 CL   UNL     1      -1.276  17.790  18.266  0.00  0.00    +0.000 Cl
ATOM     23  C   UNL     1      -0.247  15.330  18.697  0.00  0.00    +0.000 A 
ENDBRANCH  12  17
BRANCH   1  27
ATOM     24  C   UNL     1       3.611   3.864  17.767  0.00  0.00    +0.000 A 
ATOM     25  C   UNL     1       2.248   4.155  17.656  0.00  0.00    +0.000 A 
ATOM     26  C   UNL     1       1.745   5.415  18.014  0.00  0.00    +0.000 A 
ATOM     27  C   UNL     1       2.601   6.381  18.550  0.00  0.00    +0.000 A 
ATOM     28  C   UNL     1       3.969   6.080  18.660  0.00  0.00    +0.000 A 
ATOM     29  C   UNL     1       4.474   4.836  18.263  0.00  0.00    +0.000 A 
BRANCH  24  31
ATOM     30  C   UNL     1       3.574   1.565  18.321  0.00  0.00    +0.000 C 
ATOM     31  O   UNL     1       3.970   2.592  17.418  0.00  0.00    +0.000 OA
ENDBRANCH  24  31
ENDBRANCH   1  27
TORSDOF 3
ENDMDL
MODEL 2
REMARK VINA RESULT:      -8.2      0.984      1.319
REMARK  Name = 
REMARK  4 active torsions:
REMARK  status: ('A' for Active; 'I' for Inactive)
REMARK    1  A    between atoms: C_1  and  O_2
REMARK    2  A    between atoms: O_2  and  C_3
REMARK    3  A    between atoms: C_6  and  N_7
REMARK    4  A    between atoms: N_18  and  C_19
REMARK                            x       y       z     vdW  Elec       q    Type
REMARK                         _______ _______ _______ _____ _____    ______ ____
ROOT
ATOM      1  N   UNL     1       2.131   7.479  19.036  0.00  0.00    +0.000 N 
ATOM      2  C   UNL     1       2.038   8.631  18.259  0.00  0.00    +0.000 A 
ATOM      3  N   UNL     1       1.545   9.792  18.610  0.00  0.00    +0.000 NA
ATOM      4  C   UNL     1       1.047   9.835  19.927  0.00  0.00    +0.000 A 
ATOM      5  C   UNL     1       1.088   8.730  20.734  0.00  0.00    +0.000 A 
ATOM      6  S   UNL     1       0.409   8.995  22.257  0.00  0.00    +0.000 S 
ATOM      7  C   UNL     1       0.089  10.620  21.867  0.00  0.00    +0.000 A 
ATOM      8  N   UNL     1      -0.481  11.393  22.804  0.00  0.00    +0.000 NA
ATOM      9  C   UNL     1      -0.657  12.642  22.380  0.00  0.00    +0.000 A 
ATOM     10  N   UNL     1      -0.328  13.137  21.186  0.00  0.00    +0.000 NA
ATOM     11  C   UNL     1       0.245  12.335  20.243  0.00  0.00    +0.000 A 
ATOM     12  N   UNL     1       0.544  12.907  18.997  0.00  0.00    +0.000 N 
ATOM     13  C   UNL     1       0.475  10.982  20.578  0.00  0.00    +0.000 A 
ATOM     14  C   UNL     1       1.628   7.463  20.343  0.00  0.00    +0.000 A 
ATOM     15  O   UNL     1       1.602   6.469  21.068  0.00  0.00    +0.000 OA
ATOM     16  H   UNL     1       0.791  12.249  18.267  0.00  0.00    +0.000 HD
ENDROOT
BRANCH  12  17
ATOM     17  C   UNL     1       0.792  14.266  18.727  0.00  0.00    +0.000 A 
ATOM     18  C   UNL     1      -0.265  15.183  18.673  0.00  0.00    +0.000 A 
ATOM     19  C   UNL     1      -0.029  16.549  18.466  0.00  0.00    +0.000 A 
ATOM     20  C   UNL     1       1.275  17.018  18.298  0.00  0.00    +0.000 A 
ATOM     21  C   UNL     1       2.334  16.120  18.357  0.00  0.00    +0.000 A 
ATOM     22 CL   UNL     1       3.947  16.685  18.150  0.00  0.00    +0.000 Cl
ATOM     23  C   UNL     1       2.100  14.763  18.580  0.00  0.00    +0.000 A 
ENDBRANCH  12  17
BRANCH   1  27
ATOM     24  C   UNL     1       3.659   3.741  17.728  0.00  0.00    +0.000 A 
ATOM     25  C   UNL     1       2.292   4.018  17.644  0.00  0.00    +0.000 A 
ATOM     26  C   UNL     1       1.785   5.279  17.995  0.00  0.00    +0.000 A 
ATOM     27  C   UNL     1       2.644   6.260  18.497  0.00  0.00    +0.000 A 
ATOM     28  C   UNL     1       4.017   5.973  18.581  0.00  0.00    +0.000 A 
ATOM     29  C   UNL     1       4.524   4.728  18.191  0.00  0.00    +0.000 A 
BRANCH  24  31
ATOM     30  C   UNL     1       3.595   1.442  18.280  0.00  0.00    +0.000 C 
ATOM     31  O   UNL     1       4.023   2.468  17.390  0.00  0.00    +0.000 OA
ENDBRANCH  24  31
ENDBRANCH   1  27
TORSDOF 3
ENDMDL
MODEL 3
REMARK VINA RESULT:      -8.0      0.931      1.050
REMARK  Name = 
REMARK  4 active torsions:
REMARK  status: ('A' for Active; 'I' for Inactive)
REMARK    1  A    between atoms: C_1  and  O_2
REMARK    2  A    between atoms: O_2  and  C_3
REMARK    3  A    between atoms: C_6  and  N_7
REMARK    4  A    between atoms: N_18  and  C_19
REMARK                            x       y       z     vdW  Elec       q    Type
REMARK                         _______ _______ _______ _____ _____    ______ ____
ROOT
ATOM      1  N   UNL     1       2.246   8.066  18.716  0.00  0.00    +0.000 N 
ATOM      2  C   UNL     1       2.076   9.284  18.061  0.00  0.00    +0.000 A 
ATOM      3  N   UNL     1       1.510  10.368  18.527  0.00  0.00    +0.000 NA
ATOM      4  C   UNL     1       1.013  10.243  19.840  0.00  0.00    +0.000 A 
ATOM      5  C   UNL     1       1.128   9.066  20.529  0.00  0.00    +0.000 A 
ATOM      6  S   UNL     1       0.436   9.129  22.068  0.00  0.00    +0.000 S 
ATOM      7  C   UNL     1       0.012  10.761  21.845  0.00  0.00    +0.000 A 
ATOM      8  N   UNL     1      -0.605  11.396  22.854  0.00  0.00    +0.000 NA
ATOM      9  C   UNL     1      -0.863  12.668  22.560  0.00  0.00    +0.000 A 
ATOM     10  N   UNL     1      -0.569  13.303  21.425  0.00  0.00    +0.000 NA
ATOM     11  C   UNL     1       0.053  12.641  20.407  0.00  0.00    +0.000 A 
ATOM     12  N   UNL     1       0.311  13.356  19.228  0.00  0.00    +0.000 N 
ATOM     13  C   UNL     1       0.370  11.278  20.602  0.00  0.00    +0.000 A 
ATOM     14  C   UNL     1       1.748   7.883  20.012  0.00  0.00    +0.000 A 
ATOM     15  O   UNL     1       1.788   6.821  20.632  0.00  0.00    +0.000 OA
ATOM     16  H   UNL     1       0.598  12.794  18.435  0.00  0.00    +0.000 HD
ENDROOT
BRANCH  12  17
ATOM     17  C   UNL     1       0.470  14.749  19.099  0.00  0.00    +0.000 A 
ATOM     18  C   UNL     1       1.749  15.319  19.095  0.00  0.00    +0.000 A 
ATOM     19  C   UNL     1       1.926  16.697  18.905  0.00  0.00    +0.000 A 
ATOM     20  C   UNL     1       0.820  17.528  18.727  0.00  0.00    +0.000 A 
ATOM     21  C   UNL     1      -0.455  16.974  18.721  0.00  0.00    +0.000 A 
ATOM     22 CL   UNL     1      -1.828  17.990  18.504  0.00  0.00    +0.000 Cl
ATOM     23  C   UNL     1      -0.630  15.601  18.892  0.00  0.00    +0.000 A 
ENDBRANCH  12  17
BRANCH   1  27
ATOM     24  C   UNL     1       4.177   4.692  17.014  0.00  0.00    +0.000 A 
ATOM     25  C   UNL     1       2.930   4.559  17.631  0.00  0.00    +0.000 A 
ATOM     26  C   UNL     1       2.244   5.680  18.123  0.00  0.00    +0.000 A 
ATOM     27  C   UNL     1       2.835   6.944  18.057  0.00  0.00    +0.000 A 
ATOM     28  C   UNL     1       4.090   7.068  17.438  0.00  0.00    +0.000 A 
ATOM     29  C   UNL     1       4.753   5.954  16.911  0.00  0.00    +0.000 A 
BRANCH  24  31
ATOM     30  C   UNL     1       5.841   3.652  15.692  0.00  0.00    +0.000 C 
ATOM     31  O   UNL     1       4.758   3.523  16.607  0.00  0.00    +0.000 OA
ENDBRANCH  24  31
ENDBRANCH   1  27
TORSDOF 3
ENDMDL
MODEL 4
REMARK VINA RESULT:      -7.8      1.321      1.633
REMARK  Name = 
REMARK  4 active torsions:
REMARK  status: ('A' for Active; 'I' for Inactive)
REMARK    1  A    between atoms: C_1  and  O_2
REMARK    2  A    between atoms: O_2  and  C_3
REMARK    3  A    between atoms: C_6  and  N_7
REMARK    4  A    between atoms: N_18  and  C_19
REMARK                            x       y       z     vdW  Elec       q    Type
REMARK                         _______ _______ _______ _____ _____    ______ ____
ROOT
ATOM      1  N   UNL     1       2.208   8.092  18.782  0.00  0.00    +0.000 N 
ATOM      2  C   UNL     1       2.047   9.318  18.141  0.00  0.00    +0.000 A 
ATOM      3  N   UNL     1       1.484  10.399  18.617  0.00  0.00    +0.000 NA
ATOM      4  C   UNL     1       0.981  10.261  19.926  0.00  0.00    +0.000 A 
ATOM      5  C   UNL     1       1.087   9.076  20.602  0.00  0.00    +0.000 A 
ATOM      6  S   UNL     1       0.389   9.124  22.138  0.00  0.00    +0.000 S 
ATOM      7  C   UNL     1      -0.027  10.760  21.933  0.00  0.00    +0.000 A 
ATOM      8  N   UNL     1      -0.645  11.386  22.947  0.00  0.00    +0.000 NA
ATOM      9  C   UNL     1      -0.896  12.663  22.667  0.00  0.00    +0.000 A 
ATOM     10  N   UNL     1      -0.594  13.310  21.541  0.00  0.00    +0.000 NA
ATOM     11  C   UNL     1       0.029  12.657  20.517  0.00  0.00    +0.000 A 
ATOM     12  N   UNL     1       0.296  13.384  19.348  0.00  0.00    +0.000 N 
ATOM     13  C   UNL     1       0.339  11.290  20.698  0.00  0.00    +0.000 A 
ATOM     14  C   UNL     1       1.704   7.896  20.074  0.00  0.00    +0.000 A 
ATOM     15  O   UNL     1       1.736   6.826  20.681  0.00  0.00    +0.000 OA
ATOM     16  H   UNL     1       0.583  12.830  18.550  0.00  0.00    +0.000 HD
ENDROOT
BRANCH  12  17
ATOM     17  C   UNL     1       0.462  14.778  19.237  0.00  0.00    +0.000 A 
ATOM     18  C   UNL     1      -0.540  15.567  18.658  0.00  0.00    +0.000 A 
ATOM     19  C   UNL     1      -0.417  16.962  18.595  0.00  0.00    +0.000 A 
ATOM     20  C   UNL     1       0.721  17.589  19.105  0.00  0.00    +0.000 A 
ATOM     21  C   UNL     1       1.719  16.819  19.689  0.00  0.00    +0.000 A 
ATOM     22 CL   UNL     1       3.129  17.580  20.319  0.00  0.00    +0.000 Cl
ATOM     23  C   UNL     1       1.588  15.432  19.767  0.00  0.00    +0.000 A 
ENDBRANCH  12  17
BRANCH   1  27
ATOM     24  C   UNL     1       4.137   4.733  17.045  0.00  0.00    +0.000 A 
ATOM     25  C   UNL     1       2.900   4.592  17.681  0.00  0.00    +0.000 A 
ATOM     26  C   UNL     1       2.214   5.707  18.186  0.00  0.00    +0.000 A 
ATOM     27  C   UNL     1       2.796   6.975  18.113  0.00  0.00    +0.000 A 
ATOM     28  C   UNL     1       4.039   7.109  17.474  0.00  0.00    +0.000 A 
ATOM     29  C   UNL     1       4.703   6.000  16.936  0.00  0.00    +0.000 A 
BRANCH  24  31
ATOM     30  C   UNL     1       5.834   3.711  15.753  0.00  0.00    +0.000 C 
ATOM     31  O   UNL     1       4.719   3.570  16.628  0.00  0.00    +0.000 OA
ENDBRANCH  24  31
ENDBRANCH   1  27
TORSDOF 3
ENDMDL
MODEL 5
REMARK VINA RESULT:      -7.8      2.457      4.204
REMARK  Name = 
REMARK  4 active torsions:
REMARK  status: ('A' for Active; 'I' for Inactive)
REMARK    1  A    between atoms: C_1  and  O_2
REMARK    2  A    between atoms: O_2  and  C_3
REMARK    3  A    between atoms: C_6  and  N_7
REMARK    4  A    between atoms: N_18  and  C_19
REMARK                            x       y       z     vdW  Elec       q    Type
REMARK                         _______ _______ _______ _____ _____    ______ ____
ROOT
ATOM      1  N   UNL     1       1.772   7.335  20.147  0.00  0.00    +0.000 N 
ATOM      2  C   UNL     1       1.206   7.896  21.289  0.00  0.00    +0.000 A 
ATOM      3  N   UNL     1       0.784   9.124  21.449  0.00  0.00    +0.000 NA
ATOM      4  C   UNL     1       0.953   9.947  20.317  0.00  0.00    +0.000 A 
ATOM      5  C   UNL     1       1.523   9.462  19.171  0.00  0.00    +0.000 A 
ATOM      6  S   UNL     1       1.658  10.623  17.954  0.00  0.00    +0.000 S 
ATOM      7  C   UNL     1       0.907  11.789  18.939  0.00  0.00    +0.000 A 
ATOM      8  N   UNL     1       0.712  13.015  18.430  0.00  0.00    +0.000 NA
ATOM      9  C   UNL     1       0.099  13.822  19.292  0.00  0.00    +0.000 A 
ATOM     10  N   UNL     1      -0.305  13.518  20.526  0.00  0.00    +0.000 NA
ATOM     11  C   UNL     1      -0.094  12.268  21.031  0.00  0.00    +0.000 A 
ATOM     12  N   UNL     1      -0.518  12.016  22.344  0.00  0.00    +0.000 N 
ATOM     13  C   UNL     1       0.558  11.324  20.205  0.00  0.00    +0.000 A 
ATOM     14  C   UNL     1       1.984   8.116  19.004  0.00  0.00    +0.000 A 
ATOM     15  O   UNL     1       2.545   7.720  17.982  0.00  0.00    +0.000 OA
ATOM     16  H   UNL     1      -0.182  11.150  22.748  0.00  0.00    +0.000 HD
ENDROOT
BRANCH  12  17
ATOM     17  C   UNL     1      -1.542  12.680  23.045  0.00  0.00    +0.000 A 
ATOM     18  C   UNL     1      -2.794  12.075  23.212  0.00  0.00    +0.000 A 
ATOM     19  C   UNL     1      -3.804  12.697  23.961  0.00  0.00    +0.000 A 
ATOM     20  C   UNL     1      -3.576  13.942  24.547  0.00  0.00    +0.000 A 
ATOM     21  C   UNL     1      -2.336  14.550  24.396  0.00  0.00    +0.000 A 
ATOM     22 CL   UNL     1      -2.043  16.087  25.113  0.00  0.00    +0.000 Cl
ATOM     23  C   UNL     1      -1.325  13.923  23.666  0.00  0.00    +0.000 A 
ENDBRANCH  12  17
BRANCH   1  27
ATOM     24  C   UNL     1       3.028   3.292  19.839  0.00  0.00    +0.000 A 
ATOM     25  C   UNL     1       3.892   4.333  19.486  0.00  0.00    +0.000 A 
ATOM     26  C   UNL     1       3.518   5.674  19.661  0.00  0.00    +0.000 A 
ATOM     27  C   UNL     1       2.242   5.986  20.137  0.00  0.00    +0.000 A 
ATOM     28  C   UNL     1       1.379   4.935  20.488  0.00  0.00    +0.000 A 
ATOM     29  C   UNL     1       1.770   3.597  20.349  0.00  0.00    +0.000 A 
BRANCH  24  31
ATOM     30  C   UNL     1       3.508   1.634  18.221  0.00  0.00    +0.000 C 
ATOM     31  O   UNL     1       3.493   2.031  19.588  0.00  0.00    +0.000 OA
ENDBRANCH  24  31
ENDBRANCH   1  27
TORSDOF 3
ENDMDL
MODEL 6
REMARK VINA RESULT:      -7.8      4.455      9.469
REMARK  Name = 
REMARK  4 active torsions:
REMARK  status: ('A' for Active; 'I' for Inactive)
REMARK    1  A    between atoms: C_1  and  O_2
REMARK    2  A    between atoms: O_2  and  C_3
REMARK    3  A    between atoms: C_6  and  N_7
REMARK    4  A    between atoms: N_18  and  C_19
REMARK                            x       y       z     vdW  Elec       q    Type
REMARK                         _______ _______ _______ _____ _____    ______ ____
ROOT
ATOM      1  N   UNL     1       1.357   9.088  19.034  0.00  0.00    +0.000 N 
ATOM      2  C   UNL     1       2.235   9.025  17.955  0.00  0.00    +0.000 A 
ATOM      3  N   UNL     1       3.045   8.046  17.641  0.00  0.00    +0.000 NA
ATOM      4  C   UNL     1       3.005   6.954  18.531  0.00  0.00    +0.000 A 
ATOM      5  C   UNL     1       2.181   6.964  19.624  0.00  0.00    +0.000 A 
ATOM      6  S   UNL     1       2.319   5.573  20.571  0.00  0.00    +0.000 S 
ATOM      7  C   UNL     1       3.461   4.915  19.495  0.00  0.00    +0.000 A 
ATOM      8  N   UNL     1       3.949   3.695  19.763  0.00  0.00    +0.000 NA
ATOM      9  C   UNL     1       4.814   3.289  18.837  0.00  0.00    +0.000 A 
ATOM     10  N   UNL     1       5.195   3.959  17.748  0.00  0.00    +0.000 NA
ATOM     11  C   UNL     1       4.693   5.202  17.494  0.00  0.00    +0.000 A 
ATOM     12  N   UNL     1       5.151   5.867  16.347  0.00  0.00    +0.000 N 
ATOM     13  C   UNL     1       3.768   5.741  18.416  0.00  0.00    +0.000 A 
ATOM     14  C   UNL     1       1.298   8.040  19.962  0.00  0.00    +0.000 A 
ATOM     15  O   UNL     1       0.608   8.048  20.981  0.00  0.00    +0.000 OA
ATOM     16  H   UNL     1       4.906   6.848  16.290  0.00  0.00    +0.000 HD
ENDROOT
BRANCH  12  17
ATOM     17  C   UNL     1       5.666   5.279  15.176  0.00  0.00    +0.000 A 
ATOM     18  C   UNL     1       7.047   5.258  14.943  0.00  0.00    +0.000 A 
ATOM     19  C   UNL     1       7.580   4.623  13.812  0.00  0.00    +0.000 A 
ATOM     20  C   UNL     1       6.734   4.006  12.890  0.00  0.00    +0.000 A 
ATOM     21  C   UNL     1       5.362   4.012  13.114  0.00  0.00    +0.000 A 
ATOM     22 CL   UNL     1       4.307   3.256  11.983  0.00  0.00    +0.000 Cl
ATOM     23  C   UNL     1       4.833   4.630  14.248  0.00  0.00    +0.000 A 
ENDBRANCH  12  17
BRANCH   1  27
ATOM     24  C   UNL     1      -1.138  12.384  19.995  0.00  0.00    +0.000 A 
ATOM     25  C   UNL     1       0.138  12.273  20.555  0.00  0.00    +0.000 A 
ATOM     26  C   UNL     1       1.003  11.232  20.182  0.00  0.00    +0.000 A 
ATOM     27  C   UNL     1       0.570  10.253  19.285  0.00  0.00    +0.000 A 
ATOM     28  C   UNL     1      -0.714  10.371  18.728  0.00  0.00    +0.000 A 
ATOM     29  C   UNL     1      -1.560  11.433  19.071  0.00  0.00    +0.000 A 
BRANCH  24  31
ATOM     30  C   UNL     1      -3.295  13.168  20.571  0.00  0.00    +0.000 C 
ATOM     31  O   UNL     1      -1.897  13.420  20.464  0.00  0.00    +0.000 OA
ENDBRANCH  24  31
ENDBRANCH   1  27
TORSDOF 3
ENDMDL
MODEL 7
REMARK VINA RESULT:      -7.7      4.406      9.457
REMARK  Name = 
REMARK  4 active torsions:
REMARK  status: ('A' for Active; 'I' for Inactive)
REMARK    1  A    between atoms: C_1  and  O_2
REMARK    2  A    between atoms: O_2  and  C_3
REMARK    3  A    between atoms: C_6  and  N_7
REMARK    4  A    between atoms: N_18  and  C_19
REMARK                            x       y       z     vdW  Elec       q    Type
REMARK                         _______ _______ _______ _____ _____    ______ ____
ROOT
ATOM      1  N   UNL     1       1.375   9.036  19.187  0.00  0.00    +0.000 N 
ATOM      2  C   UNL     1       2.272   8.985  18.124  0.00  0.00    +0.000 A 
ATOM      3  N   UNL     1       3.066   7.996  17.797  0.00  0.00    +0.000 NA
ATOM      4  C   UNL     1       2.984   6.881  18.655  0.00  0.00    +0.000 A 
ATOM      5  C   UNL     1       2.139   6.878  19.731  0.00  0.00    +0.000 A 
ATOM      6  S   UNL     1       2.226   5.458  20.640  0.00  0.00    +0.000 S 
ATOM      7  C   UNL     1       3.375   4.805  19.568  0.00  0.00    +0.000 A 
ATOM      8  N   UNL     1       3.830   3.566  19.809  0.00  0.00    +0.000 NA
ATOM      9  C   UNL     1       4.704   3.168  18.889  0.00  0.00    +0.000 A 
ATOM     10  N   UNL     1       5.121   3.859  17.827  0.00  0.00    +0.000 NA
ATOM     11  C   UNL     1       4.652   5.121  17.600  0.00  0.00    +0.000 A 
ATOM     12  N   UNL     1       5.148   5.807  16.482  0.00  0.00    +0.000 N 
ATOM     13  C   UNL     1       3.721   5.654  18.519  0.00  0.00    +0.000 A 
ATOM     14  C   UNL     1       1.274   7.964  20.083  0.00  0.00    +0.000 A 
ATOM     15  O   UNL     1       0.564   7.959  21.088  0.00  0.00    +0.000 OA
ATOM     16  H   UNL     1       4.927   6.795  16.448  0.00  0.00    +0.000 HD
ENDROOT
BRANCH  12  17
ATOM     17  C   UNL     1       5.673   5.242  15.304  0.00  0.00    +0.000 A 
ATOM     18  C   UNL     1       7.055   5.236  15.077  0.00  0.00    +0.000 A 
ATOM     19  C   UNL     1       7.599   4.622  13.939  0.00  0.00    +0.000 A 
ATOM     20  C   UNL     1       6.761   4.012  13.005  0.00  0.00    +0.000 A 
ATOM     21  C   UNL     1       5.389   4.003  13.222  0.00  0.00    +0.000 A 
ATOM     22 CL   UNL     1       4.345   3.255  12.076  0.00  0.00    +0.000 Cl
ATOM     23  C   UNL     1       4.850   4.599  14.363  0.00  0.00    +0.000 A 
ENDBRANCH  12  17
BRANCH   1  27
ATOM     24  C   UNL     1      -0.721  12.680  19.779  0.00  0.00    +0.000 A 
ATOM     25  C   UNL     1      -1.232  11.697  18.926  0.00  0.00    +0.000 A 
ATOM     26  C   UNL     1      -0.592  10.456  18.786  0.00  0.00    +0.000 A 
ATOM     27  C   UNL     1       0.609  10.212  19.457  0.00  0.00    +0.000 A 
ATOM     28  C   UNL     1       1.117  11.205  20.310  0.00  0.00    +0.000 A 
ATOM     29  C   UNL     1       0.454  12.427  20.479  0.00  0.00    +0.000 A 
BRANCH  24  31
ATOM     30  C   UNL     1      -0.630  15.043  19.827  0.00  0.00    +0.000 C 
ATOM     31  O   UNL     1      -1.416  13.857  19.802  0.00  0.00    +0.000 OA
ENDBRANCH  24  31
ENDBRANCH   1  27
TORSDOF 3
ENDMDL
MODEL 8
REMARK VINA RESULT:      -7.7      1.580      2.083
REMARK  Name = 
REMARK  4 active torsions:
REMARK  status: ('A' for Active; 'I' for Inactive)
REMARK    1  A    between atoms: C_1  and  O_2
REMARK    2  A    between atoms: O_2  and  C_3
REMARK    3  A    between atoms: C_6  and  N_7
REMARK    4  A    between atoms: N_18  and  C_19
REMARK                            x       y       z     vdW  Elec       q    Type
REMARK                         _______ _______ _______ _____ _____    ______ ____
ROOT
ATOM      1  N   UNL     1       2.852   7.375  18.492  0.00  0.00    +0.000 N 
ATOM      2  C   UNL     1       2.693   8.590  17.829  0.00  0.00    +0.000 A 
ATOM      3  N   UNL     1       2.021   9.637  18.234  0.00  0.00    +0.000 NA
ATOM      4  C   UNL     1       1.386   9.471  19.482  0.00  0.00    +0.000 A 
ATOM      5  C   UNL     1       1.484   8.293  20.172  0.00  0.00    +0.000 A 
ATOM      6  S   UNL     1       0.621   8.301  21.623  0.00  0.00    +0.000 S 
ATOM      7  C   UNL     1       0.138   9.911  21.364  0.00  0.00    +0.000 A 
ATOM      8  N   UNL     1      -0.622  10.500  22.300  0.00  0.00    +0.000 NA
ATOM      9  C   UNL     1      -0.912  11.761  21.987  0.00  0.00    +0.000 A 
ATOM     10  N   UNL     1      -0.526  12.424  20.896  0.00  0.00    +0.000 NA
ATOM     11  C   UNL     1       0.241  11.808  19.951  0.00  0.00    +0.000 A 
ATOM     12  N   UNL     1       0.593  12.550  18.813  0.00  0.00    +0.000 N 
ATOM     13  C   UNL     1       0.606  10.461  20.172  0.00  0.00    +0.000 A 
ATOM     14  C   UNL     1       2.221   7.151  19.722  0.00  0.00    +0.000 A 
ATOM     15  O   UNL     1       2.247   6.084  20.335  0.00  0.00    +0.000 OA
ATOM     16  H   UNL     1       0.997  12.013  18.055  0.00  0.00    +0.000 HD
ENDROOT
BRANCH  12  17
ATOM     17  C   UNL     1       0.691  13.951  18.712  0.00  0.00    +0.000 A 
ATOM     18  C   UNL     1      -0.463  14.744  18.716  0.00  0.00    +0.000 A 
ATOM     19  C   UNL     1      -0.380  16.143  18.678  0.00  0.00    +0.000 A 
ATOM     20  C   UNL     1       0.866  16.770  18.625  0.00  0.00    +0.000 A 
ATOM     21  C   UNL     1       2.019  15.995  18.628  0.00  0.00    +0.000 A 
ATOM     22 CL   UNL     1       3.562  16.756  18.562  0.00  0.00    +0.000 Cl
ATOM     23  C   UNL     1       1.936  14.603  18.684  0.00  0.00    +0.000 A 
ENDBRANCH  12  17
BRANCH   1  27
ATOM     24  C   UNL     1       4.844   4.227  16.457  0.00  0.00    +0.000 A 
ATOM     25  C   UNL     1       5.473   5.461  16.645  0.00  0.00    +0.000 A 
ATOM     26  C   UNL     1       4.858   6.481  17.387  0.00  0.00    +0.000 A 
ATOM     27  C   UNL     1       3.571   6.293  17.897  0.00  0.00    +0.000 A 
ATOM     28  C   UNL     1       2.945   5.051  17.703  0.00  0.00    +0.000 A 
ATOM     29  C   UNL     1       3.578   4.022  16.996  0.00  0.00    +0.000 A 
BRANCH  24  31
ATOM     30  C   UNL     1       6.216   3.870  14.563  0.00  0.00    +0.000 C 
ATOM     31  O   UNL     1       5.530   3.329  15.688  0.00  0.00    +0.000 OA
ENDBRANCH  24  31
ENDBRANCH   1  27
TORSDOF 3
ENDMDL
MODEL 9
REMARK VINA RESULT:      -7.6      2.685      4.280
REMARK  Name = 
REMARK  4 active torsions:
REMARK  status: ('A' for Active; 'I' for Inactive)
REMARK    1  A    between atoms: C_1  and  O_2
REMARK    2  A    between atoms: O_2  and  C_3
REMARK    3  A    between atoms: C_6  and  N_7
REMARK    4  A    between atoms: N_18  and  C_19
REMARK                            x       y       z     vdW  Elec       q    Type
REMARK                         _______ _______ _______ _____ _____    ______ ____
ROOT
ATOM      1  N   UNL     1       1.725   7.456  20.185  0.00  0.00    +0.000 N 
ATOM      2  C   UNL     1       1.237   8.039  21.352  0.00  0.00    +0.000 A 
ATOM      3  N   UNL     1       0.804   9.264  21.511  0.00  0.00    +0.000 NA
ATOM      4  C   UNL     1       0.872  10.057  20.347  0.00  0.00    +0.000 A 
ATOM      5  C   UNL     1       1.363   9.550  19.175  0.00  0.00    +0.000 A 
ATOM      6  S   UNL     1       1.384  10.680  17.921  0.00  0.00    +0.000 S 
ATOM      7  C   UNL     1       0.687  11.859  18.929  0.00  0.00    +0.000 A 
ATOM      8  N   UNL     1       0.432  13.067  18.404  0.00  0.00    +0.000 NA
ATOM      9  C   UNL     1      -0.130  13.888  19.288  0.00  0.00    +0.000 A 
ATOM     10  N   UNL     1      -0.434  13.611  20.557  0.00  0.00    +0.000 NA
ATOM     11  C   UNL     1      -0.161  12.379  21.077  0.00  0.00    +0.000 A 
ATOM     12  N   UNL     1      -0.480  12.157  22.425  0.00  0.00    +0.000 N 
ATOM     13  C   UNL     1       0.444  11.424  20.230  0.00  0.00    +0.000 A 
ATOM     14  C   UNL     1       1.835   8.208  19.009  0.00  0.00    +0.000 A 
ATOM     15  O   UNL     1       2.324   7.794  17.958  0.00  0.00    +0.000 OA
ATOM     16  H   UNL     1      -0.098  11.309  22.826  0.00  0.00    +0.000 HD
ENDROOT
BRANCH  12  17
ATOM     17  C   UNL     1      -1.461  12.823  23.185  0.00  0.00    +0.000 A 
ATOM     18  C   UNL     1      -1.229  14.119  23.661  0.00  0.00    +0.000 A 
ATOM     19  C   UNL     1      -2.219  14.819  24.366  0.00  0.00    +0.000 A 
ATOM     20  C   UNL     1      -3.456  14.224  24.614  0.00  0.00    +0.000 A 
ATOM     21  C   UNL     1      -3.703  12.941  24.139  0.00  0.00    +0.000 A 
ATOM     22 CL   UNL     1      -5.225  12.196  24.439  0.00  0.00    +0.000 Cl
ATOM     23  C   UNL     1      -2.724  12.252  23.423  0.00  0.00    +0.000 A 
ENDBRANCH  12  17
BRANCH   1  27
ATOM     24  C   UNL     1       3.045   3.433  19.880  0.00  0.00    +0.000 A 
ATOM     25  C   UNL     1       3.884   4.486  19.503  0.00  0.00    +0.000 A 
ATOM     26  C   UNL     1       3.490   5.822  19.677  0.00  0.00    +0.000 A 
ATOM     27  C   UNL     1       2.218   6.115  20.175  0.00  0.00    +0.000 A 
ATOM     28  C   UNL     1       1.381   5.052  20.549  0.00  0.00    +0.000 A 
ATOM     29  C   UNL     1       1.792   3.720  20.413  0.00  0.00    +0.000 A 
BRANCH  24  31
ATOM     30  C   UNL     1       3.358   1.702  18.298  0.00  0.00    +0.000 C 
ATOM     31  O   UNL     1       3.528   2.179  19.629  0.00  0.00    +0.000 OA
ENDBRANCH  24  31
ENDBRANCH   1  27
TORSDOF 3
ENDMDL
