MODEL 1
REMARK VINA RESULT:      -6.8      0.000      0.000
REMARK  Name = 
REMARK  11 active torsions:
REMARK  status: ('A' for Active; 'I' for Inactive)
REMARK    1  A    between atoms: C_1  and  O_2
REMARK    2  A    between atoms: O_2  and  C_3
REMARK    3  A    between atoms: C_3  and  C_4
REMARK    4  A    between atoms: C_7  and  C_8
REMARK    5  A    between atoms: C_10  and  C_11
REMARK    6  A    between atoms: C_16  and  C_17
REMARK    7  A    between atoms: C_20  and  C_21
REMARK    8  A    between atoms: C_27  and  C_28
REMARK    9  A    between atoms: C_28  and  C_29
REMARK   10  A    between atoms: C_28  and  C_30
REMARK   11  A    between atoms: C_32  and  C_33
REMARK                            x       y       z     vdW  Elec       q    Type
REMARK                         _______ _______ _______ _____ _____    ______ ____
ROOT
ATOM      1  C   UNL     1      -2.395  11.646  18.695  0.00  0.00    +0.000 A 
ATOM      2  C   UNL     1      -1.073  11.743  19.189  0.00  0.00    +0.000 A 
ATOM      3  C   UNL     1      -0.752  12.495  20.346  0.00  0.00    +0.000 A 
ATOM      4  C   UNL     1      -1.764  13.245  20.987  0.00  0.00    +0.000 A 
ATOM      5  C   UNL     1      -3.076  13.148  20.473  0.00  0.00    +0.000 A 
ATOM      6  C   UNL     1      -3.413  12.341  19.375  0.00  0.00    +0.000 A 
ATOM      7  C   UNL     1      -4.871  12.267  18.986  0.00  0.00    +0.000 C 
ENDROOT
BRANCH   3   8
ATOM      8  C   UNL     1       0.703  12.570  20.731  0.00  0.00    +0.000 C 
ATOM      9  O   UNL     1       1.139  11.729  21.514  0.00  0.00    +0.000 OA
ATOM     10  N   UNL     1       1.485  13.657  20.296  0.00  0.00    +0.000 N 
ATOM     11  C   UNL     1       2.745  13.923  21.000  0.00  0.00    +0.000 C 
ATOM     12  C   UNL     1       3.341  15.264  20.564  0.00  0.00    +0.000 C 
ATOM     13  C   UNL     1       3.778  15.205  19.083  0.00  0.00    +0.000 C 
ATOM     14  C   UNL     1       2.827  14.249  18.294  0.00  0.00    +0.000 C 
ATOM     15  C   UNL     1       1.409  14.211  18.939  0.00  0.00    +0.000 C 
BRANCH  13  16
ATOM     16  C   UNL     1       5.312  15.091  18.990  0.00  0.00    +0.000 A 
ATOM     17  C   UNL     1       6.233  15.499  19.966  0.00  0.00    +0.000 A 
ATOM     18  C   UNL     1       7.631  15.375  19.744  0.00  0.00    +0.000 A 
ATOM     19  C   UNL     1       8.146  14.848  18.556  0.00  0.00    +0.000 A 
ATOM     20  C   UNL     1       7.234  14.479  17.557  0.00  0.00    +0.000 A 
ATOM     21  C   UNL     1       5.852  14.604  17.777  0.00  0.00    +0.000 A 
BRANCH  19  22
ATOM     22  C   UNL     1       9.564  14.681  18.341  0.00  0.00    +0.000 C 
ATOM     23  N   UNL     1      10.705  14.543  18.171  0.00  0.00    +0.000 NA
ENDBRANCH  19  22
ENDBRANCH  13  16
ENDBRANCH   3   8
BRANCH   1  27
ATOM     24  C   UNL     1      -2.991  10.178  15.426  0.00  0.00    +0.000 A 
ATOM     25  N   UNL     1      -3.326   9.176  16.206  0.00  0.00    +0.000 NA
ATOM     26  N   UNL     1      -3.146   9.582  17.503  0.00  0.00    +0.000 NA
ATOM     27  C   UNL     1      -2.707  10.829  17.512  0.00  0.00    +0.000 A 
ATOM     28  N   UNL     1      -2.618  11.241  16.205  0.00  0.00    +0.000 N 
ATOM     29  H   UNL     1      -2.326  12.145  15.869  0.00  0.00    +0.000 HD
BRANCH  24  30
ATOM     30  C   UNL     1      -2.998  10.211  13.946  0.00  0.00    +0.000 C 
BRANCH  30  32
ATOM     31  C   UNL     1      -4.416   9.803  12.113  0.00  0.00    +0.000 C 
ATOM     32  O   UNL     1      -4.294   9.779  13.529  0.00  0.00    +0.000 OA
ENDBRANCH  30  32
ENDBRANCH  24  30
ENDBRANCH   1  27
BRANCH   4  33
ATOM     33  C   UNL     1      -1.534  14.159  22.189  0.00  0.00    +0.000 C 
ATOM     34  C   UNL     1      -2.545  15.314  22.212  0.00  0.00    +0.000 C 
ATOM     35  C   UNL     1      -1.615  13.414  23.537  0.00  0.00    +0.000 C 
ENDBRANCH   4  33
TORSDOF 7
ENDMDL
MODEL 2
REMARK VINA RESULT:      -6.8      5.135      7.890
REMARK  Name = 
REMARK  11 active torsions:
REMARK  status: ('A' for Active; 'I' for Inactive)
REMARK    1  A    between atoms: C_1  and  O_2
REMARK    2  A    between atoms: O_2  and  C_3
REMARK    3  A    between atoms: C_3  and  C_4
REMARK    4  A    between atoms: C_7  and  C_8
REMARK    5  A    between atoms: C_10  and  C_11
REMARK    6  A    between atoms: C_16  and  C_17
REMARK    7  A    between atoms: C_20  and  C_21
REMARK    8  A    between atoms: C_27  and  C_28
REMARK    9  A    between atoms: C_28  and  C_29
REMARK   10  A    between atoms: C_28  and  C_30
REMARK   11  A    between atoms: C_32  and  C_33
REMARK                            x       y       z     vdW  Elec       q    Type
REMARK                         _______ _______ _______ _____ _____    ______ ____
ROOT
ATOM      1  C   UNL     1      -1.188  13.329  21.309  0.00  0.00    +0.000 A 
ATOM      2  C   UNL     1      -0.100  12.755  20.611  0.00  0.00    +0.000 A 
ATOM      3  C   UNL     1      -0.279  11.966  19.447  0.00  0.00    +0.000 A 
ATOM      4  C   UNL     1      -1.590  11.668  19.009  0.00  0.00    +0.000 A 
ATOM      5  C   UNL     1      -2.666  12.237  19.726  0.00  0.00    +0.000 A 
ATOM      6  C   UNL     1      -2.489  13.084  20.831  0.00  0.00    +0.000 A 
ATOM      7  C   UNL     1      -3.727  13.691  21.449  0.00  0.00    +0.000 C 
ENDROOT
BRANCH   3   8
ATOM      8  C   UNL     1       0.956  11.361  18.834  0.00  0.00    +0.000 C 
ATOM      9  O   UNL     1       1.815  12.119  18.390  0.00  0.00    +0.000 OA
ATOM     10  N   UNL     1       1.040   9.965  18.667  0.00  0.00    +0.000 N 
ATOM     11  C   UNL     1       2.034   9.443  17.721  0.00  0.00    +0.000 C 
ATOM     12  C   UNL     1       1.829   7.944  17.485  0.00  0.00    +0.000 C 
ATOM     13  C   UNL     1       2.128   7.148  18.776  0.00  0.00    +0.000 C 
ATOM     14  C   UNL     1       1.745   8.009  20.022  0.00  0.00    +0.000 C 
ATOM     15  C   UNL     1       0.596   9.004  19.685  0.00  0.00    +0.000 C 
BRANCH  13  16
ATOM     16  C   UNL     1       3.494   6.445  18.656  0.00  0.00    +0.000 A 
ATOM     17  C   UNL     1       4.045   5.546  19.581  0.00  0.00    +0.000 A 
ATOM     18  C   UNL     1       5.337   4.991  19.375  0.00  0.00    +0.000 A 
ATOM     19  C   UNL     1       6.109   5.315  18.255  0.00  0.00    +0.000 A 
ATOM     20  C   UNL     1       5.585   6.246  17.348  0.00  0.00    +0.000 A 
ATOM     21  C   UNL     1       4.308   6.795  17.554  0.00  0.00    +0.000 A 
BRANCH  19  22
ATOM     22  C   UNL     1       7.404   4.723  18.019  0.00  0.00    +0.000 C 
ATOM     23  N   UNL     1       8.447   4.243  17.832  0.00  0.00    +0.000 NA
ENDBRANCH  19  22
ENDBRANCH  13  16
ENDBRANCH   3   8
BRANCH   1  27
ATOM     24  C   UNL     1      -0.556  15.909  23.787  0.00  0.00    +0.000 A 
ATOM     25  N   UNL     1      -0.738  14.866  24.564  0.00  0.00    +0.000 NA
ATOM     26  N   UNL     1      -0.998  13.788  23.757  0.00  0.00    +0.000 NA
ATOM     27  C   UNL     1      -0.970  14.173  22.493  0.00  0.00    +0.000 A 
ATOM     28  N   UNL     1      -0.672  15.514  22.480  0.00  0.00    +0.000 N 
ATOM     29  H   UNL     1      -0.565  16.107  21.672  0.00  0.00    +0.000 HD
BRANCH  24  30
ATOM     30  C   UNL     1      -0.269  17.302  24.198  0.00  0.00    +0.000 C 
BRANCH  30  32
ATOM     31  C   UNL     1      -2.282  18.504  24.000  0.00  0.00    +0.000 C 
ATOM     32  O   UNL     1      -1.060  18.150  23.365  0.00  0.00    +0.000 OA
ENDBRANCH  30  32
ENDBRANCH  24  30
ENDBRANCH   1  27
BRANCH   4  33
ATOM     33  C   UNL     1      -1.921  10.764  17.823  0.00  0.00    +0.000 C 
ATOM     34  C   UNL     1      -3.013   9.748  18.185  0.00  0.00    +0.000 C 
ATOM     35  C   UNL     1      -2.379  11.549  16.576  0.00  0.00    +0.000 C 
ENDBRANCH   4  33
TORSDOF 7
ENDMDL
MODEL 3
REMARK VINA RESULT:      -6.7      5.122      8.009
REMARK  Name = 
REMARK  11 active torsions:
REMARK  status: ('A' for Active; 'I' for Inactive)
REMARK    1  A    between atoms: C_1  and  O_2
REMARK    2  A    between atoms: O_2  and  C_3
REMARK    3  A    between atoms: C_3  and  C_4
REMARK    4  A    between atoms: C_7  and  C_8
REMARK    5  A    between atoms: C_10  and  C_11
REMARK    6  A    between atoms: C_16  and  C_17
REMARK    7  A    between atoms: C_20  and  C_21
REMARK    8  A    between atoms: C_27  and  C_28
REMARK    9  A    between atoms: C_28  and  C_29
REMARK   10  A    between atoms: C_28  and  C_30
REMARK   11  A    between atoms: C_32  and  C_33
REMARK                            x       y       z     vdW  Elec       q    Type
REMARK                         _______ _______ _______ _____ _____    ______ ____
ROOT
ATOM      1  C   UNL     1      -1.111  13.360  21.480  0.00  0.00    +0.000 A 
ATOM      2  C   UNL     1      -0.046  12.782  20.751  0.00  0.00    +0.000 A 
ATOM      3  C   UNL     1      -0.263  11.999  19.590  0.00  0.00    +0.000 A 
ATOM      4  C   UNL     1      -1.587  11.711  19.187  0.00  0.00    +0.000 A 
ATOM      5  C   UNL     1      -2.639  12.285  19.934  0.00  0.00    +0.000 A 
ATOM      6  C   UNL     1      -2.427  13.127  21.037  0.00  0.00    +0.000 A 
ATOM      7  C   UNL     1      -3.643  13.739  21.691  0.00  0.00    +0.000 C 
ENDROOT
BRANCH   3   8
ATOM      8  C   UNL     1       0.951  11.387  18.941  0.00  0.00    +0.000 C 
ATOM      9  O   UNL     1       1.803  12.141  18.477  0.00  0.00    +0.000 OA
ATOM     10  N   UNL     1       1.021   9.991  18.767  0.00  0.00    +0.000 N 
ATOM     11  C   UNL     1       1.984   9.466  17.792  0.00  0.00    +0.000 C 
ATOM     12  C   UNL     1       1.762   7.970  17.557  0.00  0.00    +0.000 C 
ATOM     13  C   UNL     1       2.091   7.167  18.835  0.00  0.00    +0.000 C 
ATOM     14  C   UNL     1       1.749   8.025  20.095  0.00  0.00    +0.000 C 
ATOM     15  C   UNL     1       0.597   9.030  19.793  0.00  0.00    +0.000 C 
BRANCH  13  16
ATOM     16  C   UNL     1       3.448   6.455  18.676  0.00  0.00    +0.000 A 
ATOM     17  C   UNL     1       4.030   5.568  19.594  0.00  0.00    +0.000 A 
ATOM     18  C   UNL     1       5.311   5.003  19.349  0.00  0.00    +0.000 A 
ATOM     19  C   UNL     1       6.041   5.304  18.195  0.00  0.00    +0.000 A 
ATOM     20  C   UNL     1       5.487   6.223  17.293  0.00  0.00    +0.000 A 
ATOM     21  C   UNL     1       4.221   6.783  17.538  0.00  0.00    +0.000 A 
BRANCH  19  22
ATOM     22  C   UNL     1       7.324   4.702  17.920  0.00  0.00    +0.000 C 
ATOM     23  N   UNL     1       8.358   4.220  17.695  0.00  0.00    +0.000 NA
ENDBRANCH  19  22
ENDBRANCH  13  16
ENDBRANCH   3   8
BRANCH   1  27
ATOM     24  C   UNL     1      -1.054  15.167  24.631  0.00  0.00    +0.000 A 
ATOM     25  N   UNL     1       0.038  15.630  24.067  0.00  0.00    +0.000 NA
ATOM     26  N   UNL     1       0.160  15.025  22.843  0.00  0.00    +0.000 NA
ATOM     27  C   UNL     1      -0.856  14.198  22.661  0.00  0.00    +0.000 A 
ATOM     28  N   UNL     1      -1.655  14.283  23.775  0.00  0.00    +0.000 N 
ATOM     29  H   UNL     1      -2.517  13.789  23.946  0.00  0.00    +0.000 HD
BRANCH  24  30
ATOM     30  C   UNL     1      -1.594  15.508  25.967  0.00  0.00    +0.000 C 
BRANCH  30  32
ATOM     31  C   UNL     1      -2.717  17.488  25.370  0.00  0.00    +0.000 C 
ATOM     32  O   UNL     1      -2.863  16.127  25.754  0.00  0.00    +0.000 OA
ENDBRANCH  30  32
ENDBRANCH  24  30
ENDBRANCH   1  27
BRANCH   4  33
ATOM     33  C   UNL     1      -1.957  10.814  18.006  0.00  0.00    +0.000 C 
ATOM     34  C   UNL     1      -3.300  10.110  18.241  0.00  0.00    +0.000 C 
ATOM     35  C   UNL     1      -2.035  11.580  16.669  0.00  0.00    +0.000 C 
ENDBRANCH   4  33
TORSDOF 7
ENDMDL
MODEL 4
REMARK VINA RESULT:      -6.6      4.693      6.368
REMARK  Name = 
REMARK  11 active torsions:
REMARK  status: ('A' for Active; 'I' for Inactive)
REMARK    1  A    between atoms: C_1  and  O_2
REMARK    2  A    between atoms: O_2  and  C_3
REMARK    3  A    between atoms: C_3  and  C_4
REMARK    4  A    between atoms: C_7  and  C_8
REMARK    5  A    between atoms: C_10  and  C_11
REMARK    6  A    between atoms: C_16  and  C_17
REMARK    7  A    between atoms: C_20  and  C_21
REMARK    8  A    between atoms: C_27  and  C_28
REMARK    9  A    between atoms: C_28  and  C_29
REMARK   10  A    between atoms: C_28  and  C_30
REMARK   11  A    between atoms: C_32  and  C_33
REMARK                            x       y       z     vdW  Elec       q    Type
REMARK                         _______ _______ _______ _____ _____    ______ ____
ROOT
ATOM      1  C   UNL     1      -3.588  13.772  21.197  0.00  0.00    +0.000 A 
ATOM      2  C   UNL     1      -2.323  13.137  21.184  0.00  0.00    +0.000 A 
ATOM      3  C   UNL     1      -1.128  13.841  20.896  0.00  0.00    +0.000 A 
ATOM      4  C   UNL     1      -1.199  15.204  20.527  0.00  0.00    +0.000 A 
ATOM      5  C   UNL     1      -2.470  15.819  20.532  0.00  0.00    +0.000 A 
ATOM      6  C   UNL     1      -3.647  15.145  20.894  0.00  0.00    +0.000 A 
ATOM      7  C   UNL     1      -4.926  15.949  20.937  0.00  0.00    +0.000 C 
ENDROOT
BRANCH   3   8
ATOM      8  C   UNL     1       0.145  13.037  20.851  0.00  0.00    +0.000 C 
ATOM      9  O   UNL     1       0.997  13.252  21.711  0.00  0.00    +0.000 OA
ATOM     10  N   UNL     1       0.384  12.166  19.771  0.00  0.00    +0.000 N 
ATOM     11  C   UNL     1       1.762  11.720  19.536  0.00  0.00    +0.000 C 
ATOM     12  C   UNL     1       1.878  10.984  18.199  0.00  0.00    +0.000 C 
ATOM     13  C   UNL     1       1.089   9.656  18.244  0.00  0.00    +0.000 C 
ATOM     14  C   UNL     1      -0.157   9.818  19.172  0.00  0.00    +0.000 C 
ATOM     15  C   UNL     1      -0.650  11.296  19.195  0.00  0.00    +0.000 C 
BRANCH  13  16
ATOM     16  C   UNL     1       2.061   8.469  18.382  0.00  0.00    +0.000 A 
ATOM     17  C   UNL     1       3.019   8.069  17.439  0.00  0.00    +0.000 A 
ATOM     18  C   UNL     1       3.834   6.928  17.668  0.00  0.00    +0.000 A 
ATOM     19  C   UNL     1       3.719   6.160  18.831  0.00  0.00    +0.000 A 
ATOM     20  C   UNL     1       2.735   6.527  19.760  0.00  0.00    +0.000 A 
ATOM     21  C   UNL     1       1.928   7.654  19.530  0.00  0.00    +0.000 A 
BRANCH  19  22
ATOM     22  C   UNL     1       4.573   5.025  19.089  0.00  0.00    +0.000 C 
ATOM     23  N   UNL     1       5.260   4.112  19.301  0.00  0.00    +0.000 NA
ENDBRANCH  19  22
ENDBRANCH  13  16
ENDBRANCH   3   8
BRANCH   1  27
ATOM     24  C   UNL     1      -6.670  11.856  21.365  0.00  0.00    +0.000 A 
ATOM     25  N   UNL     1      -6.452  12.075  22.641  0.00  0.00    +0.000 NA
ATOM     26  N   UNL     1      -5.293  12.800  22.744  0.00  0.00    +0.000 NA
ATOM     27  C   UNL     1      -4.809  13.025  21.535  0.00  0.00    +0.000 A 
ATOM     28  N   UNL     1      -5.675  12.453  20.636  0.00  0.00    +0.000 N 
ATOM     29  H   UNL     1      -5.600  12.455  19.631  0.00  0.00    +0.000 HD
BRANCH  24  30
ATOM     30  C   UNL     1      -7.787  11.099  20.757  0.00  0.00    +0.000 C 
BRANCH  30  32
ATOM     31  C   UNL     1      -7.194   8.999  19.877  0.00  0.00    +0.000 C 
ATOM     32  O   UNL     1      -7.558   9.719  21.047  0.00  0.00    +0.000 OA
ENDBRANCH  30  32
ENDBRANCH  24  30
ENDBRANCH   1  27
BRANCH   4  33
ATOM     33  C   UNL     1       0.003  16.052  20.113  0.00  0.00    +0.000 C 
ATOM     34  C   UNL     1       0.928  16.327  21.307  0.00  0.00    +0.000 C 
ATOM     35  C   UNL     1       0.838  15.405  18.988  0.00  0.00    +0.000 C 
ENDBRANCH   4  33
TORSDOF 7
ENDMDL
MODEL 5
REMARK VINA RESULT:      -6.4      2.662      3.884
REMARK  Name = 
REMARK  11 active torsions:
REMARK  status: ('A' for Active; 'I' for Inactive)
REMARK    1  A    between atoms: C_1  and  O_2
REMARK    2  A    between atoms: O_2  and  C_3
REMARK    3  A    between atoms: C_3  and  C_4
REMARK    4  A    between atoms: C_7  and  C_8
REMARK    5  A    between atoms: C_10  and  C_11
REMARK    6  A    between atoms: C_16  and  C_17
REMARK    7  A    between atoms: C_20  and  C_21
REMARK    8  A    between atoms: C_27  and  C_28
REMARK    9  A    between atoms: C_28  and  C_29
REMARK   10  A    between atoms: C_28  and  C_30
REMARK   11  A    between atoms: C_32  and  C_33
REMARK                            x       y       z     vdW  Elec       q    Type
REMARK                         _______ _______ _______ _____ _____    ______ ____
ROOT
ATOM      1  C   UNL     1      -2.862  11.603  18.787  0.00  0.00    +0.000 A 
ATOM      2  C   UNL     1      -1.844  12.318  19.461  0.00  0.00    +0.000 A 
ATOM      3  C   UNL     1      -0.510  11.846  19.533  0.00  0.00    +0.000 A 
ATOM      4  C   UNL     1      -0.193  10.581  18.988  0.00  0.00    +0.000 A 
ATOM      5  C   UNL     1      -1.223   9.874  18.330  0.00  0.00    +0.000 A 
ATOM      6  C   UNL     1      -2.527  10.374  18.188  0.00  0.00    +0.000 A 
ATOM      7  C   UNL     1      -3.507   9.548  17.387  0.00  0.00    +0.000 C 
ENDROOT
BRANCH   3   8
ATOM      8  C   UNL     1       0.465  12.670  20.334  0.00  0.00    +0.000 C 
ATOM      9  O   UNL     1       0.513  12.491  21.549  0.00  0.00    +0.000 OA
ATOM     10  N   UNL     1       1.192  13.698  19.705  0.00  0.00    +0.000 N 
ATOM     11  C   UNL     1       1.805  14.727  20.553  0.00  0.00    +0.000 C 
ATOM     12  C   UNL     1       2.344  15.883  19.707  0.00  0.00    +0.000 C 
ATOM     13  C   UNL     1       3.526  15.407  18.833  0.00  0.00    +0.000 C 
ATOM     14  C   UNL     1       3.313  13.912  18.434  0.00  0.00    +0.000 C 
ATOM     15  C   UNL     1       1.797  13.558  18.374  0.00  0.00    +0.000 C 
BRANCH  13  16
ATOM     16  C   UNL     1       4.856  15.914  19.424  0.00  0.00    +0.000 A 
ATOM     17  C   UNL     1       5.576  17.039  18.999  0.00  0.00    +0.000 A 
ATOM     18  C   UNL     1       6.816  17.382  19.603  0.00  0.00    +0.000 A 
ATOM     19  C   UNL     1       7.368  16.619  20.636  0.00  0.00    +0.000 A 
ATOM     20  C   UNL     1       6.678  15.468  21.039  0.00  0.00    +0.000 A 
ATOM     21  C   UNL     1       5.453  15.129  20.439  0.00  0.00    +0.000 A 
BRANCH  19  22
ATOM     22  C   UNL     1       8.607  16.985  21.282  0.00  0.00    +0.000 C 
ATOM     23  N   UNL     1       9.604  17.283  21.799  0.00  0.00    +0.000 NA
ENDBRANCH  19  22
ENDBRANCH  13  16
ENDBRANCH   3   8
BRANCH   1  27
ATOM     24  C   UNL     1      -6.126  12.928  17.903  0.00  0.00    +0.000 A 
ATOM     25  N   UNL     1      -6.234  12.872  19.210  0.00  0.00    +0.000 NA
ATOM     26  N   UNL     1      -5.055  12.375  19.702  0.00  0.00    +0.000 NA
ATOM     27  C   UNL     1      -4.231  12.133  18.697  0.00  0.00    +0.000 A 
ATOM     28  N   UNL     1      -4.878  12.494  17.541  0.00  0.00    +0.000 N 
ATOM     29  H   UNL     1      -4.520  12.446  16.601  0.00  0.00    +0.000 HD
BRANCH  24  30
ATOM     30  C   UNL     1      -7.149  13.379  16.932  0.00  0.00    +0.000 C 
BRANCH  30  32
ATOM     31  C   UNL     1      -7.057  15.730  16.947  0.00  0.00    +0.000 C 
ATOM     32  O   UNL     1      -6.627  14.544  16.292  0.00  0.00    +0.000 OA
ENDBRANCH  30  32
ENDBRANCH  24  30
ENDBRANCH   1  27
BRANCH   4  33
ATOM     33  C   UNL     1       1.184   9.923  19.071  0.00  0.00    +0.000 C 
ATOM     34  C   UNL     1       1.238   8.888  20.204  0.00  0.00    +0.000 C 
ATOM     35  C   UNL     1       1.601   9.230  17.758  0.00  0.00    +0.000 C 
ENDBRANCH   4  33
TORSDOF 7
ENDMDL
MODEL 6
REMARK VINA RESULT:      -6.4      4.806      6.839
REMARK  Name = 
REMARK  11 active torsions:
REMARK  status: ('A' for Active; 'I' for Inactive)
REMARK    1  A    between atoms: C_1  and  O_2
REMARK    2  A    between atoms: O_2  and  C_3
REMARK    3  A    between atoms: C_3  and  C_4
REMARK    4  A    between atoms: C_7  and  C_8
REMARK    5  A    between atoms: C_10  and  C_11
REMARK    6  A    between atoms: C_16  and  C_17
REMARK    7  A    between atoms: C_20  and  C_21
REMARK    8  A    between atoms: C_27  and  C_28
REMARK    9  A    between atoms: C_28  and  C_29
REMARK   10  A    between atoms: C_28  and  C_30
REMARK   11  A    between atoms: C_32  and  C_33
REMARK                            x       y       z     vdW  Elec       q    Type
REMARK                         _______ _______ _______ _____ _____    ______ ____
ROOT
ATOM      1  C   UNL     1      -2.854  14.025  21.709  0.00  0.00    +0.000 A 
ATOM      2  C   UNL     1      -1.617  13.364  21.533  0.00  0.00    +0.000 A 
ATOM      3  C   UNL     1      -0.535  13.956  20.836  0.00  0.00    +0.000 A 
ATOM      4  C   UNL     1      -0.716  15.215  20.218  0.00  0.00    +0.000 A 
ATOM      5  C   UNL     1      -1.963  15.856  20.391  0.00  0.00    +0.000 A 
ATOM      6  C   UNL     1      -3.010  15.308  21.149  0.00  0.00    +0.000 A 
ATOM      7  C   UNL     1      -4.257  16.141  21.320  0.00  0.00    +0.000 C 
ENDROOT
BRANCH   3   8
ATOM      8  C   UNL     1       0.708  13.122  20.664  0.00  0.00    +0.000 C 
ATOM      9  O   UNL     1       1.695  13.407  21.338  0.00  0.00    +0.000 OA
ATOM     10  N   UNL     1       0.753  12.135  19.661  0.00  0.00    +0.000 N 
ATOM     11  C   UNL     1       2.069  11.634  19.246  0.00  0.00    +0.000 C 
ATOM     12  C   UNL     1       1.951  10.756  17.998  0.00  0.00    +0.000 C 
ATOM     13  C   UNL     1       1.173   9.460  18.320  0.00  0.00    +0.000 C 
ATOM     14  C   UNL     1       0.106   9.750  19.423  0.00  0.00    +0.000 C 
ATOM     15  C   UNL     1      -0.368  11.234  19.367  0.00  0.00    +0.000 C 
BRANCH  13  16
ATOM     16  C   UNL     1       2.149   8.272  18.421  0.00  0.00    +0.000 A 
ATOM     17  C   UNL     1       3.086   7.885  17.452  0.00  0.00    +0.000 A 
ATOM     18  C   UNL     1       3.907   6.742  17.647  0.00  0.00    +0.000 A 
ATOM     19  C   UNL     1       3.817   5.958  18.801  0.00  0.00    +0.000 A 
ATOM     20  C   UNL     1       2.853   6.311  19.757  0.00  0.00    +0.000 A 
ATOM     21  C   UNL     1       2.041   7.441  19.561  0.00  0.00    +0.000 A 
BRANCH  19  22
ATOM     22  C   UNL     1       4.676   4.820  19.025  0.00  0.00    +0.000 C 
ATOM     23  N   UNL     1       5.369   3.905  19.210  0.00  0.00    +0.000 NA
ENDBRANCH  19  22
ENDBRANCH  13  16
ENDBRANCH   3   8
BRANCH   1  27
ATOM     24  C   UNL     1      -5.958  12.839  23.177  0.00  0.00    +0.000 A 
ATOM     25  N   UNL     1      -5.081  12.214  23.928  0.00  0.00    +0.000 NA
ATOM     26  N   UNL     1      -3.832  12.565  23.484  0.00  0.00    +0.000 NA
ATOM     27  C   UNL     1      -3.948  13.402  22.468  0.00  0.00    +0.000 A 
ATOM     28  N   UNL     1      -5.290  13.610  22.263  0.00  0.00    +0.000 N 
ATOM     29  H   UNL     1      -5.716  14.207  21.571  0.00  0.00    +0.000 HD
BRANCH  24  30
ATOM     30  C   UNL     1      -7.434  12.761  23.259  0.00  0.00    +0.000 C 
BRANCH  30  32
ATOM     31  C   UNL     1      -7.549  11.385  21.353  0.00  0.00    +0.000 C 
ATOM     32  O   UNL     1      -7.917  12.636  21.920  0.00  0.00    +0.000 OA
ENDBRANCH  30  32
ENDBRANCH  24  30
ENDBRANCH   1  27
BRANCH   4  33
ATOM     33  C   UNL     1       0.339  15.922  19.369  0.00  0.00    +0.000 C 
ATOM     34  C   UNL     1      -0.311  16.792  18.284  0.00  0.00    +0.000 C 
ATOM     35  C   UNL     1       1.287  16.810  20.203  0.00  0.00    +0.000 C 
ENDBRANCH   4  33
TORSDOF 7
ENDMDL
MODEL 7
REMARK VINA RESULT:      -6.3      1.021      1.253
REMARK  Name = 
REMARK  11 active torsions:
REMARK  status: ('A' for Active; 'I' for Inactive)
REMARK    1  A    between atoms: C_1  and  O_2
REMARK    2  A    between atoms: O_2  and  C_3
REMARK    3  A    between atoms: C_3  and  C_4
REMARK    4  A    between atoms: C_7  and  C_8
REMARK    5  A    between atoms: C_10  and  C_11
REMARK    6  A    between atoms: C_16  and  C_17
REMARK    7  A    between atoms: C_20  and  C_21
REMARK    8  A    between atoms: C_27  and  C_28
REMARK    9  A    between atoms: C_28  and  C_29
REMARK   10  A    between atoms: C_28  and  C_30
REMARK   11  A    between atoms: C_32  and  C_33
REMARK                            x       y       z     vdW  Elec       q    Type
REMARK                         _______ _______ _______ _____ _____    ______ ____
ROOT
ATOM      1  C   UNL     1      -2.466  12.088  18.773  0.00  0.00    +0.000 A 
ATOM      2  C   UNL     1      -1.066  12.094  18.979  0.00  0.00    +0.000 A 
ATOM      3  C   UNL     1      -0.478  12.615  20.158  0.00  0.00    +0.000 A 
ATOM      4  C   UNL     1      -1.301  13.229  21.129  0.00  0.00    +0.000 A 
ATOM      5  C   UNL     1      -2.695  13.227  20.902  0.00  0.00    +0.000 A 
ATOM      6  C   UNL     1      -3.288  12.640  19.773  0.00  0.00    +0.000 A 
ATOM      7  C   UNL     1      -4.797  12.637  19.700  0.00  0.00    +0.000 C 
ENDROOT
BRANCH   3   8
ATOM      8  C   UNL     1       1.027  12.620  20.227  0.00  0.00    +0.000 C 
ATOM      9  O   UNL     1       1.597  11.573  20.526  0.00  0.00    +0.000 OA
ATOM     10  N   UNL     1       1.729  13.831  20.079  0.00  0.00    +0.000 N 
ATOM     11  C   UNL     1       3.119  13.884  20.548  0.00  0.00    +0.000 C 
ATOM     12  C   UNL     1       3.646  15.322  20.533  0.00  0.00    +0.000 C 
ATOM     13  C   UNL     1       3.751  15.843  19.083  0.00  0.00    +0.000 C 
ATOM     14  C   UNL     1       2.625  15.200  18.212  0.00  0.00    +0.000 C 
ATOM     15  C   UNL     1       1.379  14.847  19.078  0.00  0.00    +0.000 C 
BRANCH  13  16
ATOM     16  C   UNL     1       5.225  15.856  18.632  0.00  0.00    +0.000 A 
ATOM     17  C   UNL     1       5.891  14.826  17.953  0.00  0.00    +0.000 A 
ATOM     18  C   UNL     1       7.269  14.942  17.625  0.00  0.00    +0.000 A 
ATOM     19  C   UNL     1       8.015  16.076  17.963  0.00  0.00    +0.000 A 
ATOM     20  C   UNL     1       7.369  17.091  18.681  0.00  0.00    +0.000 A 
ATOM     21  C   UNL     1       6.006  16.974  19.007  0.00  0.00    +0.000 A 
BRANCH  19  22
ATOM     22  C   UNL     1       9.404  16.218  17.597  0.00  0.00    +0.000 C 
ATOM     23  N   UNL     1      10.524  16.332  17.306  0.00  0.00    +0.000 NA
ENDBRANCH  19  22
ENDBRANCH  13  16
ENDBRANCH   3   8
BRANCH   1  27
ATOM     24  C   UNL     1      -3.289  10.702  15.518  0.00  0.00    +0.000 A 
ATOM     25  N   UNL     1      -4.468  10.679  16.096  0.00  0.00    +0.000 NA
ATOM     26  N   UNL     1      -4.318  11.179  17.364  0.00  0.00    +0.000 NA
ATOM     27  C   UNL     1      -3.052  11.508  17.556  0.00  0.00    +0.000 A 
ATOM     28  N   UNL     1      -2.378  11.234  16.391  0.00  0.00    +0.000 N 
ATOM     29  H   UNL     1      -1.399  11.383  16.204  0.00  0.00    +0.000 HD
BRANCH  24  30
ATOM     30  C   UNL     1      -2.945  10.243  14.153  0.00  0.00    +0.000 C 
BRANCH  30  32
ATOM     31  C   UNL     1      -3.967   9.700  12.105  0.00  0.00    +0.000 C 
ATOM     32  O   UNL     1      -4.178   9.979  13.482  0.00  0.00    +0.000 OA
ENDBRANCH  30  32
ENDBRANCH  24  30
ENDBRANCH   1  27
BRANCH   4  33
ATOM     33  C   UNL     1      -0.786  13.901  22.401  0.00  0.00    +0.000 C 
ATOM     34  C   UNL     1      -0.649  15.418  22.212  0.00  0.00    +0.000 C 
ATOM     35  C   UNL     1      -1.686  13.642  23.627  0.00  0.00    +0.000 C 
ENDBRANCH   4  33
TORSDOF 7
ENDMDL
MODEL 8
REMARK VINA RESULT:      -6.2      7.440      9.074
REMARK  Name = 
REMARK  11 active torsions:
REMARK  status: ('A' for Active; 'I' for Inactive)
REMARK    1  A    between atoms: C_1  and  O_2
REMARK    2  A    between atoms: O_2  and  C_3
REMARK    3  A    between atoms: C_3  and  C_4
REMARK    4  A    between atoms: C_7  and  C_8
REMARK    5  A    between atoms: C_10  and  C_11
REMARK    6  A    between atoms: C_16  and  C_17
REMARK    7  A    between atoms: C_20  and  C_21
REMARK    8  A    between atoms: C_27  and  C_28
REMARK    9  A    between atoms: C_28  and  C_29
REMARK   10  A    between atoms: C_28  and  C_30
REMARK   11  A    between atoms: C_32  and  C_33
REMARK                            x       y       z     vdW  Elec       q    Type
REMARK                         _______ _______ _______ _____ _____    ______ ____
ROOT
ATOM      1  C   UNL     1       4.356   4.729  17.354  0.00  0.00    +0.000 A 
ATOM      2  C   UNL     1       3.865   5.810  18.122  0.00  0.00    +0.000 A 
ATOM      3  C   UNL     1       2.887   5.638  19.132  0.00  0.00    +0.000 A 
ATOM      4  C   UNL     1       2.314   4.360  19.329  0.00  0.00    +0.000 A 
ATOM      5  C   UNL     1       2.806   3.293  18.544  0.00  0.00    +0.000 A 
ATOM      6  C   UNL     1       3.832   3.446  17.598  0.00  0.00    +0.000 A 
ATOM      7  C   UNL     1       4.318   2.203  16.890  0.00  0.00    +0.000 C 
ENDROOT
BRANCH   3   8
ATOM      8  C   UNL     1       2.402   6.879  19.835  0.00  0.00    +0.000 C 
ATOM      9  O   UNL     1       2.420   6.893  21.063  0.00  0.00    +0.000 OA
ATOM     10  N   UNL     1       1.828   7.925  19.088  0.00  0.00    +0.000 N 
ATOM     11  C   UNL     1       1.009   8.912  19.801  0.00  0.00    +0.000 C 
ATOM     12  C   UNL     1       0.276   9.827  18.817  0.00  0.00    +0.000 C 
ATOM     13  C   UNL     1       1.283  10.707  18.044  0.00  0.00    +0.000 C 
ATOM     14  C   UNL     1       2.620   9.924  17.848  0.00  0.00    +0.000 C 
ATOM     15  C   UNL     1       2.368   8.387  17.803  0.00  0.00    +0.000 C 
BRANCH  13  16
ATOM     16  C   UNL     1       1.253  12.148  18.591  0.00  0.00    +0.000 A 
ATOM     17  C   UNL     1       0.214  12.730  19.331  0.00  0.00    +0.000 A 
ATOM     18  C   UNL     1       0.289  14.087  19.748  0.00  0.00    +0.000 A 
ATOM     19  C   UNL     1       1.389  14.894  19.439  0.00  0.00    +0.000 A 
ATOM     20  C   UNL     1       2.412  14.333  18.662  0.00  0.00    +0.000 A 
ATOM     21  C   UNL     1       2.335  12.992  18.249  0.00  0.00    +0.000 A 
BRANCH  19  22
ATOM     22  C   UNL     1       1.490  16.260  19.895  0.00  0.00    +0.000 C 
ATOM     23  N   UNL     1       1.575  17.360  20.259  0.00  0.00    +0.000 NA
ENDBRANCH  19  22
ENDBRANCH  13  16
ENDBRANCH   3   8
BRANCH   1  27
ATOM     24  C   UNL     1       6.553   4.820  14.462  0.00  0.00    +0.000 A 
ATOM     25  N   UNL     1       7.219   5.586  15.296  0.00  0.00    +0.000 NA
ATOM     26  N   UNL     1       6.498   5.655  16.460  0.00  0.00    +0.000 NA
ATOM     27  C   UNL     1       5.399   4.931  16.336  0.00  0.00    +0.000 A 
ATOM     28  N   UNL     1       5.417   4.372  15.082  0.00  0.00    +0.000 N 
ATOM     29  H   UNL     1       4.729   3.755  14.679  0.00  0.00    +0.000 HD
BRANCH  24  30
ATOM     30  C   UNL     1       6.921   4.465  13.073  0.00  0.00    +0.000 C 
BRANCH  30  32
ATOM     31  C   UNL     1       6.194   2.551  11.915  0.00  0.00    +0.000 C 
ATOM     32  O   UNL     1       5.802   3.780  12.510  0.00  0.00    +0.000 OA
ENDBRANCH  30  32
ENDBRANCH  24  30
ENDBRANCH   1  27
BRANCH   4  33
ATOM     33  C   UNL     1       1.195   4.057  20.324  0.00  0.00    +0.000 C 
ATOM     34  C   UNL     1       0.163   3.092  19.724  0.00  0.00    +0.000 C 
ATOM     35  C   UNL     1       1.711   3.458  21.648  0.00  0.00    +0.000 C 
ENDBRANCH   4  33
TORSDOF 7
ENDMDL
MODEL 9
REMARK VINA RESULT:      -6.2      3.029      5.591
REMARK  Name = 
REMARK  11 active torsions:
REMARK  status: ('A' for Active; 'I' for Inactive)
REMARK    1  A    between atoms: C_1  and  O_2
REMARK    2  A    between atoms: O_2  and  C_3
REMARK    3  A    between atoms: C_3  and  C_4
REMARK    4  A    between atoms: C_7  and  C_8
REMARK    5  A    between atoms: C_10  and  C_11
REMARK    6  A    between atoms: C_16  and  C_17
REMARK    7  A    between atoms: C_20  and  C_21
REMARK    8  A    between atoms: C_27  and  C_28
REMARK    9  A    between atoms: C_28  and  C_29
REMARK   10  A    between atoms: C_28  and  C_30
REMARK   11  A    between atoms: C_32  and  C_33
REMARK                            x       y       z     vdW  Elec       q    Type
REMARK                         _______ _______ _______ _____ _____    ______ ____
ROOT
ATOM      1  C   UNL     1      -4.132  12.664  20.673  0.00  0.00    +0.000 A 
ATOM      2  C   UNL     1      -2.718  12.643  20.664  0.00  0.00    +0.000 A 
ATOM      3  C   UNL     1      -1.975  12.211  19.538  0.00  0.00    +0.000 A 
ATOM      4  C   UNL     1      -2.661  11.703  18.410  0.00  0.00    +0.000 A 
ATOM      5  C   UNL     1      -4.072  11.719  18.440  0.00  0.00    +0.000 A 
ATOM      6  C   UNL     1      -4.812  12.220  19.523  0.00  0.00    +0.000 A 
ATOM      7  C   UNL     1      -6.316  12.253  19.384  0.00  0.00    +0.000 C 
ENDROOT
BRANCH   3   8
ATOM      8  C   UNL     1      -0.476  12.176  19.679  0.00  0.00    +0.000 C 
ATOM      9  O   UNL     1       0.069  11.083  19.813  0.00  0.00    +0.000 OA
ATOM     10  N   UNL     1       0.244  13.382  19.782  0.00  0.00    +0.000 N 
ATOM     11  C   UNL     1       1.608  13.326  20.319  0.00  0.00    +0.000 C 
ATOM     12  C   UNL     1       2.149  14.734  20.585  0.00  0.00    +0.000 C 
ATOM     13  C   UNL     1       2.332  15.502  19.257  0.00  0.00    +0.000 C 
ATOM     14  C   UNL     1       1.245  15.043  18.233  0.00  0.00    +0.000 C 
ATOM     15  C   UNL     1      -0.046  14.565  18.962  0.00  0.00    +0.000 C 
BRANCH  13  16
ATOM     16  C   UNL     1       3.826  15.567  18.887  0.00  0.00    +0.000 A 
ATOM     17  C   UNL     1       4.563  14.565  18.241  0.00  0.00    +0.000 A 
ATOM     18  C   UNL     1       5.952  14.731  17.988  0.00  0.00    +0.000 A 
ATOM     19  C   UNL     1       6.639  15.887  18.371  0.00  0.00    +0.000 A 
ATOM     20  C   UNL     1       5.920  16.876  19.056  0.00  0.00    +0.000 A 
ATOM     21  C   UNL     1       4.547  16.710  19.307  0.00  0.00    +0.000 A 
BRANCH  19  22
ATOM     22  C   UNL     1       8.040  16.080  18.080  0.00  0.00    +0.000 C 
ATOM     23  N   UNL     1       9.169  16.234  17.851  0.00  0.00    +0.000 NA
ENDBRANCH  19  22
ENDBRANCH  13  16
ENDBRANCH   3   8
BRANCH   1  27
ATOM     24  C   UNL     1      -5.806  14.478  23.337  0.00  0.00    +0.000 A 
ATOM     25  N   UNL     1      -6.053  13.239  23.696  0.00  0.00    +0.000 NA
ATOM     26  N   UNL     1      -5.477  12.416  22.764  0.00  0.00    +0.000 NA
ATOM     27  C   UNL     1      -4.878  13.151  21.843  0.00  0.00    +0.000 A 
ATOM     28  N   UNL     1      -5.054  14.467  22.193  0.00  0.00    +0.000 N 
ATOM     29  H   UNL     1      -4.709  15.279  21.705  0.00  0.00    +0.000 HD
BRANCH  24  30
ATOM     30  C   UNL     1      -6.242  15.719  24.018  0.00  0.00    +0.000 C 
BRANCH  30  32
ATOM     31  C   UNL     1      -4.501  17.020  24.917  0.00  0.00    +0.000 C 
ATOM     32  O   UNL     1      -5.248  16.708  23.750  0.00  0.00    +0.000 OA
ENDBRANCH  30  32
ENDBRANCH  24  30
ENDBRANCH   1  27
BRANCH   4  33
ATOM     33  C   UNL     1      -1.979  11.131  17.168  0.00  0.00    +0.000 C 
ATOM     34  C   UNL     1      -1.696   9.631  17.330  0.00  0.00    +0.000 C 
ATOM     35  C   UNL     1      -2.803  11.336  15.880  0.00  0.00    +0.000 C 
ENDBRANCH   4  33
TORSDOF 7
ENDMDL
