MODEL 1
REMARK VINA RESULT:      -8.3      0.000      0.000
REMARK  Name = 
REMARK  9 active torsions:
REMARK  status: ('A' for Active; 'I' for Inactive)
REMARK    1  A    between atoms: C_1  and  C_2
REMARK    2  A    between atoms: C_5  and  C_6
REMARK    3  A    between atoms: C_6  and  C_9
REMARK    4  A    between atoms: N_7  and  O_8
REMARK    5  A    between atoms: C_13  and  N_14
REMARK    6  A    between atoms: N_14  and  S_15
REMARK    7  A    between atoms: S_15  and  N_18
REMARK    8  A    between atoms: N_18  and  C_19
REMARK    9  A    between atoms: N_18  and  C_20
REMARK                            x       y       z     vdW  Elec       q    Type
REMARK                         _______ _______ _______ _____ _____    ______ ____
ROOT
ATOM      1  C   UNL     1       4.978   5.480  18.183  0.00  0.00    +0.000 A 
ATOM      2  C   UNL     1       4.283   6.522  17.555  0.00  0.00    +0.000 A 
ATOM      3  C   UNL     1       3.066   6.974  18.076  0.00  0.00    +0.000 A 
ATOM      4  C   UNL     1       2.537   6.399  19.236  0.00  0.00    +0.000 A 
ATOM      5  C   UNL     1       3.224   5.362  19.869  0.00  0.00    +0.000 A 
ATOM      6  C   UNL     1       4.455   4.930  19.365  0.00  0.00    +0.000 A 
ENDROOT
BRANCH   1   7
ATOM      7  C   UNL     1       6.259   4.911  17.608  0.00  0.00    +0.000 C 
ATOM      8  N   UNL     1       7.217   4.692  18.470  0.00  0.00    +0.000 NA
BRANCH   7  13
ATOM      9  C   UNL     1       6.630   3.729  11.897  0.00  0.00    +0.000 C 
ATOM     10  C   UNL     1       6.529   4.053  13.358  0.00  0.00    +0.000 A 
ATOM     11  C   UNL     1       7.366   5.003  13.948  0.00  0.00    +0.000 A 
ATOM     12  C   UNL     1       7.250   5.304  15.310  0.00  0.00    +0.000 A 
ATOM     13  C   UNL     1       6.330   4.623  16.124  0.00  0.00    +0.000 A 
ATOM     14  C   UNL     1       5.505   3.662  15.526  0.00  0.00    +0.000 A 
ATOM     15  C   UNL     1       5.585   3.397  14.153  0.00  0.00    +0.000 A 
ENDBRANCH   7  13
BRANCH   8  16
ATOM     16  O   UNL     1       8.339   4.060  17.932  0.00  0.00    +0.000 OA
ATOM     17  H   UNL     1       8.182   3.124  18.153  0.00  0.00    +0.000 HD
ENDBRANCH   8  16
ENDBRANCH   1   7
BRANCH   5  18
ATOM     18  N   UNL     1       2.693   4.710  21.029  0.00  0.00    +0.000 N 
ATOM     19  H   UNL     1       3.248   4.878  21.870  0.00  0.00    +0.000 HD
BRANCH  18  20
ATOM     20  S   UNL     1       2.488   3.040  20.924  0.00  0.00    +0.000 S 
ATOM     21  O   UNL     1       3.724   2.360  21.248  0.00  0.00    +0.000 OA
ATOM     22  O   UNL     1       1.245   2.727  21.600  0.00  0.00    +0.000 OA
BRANCH  20  23
ATOM     23  N   UNL     1       2.233   2.859  19.255  0.00  0.00    +0.000 NA
ATOM     24  C   UNL     1       3.047   1.803  18.605  0.00  0.00    +0.000 C 
ATOM     25  C   UNL     1       0.793   2.668  18.920  0.00  0.00    +0.000 C 
ENDBRANCH  20  23
ENDBRANCH  18  20
ENDBRANCH   5  18
TORSDOF 6
ENDMDL
MODEL 2
REMARK VINA RESULT:      -8.2      0.065      1.005
REMARK  Name = 
REMARK  9 active torsions:
REMARK  status: ('A' for Active; 'I' for Inactive)
REMARK    1  A    between atoms: C_1  and  C_2
REMARK    2  A    between atoms: C_5  and  C_6
REMARK    3  A    between atoms: C_6  and  C_9
REMARK    4  A    between atoms: N_7  and  O_8
REMARK    5  A    between atoms: C_13  and  N_14
REMARK    6  A    between atoms: N_14  and  S_15
REMARK    7  A    between atoms: S_15  and  N_18
REMARK    8  A    between atoms: N_18  and  C_19
REMARK    9  A    between atoms: N_18  and  C_20
REMARK                            x       y       z     vdW  Elec       q    Type
REMARK                         _______ _______ _______ _____ _____    ______ ____
ROOT
ATOM      1  C   UNL     1       5.044   5.488  18.172  0.00  0.00    +0.000 A 
ATOM      2  C   UNL     1       4.366   6.532  17.531  0.00  0.00    +0.000 A 
ATOM      3  C   UNL     1       3.144   6.995  18.032  0.00  0.00    +0.000 A 
ATOM      4  C   UNL     1       2.593   6.427  19.185  0.00  0.00    +0.000 A 
ATOM      5  C   UNL     1       3.263   5.387  19.831  0.00  0.00    +0.000 A 
ATOM      6  C   UNL     1       4.498   4.944  19.347  0.00  0.00    +0.000 A 
ENDROOT
BRANCH   1   7
ATOM      7  C   UNL     1       6.329   4.907  17.619  0.00  0.00    +0.000 C 
ATOM      8  N   UNL     1       7.279   4.702  18.493  0.00  0.00    +0.000 NA
BRANCH   7  13
ATOM      9  C   UNL     1       6.559   3.768  11.892  0.00  0.00    +0.000 C 
ATOM     10  C   UNL     1       6.506   4.040  13.366  0.00  0.00    +0.000 A 
ATOM     11  C   UNL     1       5.609   3.363  14.195  0.00  0.00    +0.000 A 
ATOM     12  C   UNL     1       5.581   3.617  15.571  0.00  0.00    +0.000 A 
ATOM     13  C   UNL     1       6.414   4.594  16.141  0.00  0.00    +0.000 A 
ATOM     14  C   UNL     1       7.301   5.278  15.299  0.00  0.00    +0.000 A 
ATOM     15  C   UNL     1       7.365   4.988  13.931  0.00  0.00    +0.000 A 
ENDBRANCH   7  13
BRANCH   8  16
ATOM     16  O   UNL     1       8.406   4.060  17.977  0.00  0.00    +0.000 OA
ATOM     17  H   UNL     1       8.281   4.156  17.015  0.00  0.00    +0.000 HD
ENDBRANCH   8  16
ENDBRANCH   1   7
BRANCH   5  18
ATOM     18  N   UNL     1       2.709   4.742  20.985  0.00  0.00    +0.000 N 
ATOM     19  H   UNL     1       3.245   4.919  21.836  0.00  0.00    +0.000 HD
BRANCH  18  20
ATOM     20  S   UNL     1       2.512   3.070  20.888  0.00  0.00    +0.000 S 
ATOM     21  O   UNL     1       3.753   2.399  21.210  0.00  0.00    +0.000 OA
ATOM     22  O   UNL     1       1.274   2.755  21.572  0.00  0.00    +0.000 OA
BRANCH  20  23
ATOM     23  N   UNL     1       2.251   2.880  19.221  0.00  0.00    +0.000 NA
ATOM     24  C   UNL     1       3.055   1.814  18.576  0.00  0.00    +0.000 C 
ATOM     25  C   UNL     1       0.809   2.697  18.892  0.00  0.00    +0.000 C 
ENDBRANCH  20  23
ENDBRANCH  18  20
ENDBRANCH   5  18
TORSDOF 6
ENDMDL
MODEL 3
REMARK VINA RESULT:      -7.7      1.276      1.798
REMARK  Name = 
REMARK  9 active torsions:
REMARK  status: ('A' for Active; 'I' for Inactive)
REMARK    1  A    between atoms: C_1  and  C_2
REMARK    2  A    between atoms: C_5  and  C_6
REMARK    3  A    between atoms: C_6  and  C_9
REMARK    4  A    between atoms: N_7  and  O_8
REMARK    5  A    between atoms: C_13  and  N_14
REMARK    6  A    between atoms: N_14  and  S_15
REMARK    7  A    between atoms: S_15  and  N_18
REMARK    8  A    between atoms: N_18  and  C_19
REMARK    9  A    between atoms: N_18  and  C_20
REMARK                            x       y       z     vdW  Elec       q    Type
REMARK                         _______ _______ _______ _____ _____    ______ ____
ROOT
ATOM      1  C   UNL     1       5.121   5.680  17.720  0.00  0.00    +0.000 A 
ATOM      2  C   UNL     1       4.702   6.915  17.210  0.00  0.00    +0.000 A 
ATOM      3  C   UNL     1       3.483   7.470  17.615  0.00  0.00    +0.000 A 
ATOM      4  C   UNL     1       2.675   6.801  18.541  0.00  0.00    +0.000 A 
ATOM      5  C   UNL     1       3.086   5.571  19.055  0.00  0.00    +0.000 A 
ATOM      6  C   UNL     1       4.318   5.030  18.673  0.00  0.00    +0.000 A 
ENDROOT
BRANCH   1   7
ATOM      7  C   UNL     1       6.396   5.010  17.250  0.00  0.00    +0.000 C 
ATOM      8  N   UNL     1       7.269   4.738  18.184  0.00  0.00    +0.000 NA
BRANCH   7  13
ATOM      9  C   UNL     1       6.919   3.849  11.547  0.00  0.00    +0.000 C 
ATOM     10  C   UNL     1       6.791   4.126  13.015  0.00  0.00    +0.000 A 
ATOM     11  C   UNL     1       5.859   3.445  13.802  0.00  0.00    +0.000 A 
ATOM     12  C   UNL     1       5.762   3.705  15.174  0.00  0.00    +0.000 A 
ATOM     13  C   UNL     1       6.556   4.691  15.779  0.00  0.00    +0.000 A 
ATOM     14  C   UNL     1       7.478   5.379  14.980  0.00  0.00    +0.000 A 
ATOM     15  C   UNL     1       7.612   5.084  13.618  0.00  0.00    +0.000 A 
ENDBRANCH   7  13
BRANCH   8  16
ATOM     16  O   UNL     1       8.379   4.018  17.741  0.00  0.00    +0.000 OA
ATOM     17  H   UNL     1       7.976   3.333  17.177  0.00  0.00    +0.000 HD
ENDBRANCH   8  16
ENDBRANCH   1   7
BRANCH   5  18
ATOM     18  N   UNL     1       2.266   4.829  19.965  0.00  0.00    +0.000 N 
ATOM     19  H   UNL     1       2.794   4.430  20.743  0.00  0.00    +0.000 HD
BRANCH  18  20
ATOM     20  S   UNL     1       1.368   3.563  19.306  0.00  0.00    +0.000 S 
ATOM     21  O   UNL     1       0.121   3.404  20.023  0.00  0.00    +0.000 OA
ATOM     22  O   UNL     1       1.405   3.729  17.866  0.00  0.00    +0.000 OA
BRANCH  20  23
ATOM     23  N   UNL     1       2.353   2.238  19.704  0.00  0.00    +0.000 NA
ATOM     24  C   UNL     1       3.240   1.764  18.614  0.00  0.00    +0.000 C 
ATOM     25  C   UNL     1       3.151   2.478  20.940  0.00  0.00    +0.000 C 
ENDBRANCH  20  23
ENDBRANCH  18  20
ENDBRANCH   5  18
TORSDOF 6
ENDMDL
MODEL 4
REMARK VINA RESULT:      -7.4      3.969      7.558
REMARK  Name = 
REMARK  9 active torsions:
REMARK  status: ('A' for Active; 'I' for Inactive)
REMARK    1  A    between atoms: C_1  and  C_2
REMARK    2  A    between atoms: C_5  and  C_6
REMARK    3  A    between atoms: C_6  and  C_9
REMARK    4  A    between atoms: N_7  and  O_8
REMARK    5  A    between atoms: C_13  and  N_14
REMARK    6  A    between atoms: N_14  and  S_15
REMARK    7  A    between atoms: S_15  and  N_18
REMARK    8  A    between atoms: N_18  and  C_19
REMARK    9  A    between atoms: N_18  and  C_20
REMARK                            x       y       z     vdW  Elec       q    Type
REMARK                         _______ _______ _______ _____ _____    ______ ____
ROOT
ATOM      1  C   UNL     1       2.622   6.752  18.122  0.00  0.00    +0.000 A 
ATOM      2  C   UNL     1       1.680   5.734  17.926  0.00  0.00    +0.000 A 
ATOM      3  C   UNL     1       2.097   4.413  17.734  0.00  0.00    +0.000 A 
ATOM      4  C   UNL     1       3.458   4.093  17.746  0.00  0.00    +0.000 A 
ATOM      5  C   UNL     1       4.403   5.100  17.942  0.00  0.00    +0.000 A 
ATOM      6  C   UNL     1       3.986   6.417  18.164  0.00  0.00    +0.000 A 
ENDROOT
BRANCH   1   7
ATOM      7  C   UNL     1       2.216   8.206  18.258  0.00  0.00    +0.000 C 
ATOM      8  N   UNL     1       2.519   8.975  17.245  0.00  0.00    +0.000 NA
BRANCH   7  13
ATOM      9  C   UNL     1      -0.678   9.846  23.061  0.00  0.00    +0.000 C 
ATOM     10  C   UNL     1       0.073   9.446  21.827  0.00  0.00    +0.000 A 
ATOM     11  C   UNL     1      -0.191  10.044  20.593  0.00  0.00    +0.000 A 
ATOM     12  C   UNL     1       0.528   9.669  19.452  0.00  0.00    +0.000 A 
ATOM     13  C   UNL     1       1.491   8.648  19.510  0.00  0.00    +0.000 A 
ATOM     14  C   UNL     1       1.739   8.044  20.750  0.00  0.00    +0.000 A 
ATOM     15  C   UNL     1       1.056   8.454  21.901  0.00  0.00    +0.000 A 
ENDBRANCH   7  13
BRANCH   8  16
ATOM     16  O   UNL     1       2.031  10.277  17.347  0.00  0.00    +0.000 OA
ATOM     17  H   UNL     1       2.022  10.425  18.311  0.00  0.00    +0.000 HD
ENDBRANCH   8  16
ENDBRANCH   1   7
BRANCH   5  18
ATOM     18  N   UNL     1       5.809   4.824  17.910  0.00  0.00    +0.000 N 
ATOM     19  H   UNL     1       6.285   5.079  18.777  0.00  0.00    +0.000 HD
BRANCH  18  20
ATOM     20  S   UNL     1       6.687   5.541  16.661  0.00  0.00    +0.000 S 
ATOM     21  O   UNL     1       7.476   4.546  15.966  0.00  0.00    +0.000 OA
ATOM     22  O   UNL     1       5.773   6.418  15.958  0.00  0.00    +0.000 OA
BRANCH  20  23
ATOM     23  N   UNL     1       7.762   6.510  17.548  0.00  0.00    +0.000 NA
ATOM     24  C   UNL     1       7.507   7.969  17.468  0.00  0.00    +0.000 C 
ATOM     25  C   UNL     1       7.857   6.089  18.975  0.00  0.00    +0.000 C 
ENDBRANCH  20  23
ENDBRANCH  18  20
ENDBRANCH   5  18
TORSDOF 6
ENDMDL
MODEL 5
REMARK VINA RESULT:      -7.4      1.567      1.979
REMARK  Name = 
REMARK  9 active torsions:
REMARK  status: ('A' for Active; 'I' for Inactive)
REMARK    1  A    between atoms: C_1  and  C_2
REMARK    2  A    between atoms: C_5  and  C_6
REMARK    3  A    between atoms: C_6  and  C_9
REMARK    4  A    between atoms: N_7  and  O_8
REMARK    5  A    between atoms: C_13  and  N_14
REMARK    6  A    between atoms: N_14  and  S_15
REMARK    7  A    between atoms: S_15  and  N_18
REMARK    8  A    between atoms: N_18  and  C_19
REMARK    9  A    between atoms: N_18  and  C_20
REMARK                            x       y       z     vdW  Elec       q    Type
REMARK                         _______ _______ _______ _____ _____    ______ ____
ROOT
ATOM      1  C   UNL     1       4.821   5.383  17.490  0.00  0.00    +0.000 A 
ATOM      2  C   UNL     1       4.627   6.725  17.843  0.00  0.00    +0.000 A 
ATOM      3  C   UNL     1       3.352   7.189  18.183  0.00  0.00    +0.000 A 
ATOM      4  C   UNL     1       2.259   6.316  18.185  0.00  0.00    +0.000 A 
ATOM      5  C   UNL     1       2.444   4.977  17.836  0.00  0.00    +0.000 A 
ATOM      6  C   UNL     1       3.723   4.506  17.525  0.00  0.00    +0.000 A 
ENDROOT
BRANCH   1   7
ATOM      7  C   UNL     1       6.170   4.858  17.043  0.00  0.00    +0.000 C 
ATOM      8  N   UNL     1       7.023   4.602  17.999  0.00  0.00    +0.000 NA
BRANCH   7  13
ATOM      9  C   UNL     1       7.234   3.994  11.362  0.00  0.00    +0.000 C 
ATOM     10  C   UNL     1       6.954   4.236  12.815  0.00  0.00    +0.000 A 
ATOM     11  C   UNL     1       7.668   5.194  13.539  0.00  0.00    +0.000 A 
ATOM     12  C   UNL     1       7.386   5.418  14.892  0.00  0.00    +0.000 A 
ATOM     13  C   UNL     1       6.420   4.652  15.564  0.00  0.00    +0.000 A 
ATOM     14  C   UNL     1       5.720   3.684  14.833  0.00  0.00    +0.000 A 
ATOM     15  C   UNL     1       5.965   3.494  13.468  0.00  0.00    +0.000 A 
ENDBRANCH   7  13
BRANCH   8  16
ATOM     16  O   UNL     1       8.211   4.012  17.567  0.00  0.00    +0.000 OA
ATOM     17  H   UNL     1       7.919   3.484  16.801  0.00  0.00    +0.000 HD
ENDBRANCH   8  16
ENDBRANCH   1   7
BRANCH   5  18
ATOM     18  N   UNL     1       1.343   4.061  17.775  0.00  0.00    +0.000 N 
ATOM     19  H   UNL     1       0.467   4.468  18.106  0.00  0.00    +0.000 HD
BRANCH  18  20
ATOM     20  S   UNL     1       1.531   2.605  18.605  0.00  0.00    +0.000 S 
ATOM     21  O   UNL     1       0.239   2.028  18.906  0.00  0.00    +0.000 OA
ATOM     22  O   UNL     1       2.559   1.857  17.909  0.00  0.00    +0.000 OA
BRANCH  20  23
ATOM     23  N   UNL     1       2.191   3.160  20.068  0.00  0.00    +0.000 NA
ATOM     24  C   UNL     1       1.281   3.088  21.236  0.00  0.00    +0.000 C 
ATOM     25  C   UNL     1       3.486   2.496  20.392  0.00  0.00    +0.000 C 
ENDBRANCH  20  23
ENDBRANCH  18  20
ENDBRANCH   5  18
TORSDOF 6
ENDMDL
MODEL 6
REMARK VINA RESULT:      -7.3      1.480      1.694
REMARK  Name = 
REMARK  9 active torsions:
REMARK  status: ('A' for Active; 'I' for Inactive)
REMARK    1  A    between atoms: C_1  and  C_2
REMARK    2  A    between atoms: C_5  and  C_6
REMARK    3  A    between atoms: C_6  and  C_9
REMARK    4  A    between atoms: N_7  and  O_8
REMARK    5  A    between atoms: C_13  and  N_14
REMARK    6  A    between atoms: N_14  and  S_15
REMARK    7  A    between atoms: S_15  and  N_18
REMARK    8  A    between atoms: N_18  and  C_19
REMARK    9  A    between atoms: N_18  and  C_20
REMARK                            x       y       z     vdW  Elec       q    Type
REMARK                         _______ _______ _______ _____ _____    ______ ____
ROOT
ATOM      1  C   UNL     1       4.860   5.514  17.318  0.00  0.00    +0.000 A 
ATOM      2  C   UNL     1       4.659   6.888  17.501  0.00  0.00    +0.000 A 
ATOM      3  C   UNL     1       3.393   7.378  17.839  0.00  0.00    +0.000 A 
ATOM      4  C   UNL     1       2.318   6.500  18.009  0.00  0.00    +0.000 A 
ATOM      5  C   UNL     1       2.510   5.130  17.831  0.00  0.00    +0.000 A 
ATOM      6  C   UNL     1       3.782   4.637  17.522  0.00  0.00    +0.000 A 
ENDROOT
BRANCH   1   7
ATOM      7  C   UNL     1       6.196   4.951  16.878  0.00  0.00    +0.000 C 
ATOM      8  N   UNL     1       7.046   4.695  17.838  0.00  0.00    +0.000 NA
BRANCH   7  13
ATOM      9  C   UNL     1       7.223   3.949  11.214  0.00  0.00    +0.000 C 
ATOM     10  C   UNL     1       6.954   4.227  12.662  0.00  0.00    +0.000 A 
ATOM     11  C   UNL     1       7.708   5.164  13.372  0.00  0.00    +0.000 A 
ATOM     12  C   UNL     1       7.436   5.423  14.720  0.00  0.00    +0.000 A 
ATOM     13  C   UNL     1       6.438   4.710  15.404  0.00  0.00    +0.000 A 
ATOM     14  C   UNL     1       5.696   3.761  14.688  0.00  0.00    +0.000 A 
ATOM     15  C   UNL     1       5.934   3.539  13.326  0.00  0.00    +0.000 A 
ENDBRANCH   7  13
BRANCH   8  16
ATOM     16  O   UNL     1       8.219   4.070  17.414  0.00  0.00    +0.000 OA
ATOM     17  H   UNL     1       8.006   3.820  16.497  0.00  0.00    +0.000 HD
ENDBRANCH   8  16
ENDBRANCH   1   7
BRANCH   5  18
ATOM     18  N   UNL     1       1.424   4.201  17.944  0.00  0.00    +0.000 N 
ATOM     19  H   UNL     1       0.530   4.595  17.650  0.00  0.00    +0.000 HD
BRANCH  18  20
ATOM     20  S   UNL     1       1.166   3.530  19.470  0.00  0.00    +0.000 S 
ATOM     21  O   UNL     1       0.959   4.575  20.450  0.00  0.00    +0.000 OA
ATOM     22  O   UNL     1       0.218   2.448  19.296  0.00  0.00    +0.000 OA
BRANCH  20  23
ATOM     23  N   UNL     1       2.690   2.845  19.774  0.00  0.00    +0.000 NA
ATOM     24  C   UNL     1       2.987   2.578  21.202  0.00  0.00    +0.000 C 
ATOM     25  C   UNL     1       2.927   1.614  18.968  0.00  0.00    +0.000 C 
ENDBRANCH  20  23
ENDBRANCH  18  20
ENDBRANCH   5  18
TORSDOF 6
ENDMDL
MODEL 7
REMARK VINA RESULT:      -7.3      4.591      6.074
REMARK  Name = 
REMARK  9 active torsions:
REMARK  status: ('A' for Active; 'I' for Inactive)
REMARK    1  A    between atoms: C_1  and  C_2
REMARK    2  A    between atoms: C_5  and  C_6
REMARK    3  A    between atoms: C_6  and  C_9
REMARK    4  A    between atoms: N_7  and  O_8
REMARK    5  A    between atoms: C_13  and  N_14
REMARK    6  A    between atoms: N_14  and  S_15
REMARK    7  A    between atoms: S_15  and  N_18
REMARK    8  A    between atoms: N_18  and  C_19
REMARK    9  A    between atoms: N_18  and  C_20
REMARK                            x       y       z     vdW  Elec       q    Type
REMARK                         _______ _______ _______ _____ _____    ______ ____
ROOT
ATOM      1  C   UNL     1       2.357   7.474  19.092  0.00  0.00    +0.000 A 
ATOM      2  C   UNL     1       2.645   8.202  17.931  0.00  0.00    +0.000 A 
ATOM      3  C   UNL     1       2.024   9.434  17.697  0.00  0.00    +0.000 A 
ATOM      4  C   UNL     1       1.118   9.957  18.626  0.00  0.00    +0.000 A 
ATOM      5  C   UNL     1       0.828   9.239  19.786  0.00  0.00    +0.000 A 
ATOM      6  C   UNL     1       1.470   8.021  20.035  0.00  0.00    +0.000 A 
ENDROOT
BRANCH   1   7
ATOM      7  C   UNL     1       2.949   6.103  19.346  0.00  0.00    +0.000 C 
ATOM      8  N   UNL     1       2.464   5.459  20.376  0.00  0.00    +0.000 NA
BRANCH   7  13
ATOM      9  C   UNL     1       7.028   4.171  15.636  0.00  0.00    +0.000 C 
ATOM     10  C   UNL     1       5.977   4.646  16.593  0.00  0.00    +0.000 A 
ATOM     11  C   UNL     1       4.630   4.325  16.407  0.00  0.00    +0.000 A 
ATOM     12  C   UNL     1       3.662   4.764  17.317  0.00  0.00    +0.000 A 
ATOM     13  C   UNL     1       4.012   5.580  18.405  0.00  0.00    +0.000 A 
ATOM     14  C   UNL     1       5.364   5.908  18.577  0.00  0.00    +0.000 A 
ATOM     15  C   UNL     1       6.339   5.426  17.695  0.00  0.00    +0.000 A 
ENDBRANCH   7  13
BRANCH   8  16
ATOM     16  O   UNL     1       2.943   4.156  20.516  0.00  0.00    +0.000 OA
ATOM     17  H   UNL     1       3.585   4.087  19.786  0.00  0.00    +0.000 HD
ENDBRANCH   8  16
ENDBRANCH   1   7
BRANCH   5  18
ATOM     18  N   UNL     1      -0.133   9.712  20.739  0.00  0.00    +0.000 N 
ATOM     19  H   UNL     1      -1.092   9.671  20.392  0.00  0.00    +0.000 HD
BRANCH  18  20
ATOM     20  S   UNL     1       0.093  11.281  21.317  0.00  0.00    +0.000 S 
ATOM     21  O   UNL     1       1.505  11.593  21.385  0.00  0.00    +0.000 OA
ATOM     22  O   UNL     1      -0.842  12.128  20.604  0.00  0.00    +0.000 OA
BRANCH  20  23
ATOM     23  N   UNL     1      -0.466  11.112  22.911  0.00  0.00    +0.000 NA
ATOM     24  C   UNL     1      -1.840  11.614  23.153  0.00  0.00    +0.000 C 
ATOM     25  C   UNL     1      -0.343   9.712  23.408  0.00  0.00    +0.000 C 
ENDBRANCH  20  23
ENDBRANCH  18  20
ENDBRANCH   5  18
TORSDOF 6
ENDMDL
MODEL 8
REMARK VINA RESULT:      -7.2      3.622      7.360
REMARK  Name = 
REMARK  9 active torsions:
REMARK  status: ('A' for Active; 'I' for Inactive)
REMARK    1  A    between atoms: C_1  and  C_2
REMARK    2  A    between atoms: C_5  and  C_6
REMARK    3  A    between atoms: C_6  and  C_9
REMARK    4  A    between atoms: N_7  and  O_8
REMARK    5  A    between atoms: C_13  and  N_14
REMARK    6  A    between atoms: N_14  and  S_15
REMARK    7  A    between atoms: S_15  and  N_18
REMARK    8  A    between atoms: N_18  and  C_19
REMARK    9  A    between atoms: N_18  and  C_20
REMARK                            x       y       z     vdW  Elec       q    Type
REMARK                         _______ _______ _______ _____ _____    ______ ____
ROOT
ATOM      1  C   UNL     1       2.713   6.614  18.497  0.00  0.00    +0.000 A 
ATOM      2  C   UNL     1       1.817   5.553  18.312  0.00  0.00    +0.000 A 
ATOM      3  C   UNL     1       2.282   4.234  18.274  0.00  0.00    +0.000 A 
ATOM      4  C   UNL     1       3.644   3.960  18.431  0.00  0.00    +0.000 A 
ATOM      5  C   UNL     1       4.543   5.011  18.618  0.00  0.00    +0.000 A 
ATOM      6  C   UNL     1       4.076   6.327  18.686  0.00  0.00    +0.000 A 
ENDROOT
BRANCH   1   7
ATOM      7  C   UNL     1       2.262   8.060  18.469  0.00  0.00    +0.000 C 
ATOM      8  N   UNL     1       2.567   8.727  17.387  0.00  0.00    +0.000 NA
BRANCH   7  13
ATOM      9  C   UNL     1      -0.804  10.109  23.001  0.00  0.00    +0.000 C 
ATOM     10  C   UNL     1      -0.009   9.603  21.835  0.00  0.00    +0.000 A 
ATOM     11  C   UNL     1      -0.228  10.090  20.544  0.00  0.00    +0.000 A 
ATOM     12  C   UNL     1       0.532   9.618  19.468  0.00  0.00    +0.000 A 
ATOM     13  C   UNL     1       1.492   8.609  19.650  0.00  0.00    +0.000 A 
ATOM     14  C   UNL     1       1.694   8.117  20.946  0.00  0.00    +0.000 A 
ATOM     15  C   UNL     1       0.970   8.625  22.031  0.00  0.00    +0.000 A 
ENDBRANCH   7  13
BRANCH   8  16
ATOM     16  O   UNL     1       2.039  10.017  17.339  0.00  0.00    +0.000 OA
ATOM     17  H   UNL     1       2.785  10.539  16.991  0.00  0.00    +0.000 HD
ENDBRANCH   8  16
ENDBRANCH   1   7
BRANCH   5  18
ATOM     18  N   UNL     1       5.953   4.778  18.732  0.00  0.00    +0.000 N 
ATOM     19  H   UNL     1       6.369   5.242  19.541  0.00  0.00    +0.000 HD
BRANCH  18  20
ATOM     20  S   UNL     1       6.895   5.212  17.402  0.00  0.00    +0.000 S 
ATOM     21  O   UNL     1       7.120   6.642  17.390  0.00  0.00    +0.000 OA
ATOM     22  O   UNL     1       7.991   4.266  17.340  0.00  0.00    +0.000 OA
BRANCH  20  23
ATOM     23  N   UNL     1       5.827   4.857  16.131  0.00  0.00    +0.000 NA
ATOM     24  C   UNL     1       5.427   6.020  15.301  0.00  0.00    +0.000 C 
ATOM     25  C   UNL     1       6.333   3.761  15.256  0.00  0.00    +0.000 C 
ENDBRANCH  20  23
ENDBRANCH  18  20
ENDBRANCH   5  18
TORSDOF 6
ENDMDL
MODEL 9
REMARK VINA RESULT:      -7.2      1.243      1.717
REMARK  Name = 
REMARK  9 active torsions:
REMARK  status: ('A' for Active; 'I' for Inactive)
REMARK    1  A    between atoms: C_1  and  C_2
REMARK    2  A    between atoms: C_5  and  C_6
REMARK    3  A    between atoms: C_6  and  C_9
REMARK    4  A    between atoms: N_7  and  O_8
REMARK    5  A    between atoms: C_13  and  N_14
REMARK    6  A    between atoms: N_14  and  S_15
REMARK    7  A    between atoms: S_15  and  N_18
REMARK    8  A    between atoms: N_18  and  C_19
REMARK    9  A    between atoms: N_18  and  C_20
REMARK                            x       y       z     vdW  Elec       q    Type
REMARK                         _______ _______ _______ _____ _____    ______ ____
ROOT
ATOM      1  C   UNL     1       5.005   5.593  17.428  0.00  0.00    +0.000 A 
ATOM      2  C   UNL     1       4.780   6.973  17.343  0.00  0.00    +0.000 A 
ATOM      3  C   UNL     1       3.529   7.506  17.670  0.00  0.00    +0.000 A 
ATOM      4  C   UNL     1       2.493   6.668  18.097  0.00  0.00    +0.000 A 
ATOM      5  C   UNL     1       2.710   5.293  18.186  0.00  0.00    +0.000 A 
ATOM      6  C   UNL     1       3.969   4.762  17.887  0.00  0.00    +0.000 A 
ENDROOT
BRANCH   1   7
ATOM      7  C   UNL     1       6.320   4.968  17.010  0.00  0.00    +0.000 C 
ATOM      8  N   UNL     1       7.150   4.692  17.983  0.00  0.00    +0.000 NA
BRANCH   7  13
ATOM      9  C   UNL     1       7.175   3.980  11.315  0.00  0.00    +0.000 C 
ATOM     10  C   UNL     1       6.962   4.212  12.781  0.00  0.00    +0.000 A 
ATOM     11  C   UNL     1       6.004   3.491  13.496  0.00  0.00    +0.000 A 
ATOM     12  C   UNL     1       5.826   3.710  14.867  0.00  0.00    +0.000 A 
ATOM     13  C   UNL     1       6.567   4.694  15.542  0.00  0.00    +0.000 A 
ATOM     14  C   UNL     1       7.516   5.422  14.813  0.00  0.00    +0.000 A 
ATOM     15  C   UNL     1       7.730   5.168  13.453  0.00  0.00    +0.000 A 
ENDBRANCH   7  13
BRANCH   8  16
ATOM     16  O   UNL     1       8.300   4.012  17.581  0.00  0.00    +0.000 OA
ATOM     17  H   UNL     1       8.362   4.242  16.636  0.00  0.00    +0.000 HD
ENDBRANCH   8  16
ENDBRANCH   1   7
BRANCH   5  18
ATOM     18  N   UNL     1       1.661   4.393  18.568  0.00  0.00    +0.000 N 
ATOM     19  H   UNL     1       0.729   4.781  18.418  0.00  0.00    +0.000 HD
BRANCH  18  20
ATOM     20  S   UNL     1       1.691   3.839  20.161  0.00  0.00    +0.000 S 
ATOM     21  O   UNL     1       2.553   4.675  20.968  0.00  0.00    +0.000 OA
ATOM     22  O   UNL     1       0.317   3.572  20.536  0.00  0.00    +0.000 OA
BRANCH  20  23
ATOM     23  N   UNL     1       2.477   2.347  19.960  0.00  0.00    +0.000 NA
ATOM     24  C   UNL     1       2.345   1.743  18.612  0.00  0.00    +0.000 C 
ATOM     25  C   UNL     1       3.914   2.409  20.350  0.00  0.00    +0.000 C 
ENDBRANCH  20  23
ENDBRANCH  18  20
ENDBRANCH   5  18
TORSDOF 6
ENDMDL
