MODEL 1
REMARK VINA RESULT:      -7.6      0.000      0.000
REMARK  Name = 
REMARK  3 active torsions:
REMARK  status: ('A' for Active; 'I' for Inactive)
REMARK    1  A    between atoms: C_1  and  N_2
REMARK    2  A    between atoms: C_7  and  C_8
REMARK    3  A    between atoms: C_10  and  C_11
REMARK                            x       y       z     vdW  Elec       q    Type
REMARK                         _______ _______ _______ _____ _____    ______ ____
ROOT
ATOM      1  C   UNL     1       4.945   3.942  18.151  0.00  0.00    +0.000 A 
ATOM      2  N   UNL     1       4.872   3.846  16.843  0.00  0.00    +0.000 NA
ATOM      3  C   UNL     1       6.103   4.212  16.362  0.00  0.00    +0.000 A 
ATOM      4  C   UNL     1       6.954   4.502  17.408  0.00  0.00    +0.000 A 
ATOM      5  N   UNL     1       6.206   4.327  18.538  0.00  0.00    +0.000 N 
ATOM      6  H   UNL     1       6.501   4.500  19.489  0.00  0.00    +0.000 HD
ENDROOT
BRANCH   1  13
ATOM      7  C   UNL     1       3.115   6.071  19.050  0.00  0.00    +0.000 C 
ATOM      8  N   UNL     1       3.450   4.928  19.906  0.00  0.00    +0.000 NA
ATOM      9  C   UNL     1       2.285   4.574  20.755  0.00  0.00    +0.000 C 
ATOM     10  C   UNL     1       1.118   3.935  19.983  0.00  0.00    +0.000 C 
ATOM     11  O   UNL     1       1.543   2.748  19.309  0.00  0.00    +0.000 OA
ATOM     12  C   UNL     1       2.620   3.039  18.403  0.00  0.00    +0.000 C 
ATOM     13  C   UNL     1       3.824   3.705  19.124  0.00  0.00    +0.000 C 
ENDBRANCH   1  13
BRANCH   3  14
ATOM     14  C   UNL     1       6.404   4.283  14.954  0.00  0.00    +0.000 A 
ATOM     15  C   UNL     1       5.665   3.502  14.046  0.00  0.00    +0.000 A 
ATOM     16  C   UNL     1       5.951   3.539  12.680  0.00  0.00    +0.000 A 
ATOM     17  C   UNL     1       6.976   4.357  12.214  0.00  0.00    +0.000 A 
ATOM     18  C   UNL     1       7.696   5.132  13.112  0.00  0.00    +0.000 A 
ATOM     19  F   UNL     1       8.689   5.913  12.662  0.00  0.00    +0.000 F 
ATOM     20  C   UNL     1       7.424   5.103  14.471  0.00  0.00    +0.000 A 
ENDBRANCH   3  14
TORSDOF 2
ENDMDL
MODEL 2
REMARK VINA RESULT:      -7.6      1.092      1.554
REMARK  Name = 
REMARK  3 active torsions:
REMARK  status: ('A' for Active; 'I' for Inactive)
REMARK    1  A    between atoms: C_1  and  N_2
REMARK    2  A    between atoms: C_7  and  C_8
REMARK    3  A    between atoms: C_10  and  C_11
REMARK                            x       y       z     vdW  Elec       q    Type
REMARK                         _______ _______ _______ _____ _____    ______ ____
ROOT
ATOM      1  C   UNL     1       5.092   4.030  18.078  0.00  0.00    +0.000 A 
ATOM      2  N   UNL     1       4.987   3.904  16.775  0.00  0.00    +0.000 NA
ATOM      3  C   UNL     1       6.216   4.226  16.259  0.00  0.00    +0.000 A 
ATOM      4  C   UNL     1       7.097   4.519  17.278  0.00  0.00    +0.000 A 
ATOM      5  N   UNL     1       6.370   4.392  18.428  0.00  0.00    +0.000 N 
ATOM      6  H   UNL     1       6.689   4.581  19.368  0.00  0.00    +0.000 HD
ENDROOT
BRANCH   1  13
ATOM      7  C   UNL     1       3.221   6.182  18.827  0.00  0.00    +0.000 C 
ATOM      8  N   UNL     1       3.592   5.118  19.767  0.00  0.00    +0.000 NA
ATOM      9  C   UNL     1       2.444   4.806  20.656  0.00  0.00    +0.000 C 
ATOM     10  C   UNL     1       1.285   4.082  19.951  0.00  0.00    +0.000 C 
ATOM     11  O   UNL     1       1.730   2.856  19.368  0.00  0.00    +0.000 OA
ATOM     12  C   UNL     1       2.791   3.098  18.428  0.00  0.00    +0.000 C 
ATOM     13  C   UNL     1       3.986   3.846  19.080  0.00  0.00    +0.000 C 
ENDBRANCH   1  13
BRANCH   3  14
ATOM     14  C   UNL     1       6.488   4.254  14.843  0.00  0.00    +0.000 A 
ATOM     15  C   UNL     1       7.483   5.114  14.344  0.00  0.00    +0.000 A 
ATOM     16  C   UNL     1       7.751   5.173  12.975  0.00  0.00    +0.000 A 
ATOM     17  C   UNL     1       7.027   4.372  12.097  0.00  0.00    +0.000 A 
ATOM     18  C   UNL     1       6.051   3.518  12.595  0.00  0.00    +0.000 A 
ATOM     19  F   UNL     1       5.348   2.754  11.747  0.00  0.00    +0.000 F 
ATOM     20  C   UNL     1       5.774   3.453  13.952  0.00  0.00    +0.000 A 
ENDBRANCH   3  14
TORSDOF 2
ENDMDL
MODEL 3
REMARK VINA RESULT:      -7.6      1.164      1.659
REMARK  Name = 
REMARK  3 active torsions:
REMARK  status: ('A' for Active; 'I' for Inactive)
REMARK    1  A    between atoms: C_1  and  N_2
REMARK    2  A    between atoms: C_7  and  C_8
REMARK    3  A    between atoms: C_10  and  C_11
REMARK                            x       y       z     vdW  Elec       q    Type
REMARK                         _______ _______ _______ _____ _____    ______ ____
ROOT
ATOM      1  C   UNL     1       4.339   4.085  17.524  0.00  0.00    +0.000 A 
ATOM      2  N   UNL     1       4.448   4.070  16.215  0.00  0.00    +0.000 NA
ATOM      3  C   UNL     1       5.782   4.232  15.941  0.00  0.00    +0.000 A 
ATOM      4  C   UNL     1       6.502   4.310  17.114  0.00  0.00    +0.000 A 
ATOM      5  N   UNL     1       5.573   4.216  18.112  0.00  0.00    +0.000 N 
ATOM      6  H   UNL     1       5.746   4.284  19.106  0.00  0.00    +0.000 HD
ENDROOT
BRANCH   1  13
ATOM      7  C   UNL     1       3.231   1.551  18.547  0.00  0.00    +0.000 C 
ATOM      8  N   UNL     1       2.368   2.681  18.183  0.00  0.00    +0.000 NA
ATOM      9  C   UNL     1       1.178   2.713  19.070  0.00  0.00    +0.000 C 
ATOM     10  C   UNL     1       1.487   3.130  20.517  0.00  0.00    +0.000 C 
ATOM     11  O   UNL     1       2.095   4.423  20.556  0.00  0.00    +0.000 OA
ATOM     12  C   UNL     1       3.306   4.437  19.781  0.00  0.00    +0.000 C 
ATOM     13  C   UNL     1       3.059   4.004  18.310  0.00  0.00    +0.000 C 
ENDBRANCH   1  13
BRANCH   3  14
ATOM     14  C   UNL     1       6.300   4.319  14.598  0.00  0.00    +0.000 A 
ATOM     15  C   UNL     1       5.736   3.524  13.584  0.00  0.00    +0.000 A 
ATOM     16  C   UNL     1       6.233   3.577  12.280  0.00  0.00    +0.000 A 
ATOM     17  C   UNL     1       7.296   4.425  11.983  0.00  0.00    +0.000 A 
ATOM     18  C   UNL     1       7.844   5.214  12.985  0.00  0.00    +0.000 A 
ATOM     19  F   UNL     1       8.873   6.025  12.699  0.00  0.00    +0.000 F 
ATOM     20  C   UNL     1       7.361   5.169  14.284  0.00  0.00    +0.000 A 
ENDBRANCH   3  14
TORSDOF 2
ENDMDL
MODEL 4
REMARK VINA RESULT:      -7.4      1.591      2.229
REMARK  Name = 
REMARK  3 active torsions:
REMARK  status: ('A' for Active; 'I' for Inactive)
REMARK    1  A    between atoms: C_1  and  N_2
REMARK    2  A    between atoms: C_7  and  C_8
REMARK    3  A    between atoms: C_10  and  C_11
REMARK                            x       y       z     vdW  Elec       q    Type
REMARK                         _______ _______ _______ _____ _____    ______ ____
ROOT
ATOM      1  C   UNL     1       4.292   4.403  17.644  0.00  0.00    +0.000 A 
ATOM      2  N   UNL     1       4.363   4.215  16.346  0.00  0.00    +0.000 NA
ATOM      3  C   UNL     1       5.681   4.377  16.007  0.00  0.00    +0.000 A 
ATOM      4  C   UNL     1       6.433   4.635  17.133  0.00  0.00    +0.000 A 
ATOM      5  N   UNL     1       5.538   4.650  18.166  0.00  0.00    +0.000 N 
ATOM      6  H   UNL     1       5.738   4.857  19.135  0.00  0.00    +0.000 HD
ENDROOT
BRANCH   1  13
ATOM      7  C   UNL     1       3.162   1.949  18.824  0.00  0.00    +0.000 C 
ATOM      8  N   UNL     1       2.314   3.082  18.437  0.00  0.00    +0.000 NA
ATOM      9  C   UNL     1       1.157   3.186  19.362  0.00  0.00    +0.000 C 
ATOM     10  C   UNL     1       1.527   3.663  20.776  0.00  0.00    +0.000 C 
ATOM     11  O   UNL     1       2.167   4.941  20.732  0.00  0.00    +0.000 OA
ATOM     12  C   UNL     1       3.349   4.887  19.916  0.00  0.00    +0.000 C 
ATOM     13  C   UNL     1       3.040   4.392  18.476  0.00  0.00    +0.000 C 
ENDBRANCH   1  13
BRANCH   3  14
ATOM     14  C   UNL     1       6.156   4.297  14.647  0.00  0.00    +0.000 A 
ATOM     15  C   UNL     1       7.257   5.076  14.249  0.00  0.00    +0.000 A 
ATOM     16  C   UNL     1       7.723   5.029  12.934  0.00  0.00    +0.000 A 
ATOM     17  C   UNL     1       7.090   4.203  12.009  0.00  0.00    +0.000 A 
ATOM     18  C   UNL     1       6.009   3.430  12.408  0.00  0.00    +0.000 A 
ATOM     19  F   UNL     1       5.396   2.641  11.514  0.00  0.00    +0.000 F 
ATOM     20  C   UNL     1       5.535   3.469  13.711  0.00  0.00    +0.000 A 
ENDBRANCH   3  14
TORSDOF 2
ENDMDL
MODEL 5
REMARK VINA RESULT:      -7.3      1.765      2.205
REMARK  Name = 
REMARK  3 active torsions:
REMARK  status: ('A' for Active; 'I' for Inactive)
REMARK    1  A    between atoms: C_1  and  N_2
REMARK    2  A    between atoms: C_7  and  C_8
REMARK    3  A    between atoms: C_10  and  C_11
REMARK                            x       y       z     vdW  Elec       q    Type
REMARK                         _______ _______ _______ _____ _____    ______ ____
ROOT
ATOM      1  C   UNL     1       4.610   5.007  17.630  0.00  0.00    +0.000 A 
ATOM      2  N   UNL     1       5.099   4.265  16.663  0.00  0.00    +0.000 NA
ATOM      3  C   UNL     1       5.444   5.127  15.654  0.00  0.00    +0.000 A 
ATOM      4  C   UNL     1       5.191   6.428  16.035  0.00  0.00    +0.000 A 
ATOM      5  N   UNL     1       4.660   6.338  17.291  0.00  0.00    +0.000 N 
ATOM      6  H   UNL     1       4.314   7.100  17.856  0.00  0.00    +0.000 HD
ENDROOT
BRANCH   1  13
ATOM      7  C   UNL     1       1.749   4.394  17.995  0.00  0.00    +0.000 C 
ATOM      8  N   UNL     1       2.588   4.859  19.106  0.00  0.00    +0.000 NA
ATOM      9  C   UNL     1       2.134   4.239  20.376  0.00  0.00    +0.000 C 
ATOM     10  C   UNL     1       2.442   2.736  20.483  0.00  0.00    +0.000 C 
ATOM     11  O   UNL     1       3.845   2.493  20.356  0.00  0.00    +0.000 OA
ATOM     12  C   UNL     1       4.334   2.997  19.102  0.00  0.00    +0.000 C 
ATOM     13  C   UNL     1       4.035   4.511  18.928  0.00  0.00    +0.000 C 
ENDBRANCH   1  13
BRANCH   3  14
ATOM     14  C   UNL     1       5.975   4.680  14.390  0.00  0.00    +0.000 A 
ATOM     15  C   UNL     1       7.197   5.202  13.928  0.00  0.00    +0.000 A 
ATOM     16  C   UNL     1       7.722   4.800  12.699  0.00  0.00    +0.000 A 
ATOM     17  C   UNL     1       7.029   3.873  11.924  0.00  0.00    +0.000 A 
ATOM     18  C   UNL     1       5.828   3.355  12.388  0.00  0.00    +0.000 A 
ATOM     19  F   UNL     1       5.157   2.469  11.637  0.00  0.00    +0.000 F 
ATOM     20  C   UNL     1       5.294   3.748  13.606  0.00  0.00    +0.000 A 
ENDBRANCH   3  14
TORSDOF 2
ENDMDL
MODEL 6
REMARK VINA RESULT:      -7.2      0.986      1.268
REMARK  Name = 
REMARK  3 active torsions:
REMARK  status: ('A' for Active; 'I' for Inactive)
REMARK    1  A    between atoms: C_1  and  N_2
REMARK    2  A    between atoms: C_7  and  C_8
REMARK    3  A    between atoms: C_10  and  C_11
REMARK                            x       y       z     vdW  Elec       q    Type
REMARK                         _______ _______ _______ _____ _____    ______ ____
ROOT
ATOM      1  C   UNL     1       5.177   4.114  18.089  0.00  0.00    +0.000 A 
ATOM      2  N   UNL     1       5.056   4.064  16.782  0.00  0.00    +0.000 NA
ATOM      3  C   UNL     1       6.310   4.279  16.272  0.00  0.00    +0.000 A 
ATOM      4  C   UNL     1       7.221   4.426  17.297  0.00  0.00    +0.000 A 
ATOM      5  N   UNL     1       6.488   4.320  18.446  0.00  0.00    +0.000 N 
ATOM      6  H   UNL     1       6.829   4.427  19.391  0.00  0.00    +0.000 HD
ENDROOT
BRANCH   1  13
ATOM      7  C   UNL     1       2.462   3.210  17.380  0.00  0.00    +0.000 C 
ATOM      8  N   UNL     1       2.701   4.150  18.481  0.00  0.00    +0.000 NA
ATOM      9  C   UNL     1       1.704   3.930  19.559  0.00  0.00    +0.000 C 
ATOM     10  C   UNL     1       1.905   2.621  20.341  0.00  0.00    +0.000 C 
ATOM     11  O   UNL     1       3.205   2.577  20.934  0.00  0.00    +0.000 OA
ATOM     12  C   UNL     1       4.225   2.701  19.928  0.00  0.00    +0.000 C 
ATOM     13  C   UNL     1       4.062   3.999  19.091  0.00  0.00    +0.000 C 
ENDBRANCH   1  13
BRANCH   3  14
ATOM     14  C   UNL     1       6.579   4.349  14.857  0.00  0.00    +0.000 A 
ATOM     15  C   UNL     1       5.863   3.521  13.973  0.00  0.00    +0.000 A 
ATOM     16  C   UNL     1       6.119   3.557  12.601  0.00  0.00    +0.000 A 
ATOM     17  C   UNL     1       7.091   4.420  12.105  0.00  0.00    +0.000 A 
ATOM     18  C   UNL     1       7.789   5.241  12.980  0.00  0.00    +0.000 A 
ATOM     19  F   UNL     1       8.731   6.066  12.501  0.00  0.00    +0.000 F 
ATOM     20  C   UNL     1       7.547   5.213  14.345  0.00  0.00    +0.000 A 
ENDBRANCH   3  14
TORSDOF 2
ENDMDL
MODEL 7
REMARK VINA RESULT:      -7.1      1.460      1.973
REMARK  Name = 
REMARK  3 active torsions:
REMARK  status: ('A' for Active; 'I' for Inactive)
REMARK    1  A    between atoms: C_1  and  N_2
REMARK    2  A    between atoms: C_7  and  C_8
REMARK    3  A    between atoms: C_10  and  C_11
REMARK                            x       y       z     vdW  Elec       q    Type
REMARK                         _______ _______ _______ _____ _____    ______ ____
ROOT
ATOM      1  C   UNL     1       5.178   4.101  18.048  0.00  0.00    +0.000 A 
ATOM      2  N   UNL     1       5.033   3.983  16.748  0.00  0.00    +0.000 NA
ATOM      3  C   UNL     1       6.266   4.228  16.201  0.00  0.00    +0.000 A 
ATOM      4  C   UNL     1       7.189   4.465  17.198  0.00  0.00    +0.000 A 
ATOM      5  N   UNL     1       6.485   4.383  18.366  0.00  0.00    +0.000 N 
ATOM      6  H   UNL     1       6.839   4.551  19.298  0.00  0.00    +0.000 HD
ENDROOT
BRANCH   1  13
ATOM      7  C   UNL     1       2.389   3.423  17.375  0.00  0.00    +0.000 C 
ATOM      8  N   UNL     1       2.723   4.266  18.529  0.00  0.00    +0.000 NA
ATOM      9  C   UNL     1       1.747   4.033  19.624  0.00  0.00    +0.000 C 
ATOM     10  C   UNL     1       1.887   2.662  20.307  0.00  0.00    +0.000 C 
ATOM     11  O   UNL     1       3.199   2.495  20.849  0.00  0.00    +0.000 OA
ATOM     12  C   UNL     1       4.193   2.625  19.818  0.00  0.00    +0.000 C 
ATOM     13  C   UNL     1       4.089   3.986  19.078  0.00  0.00    +0.000 C 
ENDBRANCH   1  13
BRANCH   3  14
ATOM     14  C   UNL     1       6.504   4.240  14.779  0.00  0.00    +0.000 A 
ATOM     15  C   UNL     1       7.506   5.072  14.249  0.00  0.00    +0.000 A 
ATOM     16  C   UNL     1       7.741   5.115  12.874  0.00  0.00    +0.000 A 
ATOM     17  C   UNL     1       6.976   4.326  12.020  0.00  0.00    +0.000 A 
ATOM     18  C   UNL     1       5.994   3.499  12.548  0.00  0.00    +0.000 A 
ATOM     19  F   UNL     1       5.252   2.746  11.723  0.00  0.00    +0.000 F 
ATOM     20  C   UNL     1       5.748   3.449  13.912  0.00  0.00    +0.000 A 
ENDBRANCH   3  14
TORSDOF 2
ENDMDL
MODEL 8
REMARK VINA RESULT:      -7.1      1.352      1.559
REMARK  Name = 
REMARK  3 active torsions:
REMARK  status: ('A' for Active; 'I' for Inactive)
REMARK    1  A    between atoms: C_1  and  N_2
REMARK    2  A    between atoms: C_7  and  C_8
REMARK    3  A    between atoms: C_10  and  C_11
REMARK                            x       y       z     vdW  Elec       q    Type
REMARK                         _______ _______ _______ _____ _____    ______ ____
ROOT
ATOM      1  C   UNL     1       4.279   5.065  17.929  0.00  0.00    +0.000 A 
ATOM      2  N   UNL     1       4.841   4.366  16.969  0.00  0.00    +0.000 NA
ATOM      3  C   UNL     1       5.274   5.273  16.037  0.00  0.00    +0.000 A 
ATOM      4  C   UNL     1       4.998   6.556  16.460  0.00  0.00    +0.000 A 
ATOM      5  N   UNL     1       4.365   6.410  17.662  0.00  0.00    +0.000 N 
ATOM      6  H   UNL     1       3.978   7.147  18.235  0.00  0.00    +0.000 HD
ENDROOT
BRANCH   1  13
ATOM      7  C   UNL     1       1.489   4.113  17.920  0.00  0.00    +0.000 C 
ATOM      8  N   UNL     1       2.107   4.683  19.122  0.00  0.00    +0.000 NA
ATOM      9  C   UNL     1       1.562   4.020  20.333  0.00  0.00    +0.000 C 
ATOM     10  C   UNL     1       2.028   2.566  20.516  0.00  0.00    +0.000 C 
ATOM     11  O   UNL     1       3.454   2.493  20.584  0.00  0.00    +0.000 OA
ATOM     12  C   UNL     1       4.046   3.045  19.396  0.00  0.00    +0.000 C 
ATOM     13  C   UNL     1       3.595   4.511  19.148  0.00  0.00    +0.000 C 
ENDBRANCH   1  13
BRANCH   3  14
ATOM     14  C   UNL     1       5.905   4.884  14.800  0.00  0.00    +0.000 A 
ATOM     15  C   UNL     1       5.306   3.899  13.995  0.00  0.00    +0.000 A 
ATOM     16  C   UNL     1       5.908   3.493  12.802  0.00  0.00    +0.000 A 
ATOM     17  C   UNL     1       7.112   4.069  12.408  0.00  0.00    +0.000 A 
ATOM     18  C   UNL     1       7.695   5.048  13.201  0.00  0.00    +0.000 A 
ATOM     19  F   UNL     1       8.859   5.597  12.824  0.00  0.00    +0.000 F 
ATOM     20  C   UNL     1       7.109   5.458  14.389  0.00  0.00    +0.000 A 
ENDBRANCH   3  14
TORSDOF 2
ENDMDL
MODEL 9
REMARK VINA RESULT:      -6.8      1.014      1.051
REMARK  Name = 
REMARK  3 active torsions:
REMARK  status: ('A' for Active; 'I' for Inactive)
REMARK    1  A    between atoms: C_1  and  N_2
REMARK    2  A    between atoms: C_7  and  C_8
REMARK    3  A    between atoms: C_10  and  C_11
REMARK                            x       y       z     vdW  Elec       q    Type
REMARK                         _______ _______ _______ _____ _____    ______ ____
ROOT
ATOM      1  C   UNL     1       4.245   4.222  17.702  0.00  0.00    +0.000 A 
ATOM      2  N   UNL     1       4.814   3.695  16.642  0.00  0.00    +0.000 NA
ATOM      3  C   UNL     1       5.276   4.746  15.893  0.00  0.00    +0.000 A 
ATOM      4  C   UNL     1       5.012   5.938  16.534  0.00  0.00    +0.000 A 
ATOM      5  N   UNL     1       4.356   5.591  17.681  0.00  0.00    +0.000 N 
ATOM      6  H   UNL     1       3.970   6.222  18.370  0.00  0.00    +0.000 HD
ENDROOT
BRANCH   1  13
ATOM      7  C   UNL     1       2.366   5.505  19.577  0.00  0.00    +0.000 C 
ATOM      8  N   UNL     1       3.164   4.335  19.962  0.00  0.00    +0.000 NA
ATOM      9  C   UNL     1       2.398   3.492  20.914  0.00  0.00    +0.000 C 
ATOM     10  C   UNL     1       1.211   2.749  20.277  0.00  0.00    +0.000 C 
ATOM     11  O   UNL     1       1.652   1.909  19.208  0.00  0.00    +0.000 OA
ATOM     12  C   UNL     1       2.332   2.682  18.204  0.00  0.00    +0.000 C 
ATOM     13  C   UNL     1       3.532   3.472  18.794  0.00  0.00    +0.000 C 
ENDBRANCH   1  13
BRANCH   3  14
ATOM     14  C   UNL     1       5.924   4.573  14.616  0.00  0.00    +0.000 A 
ATOM     15  C   UNL     1       5.373   3.686  13.674  0.00  0.00    +0.000 A 
ATOM     16  C   UNL     1       5.992   3.487  12.438  0.00  0.00    +0.000 A 
ATOM     17  C   UNL     1       7.165   4.174  12.138  0.00  0.00    +0.000 A 
ATOM     18  C   UNL     1       7.700   5.055  13.067  0.00  0.00    +0.000 A 
ATOM     19  F   UNL     1       8.834   5.710  12.780  0.00  0.00    +0.000 F 
ATOM     20  C   UNL     1       7.096   5.259  14.299  0.00  0.00    +0.000 A 
ENDBRANCH   3  14
TORSDOF 2
ENDMDL
