MODEL 1
REMARK VINA RESULT:      -7.2      0.000      0.000
REMARK  Name = 
REMARK  13 active torsions:
REMARK  status: ('A' for Active; 'I' for Inactive)
REMARK    1  A    between atoms: C_1  and  C_2
REMARK    2  A    between atoms: C_2  and  C_3
REMARK    3  A    between atoms: C_3  and  C_4
REMARK    4  A    between atoms: C_4  and  C_5
REMARK    5  A    between atoms: C_5  and  C_6
REMARK    6  A    between atoms: C_6  and  C_7
REMARK    7  A    between atoms: C_8  and  C_9
REMARK    8  A    between atoms: C_12  and  C_13
REMARK    9  A    between atoms: C_13  and  O_14
REMARK   10  A    between atoms: O_14  and  C_15
REMARK   11  A    between atoms: C_18  and  C_19
REMARK   12  A    between atoms: N_21  and  C_22
REMARK   13  A    between atoms: C_22  and  C_23
REMARK                            x       y       z     vdW  Elec       q    Type
REMARK                         _______ _______ _______ _____ _____    ______ ____
ROOT
ATOM      1  C   UNL     1       0.131   9.243  21.226  0.00  0.00    +0.000 C 
ATOM      2  C   UNL     1       0.325  10.728  21.518  0.00  0.00    +0.000 C 
ATOM      3  N   UNL     1       1.023  11.230  20.320  0.00  0.00    +0.000 NA
ATOM      4  C   UNL     1       0.350  10.529  19.183  0.00  0.00    +0.000 C 
ATOM      5  C   UNL     1      -0.291   9.260  19.760  0.00  0.00    +0.000 C 
ATOM      6  H   UNL     1       1.974  10.849  20.358  0.00  0.00    +0.000 HD
ENDROOT
BRANCH   4   7
ATOM      7  C   UNL     1      -0.712  11.429  18.521  0.00  0.00    +0.000 C 
ATOM      8  O   UNL     1      -0.880  12.599  18.858  0.00  0.00    +0.000 OA
ATOM      9  N   UNL     1      -1.434  10.838  17.512  0.00  0.00    +0.000 N 
ATOM     10  H   UNL     1      -1.373   9.824  17.436  0.00  0.00    +0.000 HD
BRANCH   9  11
ATOM     11  C   UNL     1      -2.506  11.538  16.860  0.00  0.00    +0.000 C 
BRANCH  11  12
ATOM     12  C   UNL     1      -3.736  11.507  17.699  0.00  0.00    +0.000 A 
ATOM     13  N   UNL     1      -4.695  10.599  17.701  0.00  0.00    +0.000 NA
ATOM     14  C   UNL     1      -5.564  10.976  18.697  0.00  0.00    +0.000 A 
ATOM     15  C   UNL     1      -6.741  10.360  19.145  0.00  0.00    +0.000 A 
ATOM     16  C   UNL     1      -7.445  10.942  20.209  0.00  0.00    +0.000 A 
ATOM     17  C   UNL     1      -6.983  12.120  20.810  0.00  0.00    +0.000 A 
ATOM     18  C   UNL     1      -5.818  12.748  20.373  0.00  0.00    +0.000 A 
ATOM     19  C   UNL     1      -5.133  12.144  19.316  0.00  0.00    +0.000 A 
ATOM     20  N   UNL     1      -3.979  12.468  18.654  0.00  0.00    +0.000 N 
ATOM     21  H   UNL     1      -3.390  13.264  18.852  0.00  0.00    +0.000 HD
ENDBRANCH  11  12
ENDBRANCH   9  11
ENDBRANCH   4   7
BRANCH   1  22
ATOM     22  O   UNL     1       1.355   8.505  21.327  0.00  0.00    +0.000 OA
BRANCH  22  23
ATOM     23  C   UNL     1       1.161   7.092  21.362  0.00  0.00    +0.000 C 
BRANCH  23  27
ATOM     24  C   UNL     1       3.183   5.341  18.002  0.00  0.00    +0.000 A 
ATOM     25  C   UNL     1       3.214   6.724  18.191  0.00  0.00    +0.000 A 
ATOM     26  C   UNL     1       2.548   7.287  19.274  0.00  0.00    +0.000 A 
ATOM     27  C   UNL     1       1.845   6.474  20.175  0.00  0.00    +0.000 A 
ATOM     28  C   UNL     1       1.839   5.085  19.989  0.00  0.00    +0.000 A 
ATOM     29  C   UNL     1       2.506   4.520  18.902  0.00  0.00    +0.000 A 
BRANCH  24  31
ATOM     30  C   UNL     1       4.559   4.489  15.952  0.00  0.00    +0.000 C 
ATOM     31  C   UNL     1       3.931   4.780  16.930  0.00  0.00    +0.000 C 
BRANCH  30  32
ATOM     32  C   UNL     1       5.338   4.415  14.715  0.00  0.00    +0.000 C 
BRANCH  32  33
ATOM     33  C   UNL     1       6.793   4.136  15.097  0.00  0.00    +0.000 C 
BRANCH  33  34
ATOM     34  C   UNL     1       7.351   5.188  16.043  0.00  0.00    +0.000 C 
BRANCH  34  35
ATOM     35  C   UNL     1       7.642   4.583  17.416  0.00  0.00    +0.000 C 
BRANCH  35  37
ATOM     36  C   UNL     1       6.515   5.487  19.481  0.00  0.00    +0.000 C 
ATOM     37  C   UNL     1       7.651   5.666  18.489  0.00  0.00    +0.000 C 
ENDBRANCH  35  37
ENDBRANCH  34  35
ENDBRANCH  33  34
ENDBRANCH  32  33
ENDBRANCH  30  32
ENDBRANCH  24  31
ENDBRANCH  23  27
ENDBRANCH  22  23
ENDBRANCH   1  22
TORSDOF 12
ENDMDL
MODEL 2
REMARK VINA RESULT:      -7.1      6.919     10.130
REMARK  Name = 
REMARK  13 active torsions:
REMARK  status: ('A' for Active; 'I' for Inactive)
REMARK    1  A    between atoms: C_1  and  C_2
REMARK    2  A    between atoms: C_2  and  C_3
REMARK    3  A    between atoms: C_3  and  C_4
REMARK    4  A    between atoms: C_4  and  C_5
REMARK    5  A    between atoms: C_5  and  C_6
REMARK    6  A    between atoms: C_6  and  C_7
REMARK    7  A    between atoms: C_8  and  C_9
REMARK    8  A    between atoms: C_12  and  C_13
REMARK    9  A    between atoms: C_13  and  O_14
REMARK   10  A    between atoms: O_14  and  C_15
REMARK   11  A    between atoms: C_18  and  C_19
REMARK   12  A    between atoms: N_21  and  C_22
REMARK   13  A    between atoms: C_22  and  C_23
REMARK                            x       y       z     vdW  Elec       q    Type
REMARK                         _______ _______ _______ _____ _____    ______ ____
ROOT
ATOM      1  C   UNL     1       8.774  10.521  19.105  0.00  0.00    +0.000 C 
ATOM      2  C   UNL     1       9.750  10.956  20.193  0.00  0.00    +0.000 C 
ATOM      3  N   UNL     1      11.031  11.096  19.475  0.00  0.00    +0.000 NA
ATOM      4  C   UNL     1      10.655  11.734  18.176  0.00  0.00    +0.000 C 
ATOM      5  C   UNL     1       9.171  11.423  17.941  0.00  0.00    +0.000 C 
ATOM      6  H   UNL     1      11.337  10.146  19.242  0.00  0.00    +0.000 HD
ENDROOT
BRANCH   4   7
ATOM      7  C   UNL     1      10.901  13.256  18.209  0.00  0.00    +0.000 C 
ATOM      8  O   UNL     1      11.492  13.803  19.137  0.00  0.00    +0.000 OA
ATOM      9  N   UNL     1      10.438  13.947  17.115  0.00  0.00    +0.000 N 
ATOM     10  H   UNL     1       9.792  13.455  16.499  0.00  0.00    +0.000 HD
BRANCH   9  11
ATOM     11  C   UNL     1      10.533  15.379  17.049  0.00  0.00    +0.000 C 
BRANCH  11  12
ATOM     12  C   UNL     1       9.478  16.011  17.890  0.00  0.00    +0.000 A 
ATOM     13  N   UNL     1       9.630  16.919  18.837  0.00  0.00    +0.000 NA
ATOM     14  C   UNL     1       8.361  17.234  19.259  0.00  0.00    +0.000 A 
ATOM     15  C   UNL     1       7.939  18.154  20.230  0.00  0.00    +0.000 A 
ATOM     16  C   UNL     1       6.564  18.306  20.461  0.00  0.00    +0.000 A 
ATOM     17  C   UNL     1       5.631  17.550  19.740  0.00  0.00    +0.000 A 
ATOM     18  C   UNL     1       6.034  16.628  18.776  0.00  0.00    +0.000 A 
ATOM     19  C   UNL     1       7.409  16.500  18.561  0.00  0.00    +0.000 A 
ATOM     20  N   UNL     1       8.145  15.721  17.708  0.00  0.00    +0.000 N 
ATOM     21  H   UNL     1       7.771  15.063  17.040  0.00  0.00    +0.000 HD
ENDBRANCH  11  12
ENDBRANCH   9  11
ENDBRANCH   4   7
BRANCH   1  22
ATOM     22  O   UNL     1       8.980   9.161  18.702  0.00  0.00    +0.000 OA
BRANCH  22  23
ATOM     23  C   UNL     1       8.229   8.795  17.545  0.00  0.00    +0.000 C 
BRANCH  23  27
ATOM     24  C   UNL     1       5.972   5.230  18.348  0.00  0.00    +0.000 A 
ATOM     25  C   UNL     1       5.507   6.153  17.410  0.00  0.00    +0.000 A 
ATOM     26  C   UNL     1       6.235   7.312  17.162  0.00  0.00    +0.000 A 
ATOM     27  C   UNL     1       7.432   7.558  17.849  0.00  0.00    +0.000 A 
ATOM     28  C   UNL     1       7.903   6.614  18.773  0.00  0.00    +0.000 A 
ATOM     29  C   UNL     1       7.171   5.452  19.022  0.00  0.00    +0.000 A 
BRANCH  24  31
ATOM     30  C   UNL     1       4.504   3.111  18.771  0.00  0.00    +0.000 C 
ATOM     31  C   UNL     1       5.250   4.019  18.532  0.00  0.00    +0.000 C 
BRANCH  30  32
ATOM     32  C   UNL     1       3.408   2.210  19.127  0.00  0.00    +0.000 C 
BRANCH  32  33
ATOM     33  C   UNL     1       2.171   3.069  19.399  0.00  0.00    +0.000 C 
BRANCH  33  34
ATOM     34  C   UNL     1       2.214   3.723  20.771  0.00  0.00    +0.000 C 
BRANCH  34  35
ATOM     35  C   UNL     1       1.860   5.207  20.675  0.00  0.00    +0.000 C 
BRANCH  35  37
ATOM     36  C   UNL     1       2.530   7.131  19.192  0.00  0.00    +0.000 C 
ATOM     37  C   UNL     1       2.015   5.704  19.242  0.00  0.00    +0.000 C 
ENDBRANCH  35  37
ENDBRANCH  34  35
ENDBRANCH  33  34
ENDBRANCH  32  33
ENDBRANCH  30  32
ENDBRANCH  24  31
ENDBRANCH  23  27
ENDBRANCH  22  23
ENDBRANCH   1  22
TORSDOF 12
ENDMDL
MODEL 3
REMARK VINA RESULT:      -7.1      2.056      3.499
REMARK  Name = 
REMARK  13 active torsions:
REMARK  status: ('A' for Active; 'I' for Inactive)
REMARK    1  A    between atoms: C_1  and  C_2
REMARK    2  A    between atoms: C_2  and  C_3
REMARK    3  A    between atoms: C_3  and  C_4
REMARK    4  A    between atoms: C_4  and  C_5
REMARK    5  A    between atoms: C_5  and  C_6
REMARK    6  A    between atoms: C_6  and  C_7
REMARK    7  A    between atoms: C_8  and  C_9
REMARK    8  A    between atoms: C_12  and  C_13
REMARK    9  A    between atoms: C_13  and  O_14
REMARK   10  A    between atoms: O_14  and  C_15
REMARK   11  A    between atoms: C_18  and  C_19
REMARK   12  A    between atoms: N_21  and  C_22
REMARK   13  A    between atoms: C_22  and  C_23
REMARK                            x       y       z     vdW  Elec       q    Type
REMARK                         _______ _______ _______ _____ _____    ______ ____
ROOT
ATOM      1  C   UNL     1       0.503   8.737  20.428  0.00  0.00    +0.000 C 
ATOM      2  C   UNL     1      -0.497   8.607  21.572  0.00  0.00    +0.000 C 
ATOM      3  N   UNL     1       0.058   9.483  22.621  0.00  0.00    +0.000 NA
ATOM      4  C   UNL     1       0.551  10.681  21.873  0.00  0.00    +0.000 C 
ATOM      5  C   UNL     1       0.792  10.235  20.425  0.00  0.00    +0.000 C 
ATOM      6  H   UNL     1       0.896   9.013  22.977  0.00  0.00    +0.000 HD
ENDROOT
BRANCH   4   7
ATOM      7  C   UNL     1      -0.471  11.835  21.931  0.00  0.00    +0.000 C 
ATOM      8  O   UNL     1      -0.962  12.222  22.989  0.00  0.00    +0.000 OA
ATOM      9  N   UNL     1      -0.768  12.415  20.721  0.00  0.00    +0.000 N 
ATOM     10  H   UNL     1      -0.476  11.910  19.885  0.00  0.00    +0.000 HD
BRANCH   9  11
ATOM     11  C   UNL     1      -1.759  13.450  20.618  0.00  0.00    +0.000 C 
BRANCH  11  12
ATOM     12  C   UNL     1      -3.044  12.893  20.111  0.00  0.00    +0.000 A 
ATOM     13  N   UNL     1      -3.238  12.148  19.038  0.00  0.00    +0.000 NA
ATOM     14  C   UNL     1      -4.576  11.830  19.042  0.00  0.00    +0.000 A 
ATOM     15  C   UNL     1      -5.316  11.044  18.148  0.00  0.00    +0.000 A 
ATOM     16  C   UNL     1      -6.683  10.852  18.392  0.00  0.00    +0.000 A 
ATOM     17  C   UNL     1      -7.299  11.438  19.504  0.00  0.00    +0.000 A 
ATOM     18  C   UNL     1      -6.579  12.226  20.400  0.00  0.00    +0.000 A 
ATOM     19  C   UNL     1      -5.217  12.396  20.137  0.00  0.00    +0.000 A 
ATOM     20  N   UNL     1      -4.226  13.078  20.791  0.00  0.00    +0.000 N 
ATOM     21  H   UNL     1      -4.338  13.607  21.645  0.00  0.00    +0.000 HD
ENDBRANCH  11  12
ENDBRANCH   9  11
ENDBRANCH   4   7
BRANCH   1  22
ATOM     22  O   UNL     1       1.731   8.049  20.698  0.00  0.00    +0.000 OA
BRANCH  22  23
ATOM     23  C   UNL     1       1.682   6.660  20.376  0.00  0.00    +0.000 C 
BRANCH  23  27
ATOM     24  C   UNL     1       4.216   5.890  16.994  0.00  0.00    +0.000 A 
ATOM     25  C   UNL     1       3.610   4.828  17.667  0.00  0.00    +0.000 A 
ATOM     26  C   UNL     1       2.800   5.081  18.768  0.00  0.00    +0.000 A 
ATOM     27  C   UNL     1       2.590   6.397  19.207  0.00  0.00    +0.000 A 
ATOM     28  C   UNL     1       3.185   7.458  18.511  0.00  0.00    +0.000 A 
ATOM     29  C   UNL     1       3.999   7.203  17.407  0.00  0.00    +0.000 A 
BRANCH  24  31
ATOM     30  C   UNL     1       5.674   5.214  14.935  0.00  0.00    +0.000 C 
ATOM     31  C   UNL     1       4.981   5.613  15.827  0.00  0.00    +0.000 C 
BRANCH  30  32
ATOM     32  C   UNL     1       6.523   4.481  13.994  0.00  0.00    +0.000 C 
BRANCH  32  33
ATOM     33  C   UNL     1       5.641   3.459  13.273  0.00  0.00    +0.000 C 
BRANCH  33  34
ATOM     34  C   UNL     1       6.286   2.942  11.996  0.00  0.00    +0.000 C 
BRANCH  34  35
ATOM     35  C   UNL     1       5.220   2.556  10.969  0.00  0.00    +0.000 C 
BRANCH  35  37
ATOM     36  C   UNL     1       3.319   3.906  10.014  0.00  0.00    +0.000 C 
ATOM     37  C   UNL     1       3.908   3.275  11.263  0.00  0.00    +0.000 C 
ENDBRANCH  35  37
ENDBRANCH  34  35
ENDBRANCH  33  34
ENDBRANCH  32  33
ENDBRANCH  30  32
ENDBRANCH  24  31
ENDBRANCH  23  27
ENDBRANCH  22  23
ENDBRANCH   1  22
TORSDOF 12
ENDMDL
MODEL 4
REMARK VINA RESULT:      -6.9      6.925     10.178
REMARK  Name = 
REMARK  13 active torsions:
REMARK  status: ('A' for Active; 'I' for Inactive)
REMARK    1  A    between atoms: C_1  and  C_2
REMARK    2  A    between atoms: C_2  and  C_3
REMARK    3  A    between atoms: C_3  and  C_4
REMARK    4  A    between atoms: C_4  and  C_5
REMARK    5  A    between atoms: C_5  and  C_6
REMARK    6  A    between atoms: C_6  and  C_7
REMARK    7  A    between atoms: C_8  and  C_9
REMARK    8  A    between atoms: C_12  and  C_13
REMARK    9  A    between atoms: C_13  and  O_14
REMARK   10  A    between atoms: O_14  and  C_15
REMARK   11  A    between atoms: C_18  and  C_19
REMARK   12  A    between atoms: N_21  and  C_22
REMARK   13  A    between atoms: C_22  and  C_23
REMARK                            x       y       z     vdW  Elec       q    Type
REMARK                         _______ _______ _______ _____ _____    ______ ____
ROOT
ATOM      1  C   UNL     1       8.774  10.533  19.087  0.00  0.00    +0.000 C 
ATOM      2  C   UNL     1       9.695  10.978  20.219  0.00  0.00    +0.000 C 
ATOM      3  N   UNL     1      11.014  11.094  19.569  0.00  0.00    +0.000 NA
ATOM      4  C   UNL     1      10.715  11.713  18.241  0.00  0.00    +0.000 C 
ATOM      5  C   UNL     1       9.242  11.412  17.931  0.00  0.00    +0.000 C 
ATOM      6  H   UNL     1      11.322  10.137  19.368  0.00  0.00    +0.000 HD
ENDROOT
BRANCH   4   7
ATOM      7  C   UNL     1      10.973  13.233  18.261  0.00  0.00    +0.000 C 
ATOM      8  O   UNL     1      11.605  13.777  19.164  0.00  0.00    +0.000 OA
ATOM      9  N   UNL     1      10.472  13.926  17.186  0.00  0.00    +0.000 N 
ATOM     10  H   UNL     1       9.798  13.438  16.597  0.00  0.00    +0.000 HD
BRANCH   9  11
ATOM     11  C   UNL     1      10.575  15.357  17.113  0.00  0.00    +0.000 C 
BRANCH  11  12
ATOM     12  C   UNL     1       9.518  15.999  17.945  0.00  0.00    +0.000 A 
ATOM     13  N   UNL     1       9.668  16.922  18.878  0.00  0.00    +0.000 NA
ATOM     14  C   UNL     1       8.398  17.240  19.296  0.00  0.00    +0.000 A 
ATOM     15  C   UNL     1       7.973  18.173  20.252  0.00  0.00    +0.000 A 
ATOM     16  C   UNL     1       6.598  18.325  20.481  0.00  0.00    +0.000 A 
ATOM     17  C   UNL     1       5.667  17.555  19.773  0.00  0.00    +0.000 A 
ATOM     18  C   UNL     1       6.073  16.619  18.823  0.00  0.00    +0.000 A 
ATOM     19  C   UNL     1       7.448  16.493  18.610  0.00  0.00    +0.000 A 
ATOM     20  N   UNL     1       8.186  15.703  17.768  0.00  0.00    +0.000 N 
ATOM     21  H   UNL     1       7.814  15.034  17.110  0.00  0.00    +0.000 HD
ENDBRANCH  11  12
ENDBRANCH   9  11
ENDBRANCH   4   7
BRANCH   1  22
ATOM     22  O   UNL     1       8.988   9.165  18.719  0.00  0.00    +0.000 OA
BRANCH  22  23
ATOM     23  C   UNL     1       8.265   8.775  17.551  0.00  0.00    +0.000 C 
BRANCH  23  27
ATOM     24  C   UNL     1       5.993   5.253  18.491  0.00  0.00    +0.000 A 
ATOM     25  C   UNL     1       7.210   5.489  19.132  0.00  0.00    +0.000 A 
ATOM     26  C   UNL     1       7.948   6.624  18.816  0.00  0.00    +0.000 A 
ATOM     27  C   UNL     1       7.477   7.532  17.856  0.00  0.00    +0.000 A 
ATOM     28  C   UNL     1       6.242   7.299  17.235  0.00  0.00    +0.000 A 
ATOM     29  C   UNL     1       5.503   6.159  17.551  0.00  0.00    +0.000 A 
BRANCH  24  31
ATOM     30  C   UNL     1       4.462   3.303  19.313  0.00  0.00    +0.000 C 
ATOM     31  C   UNL     1       5.221   4.125  18.882  0.00  0.00    +0.000 C 
BRANCH  30  32
ATOM     32  C   UNL     1       3.385   2.525  19.926  0.00  0.00    +0.000 C 
BRANCH  32  33
ATOM     33  C   UNL     1       2.182   2.571  18.981  0.00  0.00    +0.000 C 
BRANCH  33  34
ATOM     34  C   UNL     1       1.605   3.972  18.853  0.00  0.00    +0.000 C 
BRANCH  34  35
ATOM     35  C   UNL     1       1.637   4.697  20.199  0.00  0.00    +0.000 C 
BRANCH  35  37
ATOM     36  C   UNL     1       1.453   7.138  20.798  0.00  0.00    +0.000 C 
ATOM     37  C   UNL     1       2.248   6.086  20.046  0.00  0.00    +0.000 C 
ENDBRANCH  35  37
ENDBRANCH  34  35
ENDBRANCH  33  34
ENDBRANCH  32  33
ENDBRANCH  30  32
ENDBRANCH  24  31
ENDBRANCH  23  27
ENDBRANCH  22  23
ENDBRANCH   1  22
TORSDOF 12
ENDMDL
MODEL 5
REMARK VINA RESULT:      -6.9      4.898      9.055
REMARK  Name = 
REMARK  13 active torsions:
REMARK  status: ('A' for Active; 'I' for Inactive)
REMARK    1  A    between atoms: C_1  and  C_2
REMARK    2  A    between atoms: C_2  and  C_3
REMARK    3  A    between atoms: C_3  and  C_4
REMARK    4  A    between atoms: C_4  and  C_5
REMARK    5  A    between atoms: C_5  and  C_6
REMARK    6  A    between atoms: C_6  and  C_7
REMARK    7  A    between atoms: C_8  and  C_9
REMARK    8  A    between atoms: C_12  and  C_13
REMARK    9  A    between atoms: C_13  and  O_14
REMARK   10  A    between atoms: O_14  and  C_15
REMARK   11  A    between atoms: C_18  and  C_19
REMARK   12  A    between atoms: N_21  and  C_22
REMARK   13  A    between atoms: C_22  and  C_23
REMARK                            x       y       z     vdW  Elec       q    Type
REMARK                         _______ _______ _______ _____ _____    ______ ____
ROOT
ATOM      1  C   UNL     1       0.915  13.248  19.844  0.00  0.00    +0.000 C 
ATOM      2  C   UNL     1       0.869  14.649  20.446  0.00  0.00    +0.000 C 
ATOM      3  N   UNL     1       1.871  14.596  21.527  0.00  0.00    +0.000 NA
ATOM      4  C   UNL     1       3.001  13.811  20.942  0.00  0.00    +0.000 C 
ATOM      5  C   UNL     1       2.414  12.968  19.802  0.00  0.00    +0.000 C 
ATOM      6  H   UNL     1       1.472  14.004  22.262  0.00  0.00    +0.000 HD
ENDROOT
BRANCH   4   7
ATOM      7  C   UNL     1       4.116  14.740  20.421  0.00  0.00    +0.000 C 
ATOM      8  O   UNL     1       4.024  15.335  19.349  0.00  0.00    +0.000 OA
ATOM      9  N   UNL     1       5.202  14.875  21.251  0.00  0.00    +0.000 N 
ATOM     10  H   UNL     1       5.287  14.200  22.011  0.00  0.00    +0.000 HD
BRANCH   9  11
ATOM     11  C   UNL     1       6.346  15.650  20.857  0.00  0.00    +0.000 C 
BRANCH  11  12
ATOM     12  C   UNL     1       7.470  14.756  20.462  0.00  0.00    +0.000 A 
ATOM     13  N   UNL     1       8.047  14.653  19.278  0.00  0.00    +0.000 NA
ATOM     14  C   UNL     1       9.074  13.754  19.440  0.00  0.00    +0.000 A 
ATOM     15  C   UNL     1      10.021  13.293  18.514  0.00  0.00    +0.000 A 
ATOM     16  C   UNL     1      10.994  12.379  18.944  0.00  0.00    +0.000 A 
ATOM     17  C   UNL     1      11.017  11.932  20.271  0.00  0.00    +0.000 A 
ATOM     18  C   UNL     1      10.080  12.376  21.202  0.00  0.00    +0.000 A 
ATOM     19  C   UNL     1       9.126  13.291  20.750  0.00  0.00    +0.000 A 
ATOM     20  N   UNL     1       8.088  13.931  21.373  0.00  0.00    +0.000 N 
ATOM     21  H   UNL     1       7.835  13.834  22.346  0.00  0.00    +0.000 HD
ENDBRANCH  11  12
ENDBRANCH   9  11
ENDBRANCH   4   7
BRANCH   1  22
ATOM     22  O   UNL     1       0.305  12.270  20.697  0.00  0.00    +0.000 OA
BRANCH  22  23
ATOM     23  C   UNL     1      -0.465  11.303  19.985  0.00  0.00    +0.000 C 
BRANCH  23  27
ATOM     24  C   UNL     1       2.021   7.976  18.891  0.00  0.00    +0.000 A 
ATOM     25  C   UNL     1       1.601   8.126  20.214  0.00  0.00    +0.000 A 
ATOM     26  C   UNL     1       0.806   9.212  20.566  0.00  0.00    +0.000 A 
ATOM     27  C   UNL     1       0.425  10.155  19.600  0.00  0.00    +0.000 A 
ATOM     28  C   UNL     1       0.833   9.982  18.270  0.00  0.00    +0.000 A 
ATOM     29  C   UNL     1       1.632   8.894  17.918  0.00  0.00    +0.000 A 
BRANCH  24  31
ATOM     30  C   UNL     1       3.402   5.920  18.061  0.00  0.00    +0.000 C 
ATOM     31  C   UNL     1       2.772   6.820  18.539  0.00  0.00    +0.000 C 
BRANCH  30  32
ATOM     32  C   UNL     1       4.183   4.988  17.246  0.00  0.00    +0.000 C 
BRANCH  32  33
ATOM     33  C   UNL     1       3.412   3.668  17.183  0.00  0.00    +0.000 C 
BRANCH  33  34
ATOM     34  C   UNL     1       3.422   2.932  18.513  0.00  0.00    +0.000 C 
BRANCH  34  35
ATOM     35  C   UNL     1       2.240   1.965  18.606  0.00  0.00    +0.000 C 
BRANCH  35  37
ATOM     36  C   UNL     1       1.086   3.520  20.220  0.00  0.00    +0.000 C 
ATOM     37  C   UNL     1       0.956   2.719  18.936  0.00  0.00    +0.000 C 
ENDBRANCH  35  37
ENDBRANCH  34  35
ENDBRANCH  33  34
ENDBRANCH  32  33
ENDBRANCH  30  32
ENDBRANCH  24  31
ENDBRANCH  23  27
ENDBRANCH  22  23
ENDBRANCH   1  22
TORSDOF 12
ENDMDL
MODEL 6
REMARK VINA RESULT:      -6.9      5.438      8.973
REMARK  Name = 
REMARK  13 active torsions:
REMARK  status: ('A' for Active; 'I' for Inactive)
REMARK    1  A    between atoms: C_1  and  C_2
REMARK    2  A    between atoms: C_2  and  C_3
REMARK    3  A    between atoms: C_3  and  C_4
REMARK    4  A    between atoms: C_4  and  C_5
REMARK    5  A    between atoms: C_5  and  C_6
REMARK    6  A    between atoms: C_6  and  C_7
REMARK    7  A    between atoms: C_8  and  C_9
REMARK    8  A    between atoms: C_12  and  C_13
REMARK    9  A    between atoms: C_13  and  O_14
REMARK   10  A    between atoms: O_14  and  C_15
REMARK   11  A    between atoms: C_18  and  C_19
REMARK   12  A    between atoms: N_21  and  C_22
REMARK   13  A    between atoms: C_22  and  C_23
REMARK                            x       y       z     vdW  Elec       q    Type
REMARK                         _______ _______ _______ _____ _____    ______ ____
ROOT
ATOM      1  C   UNL     1       0.451  13.339  20.401  0.00  0.00    +0.000 C 
ATOM      2  C   UNL     1       1.056  14.285  21.434  0.00  0.00    +0.000 C 
ATOM      3  N   UNL     1       2.487  13.929  21.435  0.00  0.00    +0.000 NA
ATOM      4  C   UNL     1       2.811  13.708  19.992  0.00  0.00    +0.000 C 
ATOM      5  C   UNL     1       1.489  13.381  19.285  0.00  0.00    +0.000 C 
ATOM      6  H   UNL     1       2.556  13.008  21.880  0.00  0.00    +0.000 HD
ENDROOT
BRANCH   4   7
ATOM      7  C   UNL     1       3.473  14.954  19.371  0.00  0.00    +0.000 C 
ATOM      8  O   UNL     1       2.851  15.741  18.661  0.00  0.00    +0.000 OA
ATOM      9  N   UNL     1       4.797  15.134  19.691  0.00  0.00    +0.000 N 
ATOM     10  H   UNL     1       5.281  14.341  20.111  0.00  0.00    +0.000 HD
BRANCH   9  11
ATOM     11  C   UNL     1       5.558  16.212  19.122  0.00  0.00    +0.000 C 
BRANCH  11  12
ATOM     12  C   UNL     1       6.924  15.748  18.752  0.00  0.00    +0.000 A 
ATOM     13  N   UNL     1       7.330  14.509  18.538  0.00  0.00    +0.000 NA
ATOM     14  C   UNL     1       8.646  14.609  18.154  0.00  0.00    +0.000 A 
ATOM     15  C   UNL     1       9.555  13.606  17.787  0.00  0.00    +0.000 A 
ATOM     16  C   UNL     1      10.853  13.978  17.410  0.00  0.00    +0.000 A 
ATOM     17  C   UNL     1      11.237  15.325  17.405  0.00  0.00    +0.000 A 
ATOM     18  C   UNL     1      10.348  16.333  17.773  0.00  0.00    +0.000 A 
ATOM     19  C   UNL     1       9.059  15.936  18.138  0.00  0.00    +0.000 A 
ATOM     20  N   UNL     1       7.951  16.637  18.535  0.00  0.00    +0.000 N 
ATOM     21  H   UNL     1       7.891  17.641  18.628  0.00  0.00    +0.000 HD
ENDBRANCH  11  12
ENDBRANCH   9  11
ENDBRANCH   4   7
BRANCH   1  22
ATOM     22  O   UNL     1       0.369  11.991  20.881  0.00  0.00    +0.000 OA
BRANCH  22  23
ATOM     23  C   UNL     1      -0.372  11.129  20.018  0.00  0.00    +0.000 C 
BRANCH  23  27
ATOM     24  C   UNL     1       2.085   7.816  18.823  0.00  0.00    +0.000 A 
ATOM     25  C   UNL     1       1.760   7.992  20.168  0.00  0.00    +0.000 A 
ATOM     26  C   UNL     1       0.974   9.073  20.552  0.00  0.00    +0.000 A 
ATOM     27  C   UNL     1       0.508   9.987  19.595  0.00  0.00    +0.000 A 
ATOM     28  C   UNL     1       0.821   9.787  18.243  0.00  0.00    +0.000 A 
ATOM     29  C   UNL     1       1.611   8.703  17.859  0.00  0.00    +0.000 A 
BRANCH  24  31
ATOM     30  C   UNL     1       3.577   5.820  18.039  0.00  0.00    +0.000 C 
ATOM     31  C   UNL     1       2.829   6.664  18.444  0.00  0.00    +0.000 C 
BRANCH  30  32
ATOM     32  C   UNL     1       4.661   5.011  17.480  0.00  0.00    +0.000 C 
BRANCH  32  33
ATOM     33  C   UNL     1       4.122   3.594  17.269  0.00  0.00    +0.000 C 
BRANCH  33  34
ATOM     34  C   UNL     1       3.370   3.078  18.486  0.00  0.00    +0.000 C 
BRANCH  34  35
ATOM     35  C   UNL     1       1.931   2.713  18.119  0.00  0.00    +0.000 C 
BRANCH  35  37
ATOM     36  C   UNL     1       1.079   3.978  20.125  0.00  0.00    +0.000 C 
ATOM     37  C   UNL     1       1.055   2.663  19.366  0.00  0.00    +0.000 C 
ENDBRANCH  35  37
ENDBRANCH  34  35
ENDBRANCH  33  34
ENDBRANCH  32  33
ENDBRANCH  30  32
ENDBRANCH  24  31
ENDBRANCH  23  27
ENDBRANCH  22  23
ENDBRANCH   1  22
TORSDOF 12
ENDMDL
MODEL 7
REMARK VINA RESULT:      -6.9      5.558      9.242
REMARK  Name = 
REMARK  13 active torsions:
REMARK  status: ('A' for Active; 'I' for Inactive)
REMARK    1  A    between atoms: C_1  and  C_2
REMARK    2  A    between atoms: C_2  and  C_3
REMARK    3  A    between atoms: C_3  and  C_4
REMARK    4  A    between atoms: C_4  and  C_5
REMARK    5  A    between atoms: C_5  and  C_6
REMARK    6  A    between atoms: C_6  and  C_7
REMARK    7  A    between atoms: C_8  and  C_9
REMARK    8  A    between atoms: C_12  and  C_13
REMARK    9  A    between atoms: C_13  and  O_14
REMARK   10  A    between atoms: O_14  and  C_15
REMARK   11  A    between atoms: C_18  and  C_19
REMARK   12  A    between atoms: N_21  and  C_22
REMARK   13  A    between atoms: C_22  and  C_23
REMARK                            x       y       z     vdW  Elec       q    Type
REMARK                         _______ _______ _______ _____ _____    ______ ____
ROOT
ATOM      1  C   UNL     1       0.596  13.347  19.735  0.00  0.00    +0.000 C 
ATOM      2  C   UNL     1       1.040  14.058  21.009  0.00  0.00    +0.000 C 
ATOM      3  N   UNL     1       2.461  13.684  21.140  0.00  0.00    +0.000 NA
ATOM      4  C   UNL     1       2.986  13.747  19.742  0.00  0.00    +0.000 C 
ATOM      5  C   UNL     1       1.781  13.589  18.806  0.00  0.00    +0.000 C 
ATOM      6  H   UNL     1       2.475  12.692  21.399  0.00  0.00    +0.000 HD
ENDROOT
BRANCH   4   7
ATOM      7  C   UNL     1       3.717  15.079  19.479  0.00  0.00    +0.000 C 
ATOM      8  O   UNL     1       3.134  16.161  19.503  0.00  0.00    +0.000 OA
ATOM      9  N   UNL     1       5.067  14.971  19.246  0.00  0.00    +0.000 N 
ATOM     10  H   UNL     1       5.426  14.038  19.046  0.00  0.00    +0.000 HD
BRANCH   9  11
ATOM     11  C   UNL     1       5.856  16.124  18.913  0.00  0.00    +0.000 C 
BRANCH  11  12
ATOM     12  C   UNL     1       7.239  15.717  18.533  0.00  0.00    +0.000 A 
ATOM     13  N   UNL     1       7.728  14.494  18.439  0.00  0.00    +0.000 NA
ATOM     14  C   UNL     1       9.017  14.642  17.985  0.00  0.00    +0.000 A 
ATOM     15  C   UNL     1       9.983  13.670  17.689  0.00  0.00    +0.000 A 
ATOM     16  C   UNL     1      11.234  14.087  17.213  0.00  0.00    +0.000 A 
ATOM     17  C   UNL     1      11.516  15.448  17.042  0.00  0.00    +0.000 A 
ATOM     18  C   UNL     1      10.569  16.427  17.336  0.00  0.00    +0.000 A 
ATOM     19  C   UNL     1       9.328  15.984  17.803  0.00  0.00    +0.000 A 
ATOM     20  N   UNL     1       8.187  16.646  18.172  0.00  0.00    +0.000 N 
ATOM     21  H   UNL     1       8.056  17.647  18.156  0.00  0.00    +0.000 HD
ENDBRANCH  11  12
ENDBRANCH   9  11
ENDBRANCH   4   7
BRANCH   1  22
ATOM     22  O   UNL     1       0.461  11.932  19.922  0.00  0.00    +0.000 OA
BRANCH  22  23
ATOM     23  C   UNL     1       0.930  11.169  18.810  0.00  0.00    +0.000 C 
BRANCH  23  27
ATOM     24  C   UNL     1       1.768   7.160  20.102  0.00  0.00    +0.000 A 
ATOM     25  C   UNL     1       2.117   7.564  18.813  0.00  0.00    +0.000 A 
ATOM     26  C   UNL     1       1.834   8.860  18.395  0.00  0.00    +0.000 A 
ATOM     27  C   UNL     1       1.197   9.761  19.261  0.00  0.00    +0.000 A 
ATOM     28  C   UNL     1       0.871   9.352  20.562  0.00  0.00    +0.000 A 
ATOM     29  C   UNL     1       1.155   8.052  20.980  0.00  0.00    +0.000 A 
BRANCH  24  31
ATOM     30  C   UNL     1       2.257   4.705  20.849  0.00  0.00    +0.000 C 
ATOM     31  C   UNL     1       2.134   5.855  20.533  0.00  0.00    +0.000 C 
BRANCH  30  32
ATOM     32  C   UNL     1       2.154   3.269  21.111  0.00  0.00    +0.000 C 
BRANCH  32  33
ATOM     33  C   UNL     1       2.527   2.534  19.821  0.00  0.00    +0.000 C 
BRANCH  33  34
ATOM     34  C   UNL     1       1.529   2.791  18.703  0.00  0.00    +0.000 C 
BRANCH  34  35
ATOM     35  C   UNL     1       2.251   3.157  17.406  0.00  0.00    +0.000 C 
BRANCH  35  37
ATOM     36  C   UNL     1       4.111   4.854  17.288  0.00  0.00    +0.000 C 
ATOM     37  C   UNL     1       3.726   3.437  17.674  0.00  0.00    +0.000 C 
ENDBRANCH  35  37
ENDBRANCH  34  35
ENDBRANCH  33  34
ENDBRANCH  32  33
ENDBRANCH  30  32
ENDBRANCH  24  31
ENDBRANCH  23  27
ENDBRANCH  22  23
ENDBRANCH   1  22
TORSDOF 12
ENDMDL
MODEL 8
REMARK VINA RESULT:      -6.8      3.090      4.625
REMARK  Name = 
REMARK  13 active torsions:
REMARK  status: ('A' for Active; 'I' for Inactive)
REMARK    1  A    between atoms: C_1  and  C_2
REMARK    2  A    between atoms: C_2  and  C_3
REMARK    3  A    between atoms: C_3  and  C_4
REMARK    4  A    between atoms: C_4  and  C_5
REMARK    5  A    between atoms: C_5  and  C_6
REMARK    6  A    between atoms: C_6  and  C_7
REMARK    7  A    between atoms: C_8  and  C_9
REMARK    8  A    between atoms: C_12  and  C_13
REMARK    9  A    between atoms: C_13  and  O_14
REMARK   10  A    between atoms: O_14  and  C_15
REMARK   11  A    between atoms: C_18  and  C_19
REMARK   12  A    between atoms: N_21  and  C_22
REMARK   13  A    between atoms: C_22  and  C_23
REMARK                            x       y       z     vdW  Elec       q    Type
REMARK                         _______ _______ _______ _____ _____    ______ ____
ROOT
ATOM      1  C   UNL     1      -1.349  11.226  18.317  0.00  0.00    +0.000 C 
ATOM      2  C   UNL     1      -1.817  10.173  17.318  0.00  0.00    +0.000 C 
ATOM      3  N   UNL     1      -3.112   9.725  17.866  0.00  0.00    +0.000 NA
ATOM      4  C   UNL     1      -3.760  10.983  18.348  0.00  0.00    +0.000 C 
ATOM      5  C   UNL     1      -2.635  11.997  18.594  0.00  0.00    +0.000 C 
ATOM      6  H   UNL     1      -2.897   9.181  18.707  0.00  0.00    +0.000 HD
ENDROOT
BRANCH   4   7
ATOM      7  C   UNL     1      -4.772  11.521  17.318  0.00  0.00    +0.000 C 
ATOM      8  O   UNL     1      -4.566  11.465  16.107  0.00  0.00    +0.000 OA
ATOM      9  N   UNL     1      -5.928  12.041  17.849  0.00  0.00    +0.000 N 
ATOM     10  H   UNL     1      -5.930  12.231  18.850  0.00  0.00    +0.000 HD
BRANCH   9  11
ATOM     11  C   UNL     1      -6.924  12.645  17.008  0.00  0.00    +0.000 C 
BRANCH  11  12
ATOM     12  C   UNL     1      -6.908  14.127  17.161  0.00  0.00    +0.000 A 
ATOM     13  N   UNL     1      -6.625  14.827  18.244  0.00  0.00    +0.000 NA
ATOM     14  C   UNL     1      -6.673  16.146  17.859  0.00  0.00    +0.000 A 
ATOM     15  C   UNL     1      -6.435  17.310  18.604  0.00  0.00    +0.000 A 
ATOM     16  C   UNL     1      -6.528  18.552  17.960  0.00  0.00    +0.000 A 
ATOM     17  C   UNL     1      -6.859  18.630  16.602  0.00  0.00    +0.000 A 
ATOM     18  C   UNL     1      -7.104  17.483  15.849  0.00  0.00    +0.000 A 
ATOM     19  C   UNL     1      -6.998  16.258  16.512  0.00  0.00    +0.000 A 
ATOM     20  N   UNL     1      -7.156  14.962  16.096  0.00  0.00    +0.000 N 
ATOM     21  H   UNL     1      -7.390  14.669  15.159  0.00  0.00    +0.000 HD
ENDBRANCH  11  12
ENDBRANCH   9  11
ENDBRANCH   4   7
BRANCH   1  22
ATOM     22  O   UNL     1      -0.906  10.645  19.551  0.00  0.00    +0.000 OA
BRANCH  22  23
ATOM     23  C   UNL     1       0.490  10.820  19.788  0.00  0.00    +0.000 C 
BRANCH  23  27
ATOM     24  C   UNL     1       2.361   6.958  19.619  0.00  0.00    +0.000 A 
ATOM     25  C   UNL     1       1.764   7.392  20.804  0.00  0.00    +0.000 A 
ATOM     26  C   UNL     1       1.169   8.648  20.857  0.00  0.00    +0.000 A 
ATOM     27  C   UNL     1       1.168   9.481  19.728  0.00  0.00    +0.000 A 
ATOM     28  C   UNL     1       1.750   9.026  18.537  0.00  0.00    +0.000 A 
ATOM     29  C   UNL     1       2.348   7.766  18.484  0.00  0.00    +0.000 A 
BRANCH  24  31
ATOM     30  C   UNL     1       3.326   4.548  19.327  0.00  0.00    +0.000 C 
ATOM     31  C   UNL     1       2.897   5.642  19.566  0.00  0.00    +0.000 C 
BRANCH  30  32
ATOM     32  C   UNL     1       3.840   3.300  18.763  0.00  0.00    +0.000 C 
BRANCH  32  33
ATOM     33  C   UNL     1       3.632   3.354  17.248  0.00  0.00    +0.000 C 
BRANCH  33  34
ATOM     34  C   UNL     1       4.580   4.332  16.572  0.00  0.00    +0.000 C 
BRANCH  34  35
ATOM     35  C   UNL     1       5.761   3.593  15.941  0.00  0.00    +0.000 C 
BRANCH  35  37
ATOM     36  C   UNL     1       6.397   4.047  13.545  0.00  0.00    +0.000 C 
ATOM     37  C   UNL     1       6.519   4.509  14.986  0.00  0.00    +0.000 C 
ENDBRANCH  35  37
ENDBRANCH  34  35
ENDBRANCH  33  34
ENDBRANCH  32  33
ENDBRANCH  30  32
ENDBRANCH  24  31
ENDBRANCH  23  27
ENDBRANCH  22  23
ENDBRANCH   1  22
TORSDOF 12
ENDMDL
MODEL 9
REMARK VINA RESULT:      -6.8      3.750      5.678
REMARK  Name = 
REMARK  13 active torsions:
REMARK  status: ('A' for Active; 'I' for Inactive)
REMARK    1  A    between atoms: C_1  and  C_2
REMARK    2  A    between atoms: C_2  and  C_3
REMARK    3  A    between atoms: C_3  and  C_4
REMARK    4  A    between atoms: C_4  and  C_5
REMARK    5  A    between atoms: C_5  and  C_6
REMARK    6  A    between atoms: C_6  and  C_7
REMARK    7  A    between atoms: C_8  and  C_9
REMARK    8  A    between atoms: C_12  and  C_13
REMARK    9  A    between atoms: C_13  and  O_14
REMARK   10  A    between atoms: O_14  and  C_15
REMARK   11  A    between atoms: C_18  and  C_19
REMARK   12  A    between atoms: N_21  and  C_22
REMARK   13  A    between atoms: C_22  and  C_23
REMARK                            x       y       z     vdW  Elec       q    Type
REMARK                         _______ _______ _______ _____ _____    ______ ____
ROOT
ATOM      1  C   UNL     1       1.762   4.717  18.750  0.00  0.00    +0.000 C 
ATOM      2  C   UNL     1       1.473   4.653  20.247  0.00  0.00    +0.000 C 
ATOM      3  N   UNL     1       2.485   5.552  20.834  0.00  0.00    +0.000 NA
ATOM      4  C   UNL     1       2.540   6.709  19.889  0.00  0.00    +0.000 C 
ATOM      5  C   UNL     1       2.017   6.205  18.538  0.00  0.00    +0.000 C 
ATOM      6  H   UNL     1       3.386   5.073  20.741  0.00  0.00    +0.000 HD
ENDROOT
BRANCH   4   7
ATOM      7  C   UNL     1       1.692   7.891  20.402  0.00  0.00    +0.000 C 
ATOM      8  O   UNL     1       1.141   7.872  21.500  0.00  0.00    +0.000 OA
ATOM      9  N   UNL     1       1.622   8.972  19.557  0.00  0.00    +0.000 N 
ATOM     10  H   UNL     1       1.934   8.826  18.597  0.00  0.00    +0.000 HD
BRANCH   9  11
ATOM     11  C   UNL     1       0.805  10.110  19.875  0.00  0.00    +0.000 C 
BRANCH  11  12
ATOM     12  C   UNL     1      -0.307  10.246  18.893  0.00  0.00    +0.000 A 
ATOM     13  N   UNL     1      -0.400   9.703  17.693  0.00  0.00    +0.000 NA
ATOM     14  C   UNL     1      -1.637  10.064  17.215  0.00  0.00    +0.000 A 
ATOM     15  C   UNL     1      -2.261   9.744  16.001  0.00  0.00    +0.000 A 
ATOM     16  C   UNL     1      -3.555  10.226  15.760  0.00  0.00    +0.000 A 
ATOM     17  C   UNL     1      -4.211  11.017  16.712  0.00  0.00    +0.000 A 
ATOM     18  C   UNL     1      -3.602  11.349  17.922  0.00  0.00    +0.000 A 
ATOM     19  C   UNL     1      -2.315  10.850  18.139  0.00  0.00    +0.000 A 
ATOM     20  N   UNL     1      -1.443  10.963  19.188  0.00  0.00    +0.000 N 
ATOM     21  H   UNL     1      -1.616  11.466  20.047  0.00  0.00    +0.000 HD
ENDBRANCH  11  12
ENDBRANCH   9  11
ENDBRANCH   4   7
BRANCH   1  22
ATOM     22  O   UNL     1       2.955   4.007  18.397  0.00  0.00    +0.000 OA
BRANCH  22  23
ATOM     23  C   UNL     1       3.461   4.359  17.109  0.00  0.00    +0.000 C 
BRANCH  23  27
ATOM     24  C   UNL     1       6.736   7.090  17.618  0.00  0.00    +0.000 A 
ATOM     25  C   UNL     1       5.814   7.292  16.590  0.00  0.00    +0.000 A 
ATOM     26  C   UNL     1       4.761   6.398  16.422  0.00  0.00    +0.000 A 
ATOM     27  C   UNL     1       4.623   5.296  17.278  0.00  0.00    +0.000 A 
ATOM     28  C   UNL     1       5.541   5.115  18.322  0.00  0.00    +0.000 A 
ATOM     29  C   UNL     1       6.598   6.011  18.489  0.00  0.00    +0.000 A 
BRANCH  24  31
ATOM     30  C   UNL     1       8.560   8.877  18.170  0.00  0.00    +0.000 C 
ATOM     31  C   UNL     1       7.761   8.055  17.817  0.00  0.00    +0.000 C 
BRANCH  30  32
ATOM     32  C   UNL     1       9.440   9.818  18.863  0.00  0.00    +0.000 C 
BRANCH  32  33
ATOM     33  C   UNL     1       8.787  11.201  18.795  0.00  0.00    +0.000 C 
BRANCH  33  34
ATOM     34  C   UNL     1       9.810  12.324  18.850  0.00  0.00    +0.000 C 
BRANCH  34  35
ATOM     35  C   UNL     1      10.230  12.604  20.294  0.00  0.00    +0.000 C 
BRANCH  35  37
ATOM     36  C   UNL     1      10.098  15.101  20.607  0.00  0.00    +0.000 C 
ATOM     37  C   UNL     1      11.012  13.910  20.382  0.00  0.00    +0.000 C 
ENDBRANCH  35  37
ENDBRANCH  34  35
ENDBRANCH  33  34
ENDBRANCH  32  33
ENDBRANCH  30  32
ENDBRANCH  24  31
ENDBRANCH  23  27
ENDBRANCH  22  23
ENDBRANCH   1  22
TORSDOF 12
ENDMDL
