MODEL 1
REMARK VINA RESULT:      -7.1      0.000      0.000
REMARK  Name = 
REMARK  2 active torsions:
REMARK  status: ('A' for Active; 'I' for Inactive)
REMARK    1  A    between atoms: C_1  and  N_2
REMARK    2  A    between atoms: N_8  and  C_9
REMARK                            x       y       z     vdW  Elec       q    Type
REMARK                         _______ _______ _______ _____ _____    ______ ____
ROOT
ATOM      1  C   UNL     1       7.222   4.854  13.735  0.00  0.00    +0.000 C 
ATOM      2  N   UNL     1       7.461   5.285  15.092  0.00  0.00    +0.000 N 
ATOM      3  C   UNL     1       6.787   4.641  16.107  0.00  0.00    +0.000 C 
ATOM      4  O   UNL     1       5.970   3.749  15.895  0.00  0.00    +0.000 OA
ATOM      5  N   UNL     1       7.111   5.126  17.356  0.00  0.00    +0.000 N 
ATOM      6  C   UNL     1       6.534   4.729  18.539  0.00  0.00    +0.000 C 
ATOM      7  N   UNL     1       6.840   5.388  19.603  0.00  0.00    +0.000 NA
ATOM      8  N   UNL     1       5.674   3.674  18.542  0.00  0.00    +0.000 N 
ATOM      9  H   UNL     1       8.379   5.645  15.306  0.00  0.00    +0.000 HD
ATOM     10  H   UNL     1       7.679   5.948  17.380  0.00  0.00    +0.000 HD
ATOM     11  H   UNL     1       7.514   6.123  19.410  0.00  0.00    +0.000 HD
ATOM     12  H   UNL     1       5.492   3.301  17.608  0.00  0.00    +0.000 HD
ENDROOT
BRANCH   8  13
ATOM     13  C   UNL     1       4.534   3.576  19.443  0.00  0.00    +0.000 C 
ATOM     14  C   UNL     1       3.492   4.653  19.103  0.00  0.00    +0.000 C 
ATOM     15  C   UNL     1       2.760   4.393  17.785  0.00  0.00    +0.000 C 
ATOM     16  C   UNL     1       2.143   2.999  17.745  0.00  0.00    +0.000 C 
ATOM     17  C   UNL     1       3.169   1.912  18.048  0.00  0.00    +0.000 C 
ATOM     18  C   UNL     1       3.917   2.174  19.357  0.00  0.00    +0.000 C 
ENDBRANCH   8  13
TORSDOF 1
ENDMDL
MODEL 2
REMARK VINA RESULT:      -6.6      0.972      1.023
REMARK  Name = 
REMARK  2 active torsions:
REMARK  status: ('A' for Active; 'I' for Inactive)
REMARK    1  A    between atoms: C_1  and  N_2
REMARK    2  A    between atoms: N_8  and  C_9
REMARK                            x       y       z     vdW  Elec       q    Type
REMARK                         _______ _______ _______ _____ _____    ______ ____
ROOT
ATOM      1  C   UNL     1       6.839   4.394  13.872  0.00  0.00    +0.000 C 
ATOM      2  N   UNL     1       7.184   4.723  15.235  0.00  0.00    +0.000 N 
ATOM      3  C   UNL     1       6.261   4.454  16.222  0.00  0.00    +0.000 C 
ATOM      4  O   UNL     1       5.152   3.985  15.979  0.00  0.00    +0.000 OA
ATOM      5  N   UNL     1       6.710   4.793  17.480  0.00  0.00    +0.000 N 
ATOM      6  C   UNL     1       5.972   4.713  18.637  0.00  0.00    +0.000 C 
ATOM      7  N   UNL     1       6.486   5.212  19.709  0.00  0.00    +0.000 NA
ATOM      8  N   UNL     1       4.747   4.121  18.610  0.00  0.00    +0.000 N 
ATOM      9  H   UNL     1       8.159   4.668  15.489  0.00  0.00    +0.000 HD
ATOM     10  H   UNL     1       7.570   5.299  17.523  0.00  0.00    +0.000 HD
ATOM     11  H   UNL     1       7.414   5.587  19.541  0.00  0.00    +0.000 HD
ATOM     12  H   UNL     1       4.462   3.831  17.671  0.00  0.00    +0.000 HD
ENDROOT
BRANCH   8  13
ATOM     13  C   UNL     1       3.638   4.540  19.455  0.00  0.00    +0.000 C 
ATOM     14  C   UNL     1       2.547   5.214  18.608  0.00  0.00    +0.000 C 
ATOM     15  C   UNL     1       1.788   4.235  17.709  0.00  0.00    +0.000 C 
ATOM     16  C   UNL     1       1.222   3.061  18.501  0.00  0.00    +0.000 C 
ATOM     17  C   UNL     1       2.296   2.358  19.324  0.00  0.00    +0.000 C 
ATOM     18  C   UNL     1       3.071   3.332  20.213  0.00  0.00    +0.000 C 
ENDBRANCH   8  13
TORSDOF 1
ENDMDL
MODEL 3
REMARK VINA RESULT:      -6.5      2.040      2.871
REMARK  Name = 
REMARK  2 active torsions:
REMARK  status: ('A' for Active; 'I' for Inactive)
REMARK    1  A    between atoms: C_1  and  N_2
REMARK    2  A    between atoms: N_8  and  C_9
REMARK                            x       y       z     vdW  Elec       q    Type
REMARK                         _______ _______ _______ _____ _____    ______ ____
ROOT
ATOM      1  C   UNL     1       7.775   8.448  17.629  0.00  0.00    +0.000 C 
ATOM      2  N   UNL     1       7.743   7.215  16.879  0.00  0.00    +0.000 N 
ATOM      3  C   UNL     1       6.643   6.396  17.022  0.00  0.00    +0.000 C 
ATOM      4  O   UNL     1       5.719   6.658  17.787  0.00  0.00    +0.000 OA
ATOM      5  N   UNL     1       6.719   5.260  16.244  0.00  0.00    +0.000 N 
ATOM      6  C   UNL     1       5.807   4.232  16.247  0.00  0.00    +0.000 C 
ATOM      7  N   UNL     1       6.100   3.172  15.574  0.00  0.00    +0.000 NA
ATOM      8  N   UNL     1       4.649   4.366  16.949  0.00  0.00    +0.000 N 
ATOM      9  H   UNL     1       8.208   7.208  15.984  0.00  0.00    +0.000 HD
ATOM     10  H   UNL     1       7.587   5.097  15.779  0.00  0.00    +0.000 HD
ATOM     11  H   UNL     1       6.992   3.265  15.097  0.00  0.00    +0.000 HD
ATOM     12  H   UNL     1       4.597   5.241  17.475  0.00  0.00    +0.000 HD
ENDROOT
BRANCH   8  13
ATOM     13  C   UNL     1       3.976   3.251  17.601  0.00  0.00    +0.000 C 
ATOM     14  C   UNL     1       4.129   3.355  19.126  0.00  0.00    +0.000 C 
ATOM     15  C   UNL     1       3.317   4.498  19.740  0.00  0.00    +0.000 C 
ATOM     16  C   UNL     1       1.847   4.428  19.338  0.00  0.00    +0.000 C 
ATOM     17  C   UNL     1       1.673   4.358  17.825  0.00  0.00    +0.000 C 
ATOM     18  C   UNL     1       2.494   3.228  17.202  0.00  0.00    +0.000 C 
ENDBRANCH   8  13
TORSDOF 1
ENDMDL
MODEL 4
REMARK VINA RESULT:      -6.5      1.021      1.056
REMARK  Name = 
REMARK  2 active torsions:
REMARK  status: ('A' for Active; 'I' for Inactive)
REMARK    1  A    between atoms: C_1  and  N_2
REMARK    2  A    between atoms: N_8  and  C_9
REMARK                            x       y       z     vdW  Elec       q    Type
REMARK                         _______ _______ _______ _____ _____    ______ ____
ROOT
ATOM      1  C   UNL     1       6.516   3.939  12.956  0.00  0.00    +0.000 C 
ATOM      2  N   UNL     1       7.147   4.561  14.096  0.00  0.00    +0.000 N 
ATOM      3  C   UNL     1       6.666   4.256  15.351  0.00  0.00    +0.000 C 
ATOM      4  O   UNL     1       5.705   3.511  15.527  0.00  0.00    +0.000 OA
ATOM      5  N   UNL     1       7.357   4.894  16.359  0.00  0.00    +0.000 N 
ATOM      6  C   UNL     1       7.046   4.840  17.696  0.00  0.00    +0.000 C 
ATOM      7  N   UNL     1       7.698   5.615  18.493  0.00  0.00    +0.000 NA
ATOM      8  N   UNL     1       6.076   3.986  18.123  0.00  0.00    +0.000 N 
ATOM      9  H   UNL     1       8.129   4.775  14.020  0.00  0.00    +0.000 HD
ATOM     10  H   UNL     1       8.021   5.584  16.073  0.00  0.00    +0.000 HD
ATOM     11  H   UNL     1       8.397   6.160  17.998  0.00  0.00    +0.000 HD
ATOM     12  H   UNL     1       5.615   3.487  17.359  0.00  0.00    +0.000 HD
ENDROOT
BRANCH   8  13
ATOM     13  C   UNL     1       5.196   4.274  19.247  0.00  0.00    +0.000 C 
ATOM     14  C   UNL     1       4.313   5.492  18.935  0.00  0.00    +0.000 C 
ATOM     15  C   UNL     1       3.243   5.209  17.879  0.00  0.00    +0.000 C 
ATOM     16  C   UNL     1       2.395   3.995  18.242  0.00  0.00    +0.000 C 
ATOM     17  C   UNL     1       3.252   2.765  18.524  0.00  0.00    +0.000 C 
ATOM     18  C   UNL     1       4.335   3.044  19.567  0.00  0.00    +0.000 C 
ENDBRANCH   8  13
TORSDOF 1
ENDMDL
MODEL 5
REMARK VINA RESULT:      -6.2      1.353      2.044
REMARK  Name = 
REMARK  2 active torsions:
REMARK  status: ('A' for Active; 'I' for Inactive)
REMARK    1  A    between atoms: C_1  and  N_2
REMARK    2  A    between atoms: N_8  and  C_9
REMARK                            x       y       z     vdW  Elec       q    Type
REMARK                         _______ _______ _______ _____ _____    ______ ____
ROOT
ATOM      1  C   UNL     1       6.260   3.351  12.429  0.00  0.00    +0.000 C 
ATOM      2  N   UNL     1       6.849   4.411  13.212  0.00  0.00    +0.000 N 
ATOM      3  C   UNL     1       6.594   4.436  14.566  0.00  0.00    +0.000 C 
ATOM      4  O   UNL     1       5.860   3.620  15.116  0.00  0.00    +0.000 OA
ATOM      5  N   UNL     1       7.224   5.481  15.209  0.00  0.00    +0.000 N 
ATOM      6  C   UNL     1       7.084   5.799  16.539  0.00  0.00    +0.000 C 
ATOM      7  N   UNL     1       7.620   6.895  16.951  0.00  0.00    +0.000 NA
ATOM      8  N   UNL     1       6.393   4.959  17.357  0.00  0.00    +0.000 N 
ATOM      9  H   UNL     1       7.740   4.770  12.905  0.00  0.00    +0.000 HD
ATOM     10  H   UNL     1       7.673   6.155  14.625  0.00  0.00    +0.000 HD
ATOM     11  H   UNL     1       8.114   7.376  16.204  0.00  0.00    +0.000 HD
ATOM     12  H   UNL     1       5.981   4.164  16.863  0.00  0.00    +0.000 HD
ENDROOT
BRANCH   8  13
ATOM     13  C   UNL     1       5.600   5.419  18.489  0.00  0.00    +0.000 C 
ATOM     14  C   UNL     1       4.308   6.088  17.996  0.00  0.00    +0.000 C 
ATOM     15  C   UNL     1       3.302   5.099  17.404  0.00  0.00    +0.000 C 
ATOM     16  C   UNL     1       2.996   3.956  18.367  0.00  0.00    +0.000 C 
ATOM     17  C   UNL     1       4.266   3.257  18.842  0.00  0.00    +0.000 C 
ATOM     18  C   UNL     1       5.284   4.241  19.421  0.00  0.00    +0.000 C 
ENDBRANCH   8  13
TORSDOF 1
ENDMDL
MODEL 6
REMARK VINA RESULT:      -6.1      2.753      3.722
REMARK  Name = 
REMARK  2 active torsions:
REMARK  status: ('A' for Active; 'I' for Inactive)
REMARK    1  A    between atoms: C_1  and  N_2
REMARK    2  A    between atoms: N_8  and  C_9
REMARK                            x       y       z     vdW  Elec       q    Type
REMARK                         _______ _______ _______ _____ _____    ______ ____
ROOT
ATOM      1  C   UNL     1       2.246   8.629  17.802  0.00  0.00    +0.000 C 
ATOM      2  N   UNL     1       3.430   7.812  17.926  0.00  0.00    +0.000 N 
ATOM      3  C   UNL     1       3.270   6.446  18.017  0.00  0.00    +0.000 C 
ATOM      4  O   UNL     1       2.165   5.910  18.034  0.00  0.00    +0.000 OA
ATOM      5  N   UNL     1       4.469   5.772  18.112  0.00  0.00    +0.000 N 
ATOM      6  C   UNL     1       4.608   4.417  18.296  0.00  0.00    +0.000 C 
ATOM      7  N   UNL     1       5.794   3.964  18.518  0.00  0.00    +0.000 NA
ATOM      8  N   UNL     1       3.509   3.618  18.240  0.00  0.00    +0.000 N 
ATOM      9  H   UNL     1       4.271   8.148  17.482  0.00  0.00    +0.000 HD
ATOM     10  H   UNL     1       5.286   6.335  18.233  0.00  0.00    +0.000 HD
ATOM     11  H   UNL     1       6.490   4.704  18.499  0.00  0.00    +0.000 HD
ATOM     12  H   UNL     1       2.638   4.140  18.116  0.00  0.00    +0.000 HD
ENDROOT
BRANCH   8  13
ATOM     13  C   UNL     1       3.357   2.410  19.040  0.00  0.00    +0.000 C 
ATOM     14  C   UNL     1       3.559   2.729  20.529  0.00  0.00    +0.000 C 
ATOM     15  C   UNL     1       2.414   3.544  21.134  0.00  0.00    +0.000 C 
ATOM     16  C   UNL     1       1.060   2.887  20.892  0.00  0.00    +0.000 C 
ATOM     17  C   UNL     1       0.826   2.593  19.414  0.00  0.00    +0.000 C 
ATOM     18  C   UNL     1       1.974   1.791  18.797  0.00  0.00    +0.000 C 
ENDBRANCH   8  13
TORSDOF 1
ENDMDL
MODEL 7
REMARK VINA RESULT:      -6.1      2.118      2.560
REMARK  Name = 
REMARK  2 active torsions:
REMARK  status: ('A' for Active; 'I' for Inactive)
REMARK    1  A    between atoms: C_1  and  N_2
REMARK    2  A    between atoms: N_8  and  C_9
REMARK                            x       y       z     vdW  Elec       q    Type
REMARK                         _______ _______ _______ _____ _____    ______ ____
ROOT
ATOM      1  C   UNL     1       7.030   4.775  14.685  0.00  0.00    +0.000 C 
ATOM      2  N   UNL     1       6.224   5.839  15.238  0.00  0.00    +0.000 N 
ATOM      3  C   UNL     1       5.386   5.539  16.291  0.00  0.00    +0.000 C 
ATOM      4  O   UNL     1       5.274   4.403  16.743  0.00  0.00    +0.000 OA
ATOM      5  N   UNL     1       4.685   6.636  16.744  0.00  0.00    +0.000 N 
ATOM      6  C   UNL     1       3.721   6.615  17.724  0.00  0.00    +0.000 C 
ATOM      7  N   UNL     1       3.052   7.697  17.926  0.00  0.00    +0.000 NA
ATOM      8  N   UNL     1       3.513   5.472  18.432  0.00  0.00    +0.000 N 
ATOM      9  H   UNL     1       6.608   6.771  15.206  0.00  0.00    +0.000 HD
ATOM     10  H   UNL     1       4.760   7.468  16.196  0.00  0.00    +0.000 HD
ATOM     11  H   UNL     1       3.364   8.451  17.321  0.00  0.00    +0.000 HD
ATOM     12  H   UNL     1       4.084   4.688  18.109  0.00  0.00    +0.000 HD
ENDROOT
BRANCH   8  13
ATOM     13  C   UNL     1       2.206   5.073  18.938  0.00  0.00    +0.000 C 
ATOM     14  C   UNL     1       1.503   4.151  17.929  0.00  0.00    +0.000 C 
ATOM     15  C   UNL     1       2.140   2.763  17.832  0.00  0.00    +0.000 C 
ATOM     16  C   UNL     1       2.257   2.095  19.198  0.00  0.00    +0.000 C 
ATOM     17  C   UNL     1       2.982   2.981  20.205  0.00  0.00    +0.000 C 
ATOM     18  C   UNL     1       2.361   4.377  20.297  0.00  0.00    +0.000 C 
ENDBRANCH   8  13
TORSDOF 1
ENDMDL
MODEL 8
REMARK VINA RESULT:      -6.0      2.127      3.165
REMARK  Name = 
REMARK  2 active torsions:
REMARK  status: ('A' for Active; 'I' for Inactive)
REMARK    1  A    between atoms: C_1  and  N_2
REMARK    2  A    between atoms: N_8  and  C_9
REMARK                            x       y       z     vdW  Elec       q    Type
REMARK                         _______ _______ _______ _____ _____    ______ ____
ROOT
ATOM      1  C   UNL     1       6.201   6.599  17.270  0.00  0.00    +0.000 C 
ATOM      2  N   UNL     1       6.396   5.445  18.116  0.00  0.00    +0.000 N 
ATOM      3  C   UNL     1       5.341   4.573  18.279  0.00  0.00    +0.000 C 
ATOM      4  O   UNL     1       4.241   4.764  17.768  0.00  0.00    +0.000 OA
ATOM      5  N   UNL     1       5.653   3.503  19.091  0.00  0.00    +0.000 N 
ATOM      6  C   UNL     1       4.774   2.526  19.493  0.00  0.00    +0.000 C 
ATOM      7  N   UNL     1       5.184   1.679  20.373  0.00  0.00    +0.000 NA
ATOM      8  N   UNL     1       3.524   2.489  18.956  0.00  0.00    +0.000 N 
ATOM      9  H   UNL     1       7.326   5.054  18.155  0.00  0.00    +0.000 HD
ATOM     10  H   UNL     1       6.535   3.542  19.559  0.00  0.00    +0.000 HD
ATOM     11  H   UNL     1       6.150   1.849  20.637  0.00  0.00    +0.000 HD
ATOM     12  H   UNL     1       3.338   3.266  18.317  0.00  0.00    +0.000 HD
ENDROOT
BRANCH   8  13
ATOM     13  C   UNL     1       2.350   2.046  19.695  0.00  0.00    +0.000 C 
ATOM     14  C   UNL     1       2.372   2.615  21.122  0.00  0.00    +0.000 C 
ATOM     15  C   UNL     1       2.115   4.123  21.176  0.00  0.00    +0.000 C 
ATOM     16  C   UNL     1       0.829   4.505  20.451  0.00  0.00    +0.000 C 
ATOM     17  C   UNL     1       0.802   3.977  19.021  0.00  0.00    +0.000 C 
ATOM     18  C   UNL     1       1.074   2.473  18.957  0.00  0.00    +0.000 C 
ENDBRANCH   8  13
TORSDOF 1
ENDMDL
MODEL 9
REMARK VINA RESULT:      -6.0      2.957      5.427
REMARK  Name = 
REMARK  2 active torsions:
REMARK  status: ('A' for Active; 'I' for Inactive)
REMARK    1  A    between atoms: C_1  and  N_2
REMARK    2  A    between atoms: N_8  and  C_9
REMARK                            x       y       z     vdW  Elec       q    Type
REMARK                         _______ _______ _______ _____ _____    ______ ____
ROOT
ATOM      1  C   UNL     1       2.253   2.992  21.689  0.00  0.00    +0.000 C 
ATOM      2  N   UNL     1       1.986   4.277  21.088  0.00  0.00    +0.000 N 
ATOM      3  C   UNL     1       2.746   4.658  20.004  0.00  0.00    +0.000 C 
ATOM      4  O   UNL     1       3.659   3.966  19.561  0.00  0.00    +0.000 OA
ATOM      5  N   UNL     1       2.387   5.893  19.506  0.00  0.00    +0.000 N 
ATOM      6  C   UNL     1       3.025   6.556  18.485  0.00  0.00    +0.000 C 
ATOM      7  N   UNL     1       2.661   7.767  18.241  0.00  0.00    +0.000 NA
ATOM      8  N   UNL     1       4.002   5.920  17.783  0.00  0.00    +0.000 N 
ATOM      9  H   UNL     1       1.036   4.615  21.126  0.00  0.00    +0.000 HD
ATOM     10  H   UNL     1       1.728   6.414  20.046  0.00  0.00    +0.000 HD
ATOM     11  H   UNL     1       1.903   8.062  18.850  0.00  0.00    +0.000 HD
ATOM     12  H   UNL     1       4.211   4.986  18.141  0.00  0.00    +0.000 HD
ENDROOT
BRANCH   8  13
ATOM     13  C   UNL     1       5.159   6.606  17.225  0.00  0.00    +0.000 C 
ATOM     14  C   UNL     1       6.449   6.101  17.890  0.00  0.00    +0.000 C 
ATOM     15  C   UNL     1       6.818   4.672  17.487  0.00  0.00    +0.000 C 
ATOM     16  C   UNL     1       6.881   4.507  15.972  0.00  0.00    +0.000 C 
ATOM     17  C   UNL     1       5.596   4.973  15.296  0.00  0.00    +0.000 C 
ATOM     18  C   UNL     1       5.211   6.395  15.705  0.00  0.00    +0.000 C 
ENDBRANCH   8  13
TORSDOF 1
ENDMDL
