MODEL 1
REMARK VINA RESULT:      -8.7      0.000      0.000
REMARK  Name = 
REMARK  1 active torsions:
REMARK  status: ('A' for Active; 'I' for Inactive)
REMARK    1  A    between atoms: C_17  and  C_18
REMARK                            x       y       z     vdW  Elec       q    Type
REMARK                         _______ _______ _______ _____ _____    ______ ____
ROOT
ATOM      1  O   UNL     1       1.254   4.801  17.438  0.00  0.00    +0.000 OA
ATOM      2  C   UNL     1       2.294   4.722  18.074  0.00  0.00    +0.000 C 
ATOM      3  C   UNL     1       2.764   3.459  18.557  0.00  0.00    +0.000 A 
ATOM      4  C   UNL     1       2.498   2.213  18.017  0.00  0.00    +0.000 A 
ATOM      5  C   UNL     1       3.331   1.178  18.407  0.00  0.00    +0.000 A 
ATOM      6  C   UNL     1       4.371   1.419  19.325  0.00  0.00    +0.000 A 
ATOM      7  C   UNL     1       4.575   2.695  19.888  0.00  0.00    +0.000 A 
ATOM      8  C   UNL     1       3.753   3.739  19.489  0.00  0.00    +0.000 A 
ATOM      9  N   UNL     1       3.938   5.160  19.767  0.00  0.00    +0.000 N 
ATOM     10  O   UNL     1       5.315   5.537  19.845  0.00  0.00    +0.000 OA
ATOM     11  C   UNL     1       5.669   5.816  18.545  0.00  0.00    +0.000 A 
ATOM     12  C   UNL     1       6.975   5.855  18.103  0.00  0.00    +0.000 A 
ATOM     13  C   UNL     1       7.183   6.050  16.740  0.00  0.00    +0.000 A 
ATOM     14  C   UNL     1       6.088   6.201  15.871  0.00  0.00    +0.000 A 
ATOM     15  C   UNL     1       4.769   6.151  16.342  0.00  0.00    +0.000 A 
ATOM     16  C   UNL     1       4.567   5.944  17.694  0.00  0.00    +0.000 A 
ATOM     17  C   UNL     1       3.305   5.802  18.520  0.00  0.00    +0.000 C 
ENDROOT
BRANCH  17  18
ATOM     18  C   UNL     1       2.607   7.156  18.681  0.00  0.00    +0.000 A 
ATOM     19  C   UNL     1       2.015   7.441  19.931  0.00  0.00    +0.000 A 
ATOM     20  C   UNL     1       1.389   8.665  20.213  0.00  0.00    +0.000 A 
ATOM     21  C   UNL     1       1.284   9.607  19.214  0.00  0.00    +0.000 A 
ATOM     22  C   UNL     1       1.799   9.326  17.943  0.00  0.00    +0.000 A 
ATOM     23  C   UNL     1       2.456   8.114  17.674  0.00  0.00    +0.000 A 
ENDBRANCH  17  18
TORSDOF 1
ENDMDL
MODEL 2
REMARK VINA RESULT:      -8.5      0.162      1.010
REMARK  Name = 
REMARK  1 active torsions:
REMARK  status: ('A' for Active; 'I' for Inactive)
REMARK    1  A    between atoms: C_17  and  C_18
REMARK                            x       y       z     vdW  Elec       q    Type
REMARK                         _______ _______ _______ _____ _____    ______ ____
ROOT
ATOM      1  O   UNL     1       1.162   4.901  17.446  0.00  0.00    +0.000 OA
ATOM      2  C   UNL     1       2.199   4.789  18.081  0.00  0.00    +0.000 C 
ATOM      3  C   UNL     1       2.662   3.503  18.509  0.00  0.00    +0.000 A 
ATOM      4  C   UNL     1       2.392   2.284  17.913  0.00  0.00    +0.000 A 
ATOM      5  C   UNL     1       3.219   1.228  18.260  0.00  0.00    +0.000 A 
ATOM      6  C   UNL     1       4.257   1.423  19.192  0.00  0.00    +0.000 A 
ATOM      7  C   UNL     1       4.465   2.672  19.811  0.00  0.00    +0.000 A 
ATOM      8  C   UNL     1       3.649   3.737  19.456  0.00  0.00    +0.000 A 
ATOM      9  N   UNL     1       3.839   5.143  19.798  0.00  0.00    +0.000 N 
ATOM     10  O   UNL     1       5.218   5.509  19.897  0.00  0.00    +0.000 OA
ATOM     11  C   UNL     1       5.578   5.844  18.612  0.00  0.00    +0.000 A 
ATOM     12  C   UNL     1       6.886   5.897  18.177  0.00  0.00    +0.000 A 
ATOM     13  C   UNL     1       7.099   6.151  16.824  0.00  0.00    +0.000 A 
ATOM     14  C   UNL     1       6.008   6.346  15.960  0.00  0.00    +0.000 A 
ATOM     15  C   UNL     1       4.688   6.281  16.423  0.00  0.00    +0.000 A 
ATOM     16  C   UNL     1       4.480   6.015  17.764  0.00  0.00    +0.000 A 
ATOM     17  C   UNL     1       3.214   5.842  18.579  0.00  0.00    +0.000 C 
ENDROOT
BRANCH  17  18
ATOM     18  C   UNL     1       2.522   7.192  18.797  0.00  0.00    +0.000 A 
ATOM     19  C   UNL     1       2.540   8.115  17.728  0.00  0.00    +0.000 A 
ATOM     20  C   UNL     1       1.901   9.363  17.792  0.00  0.00    +0.000 A 
ATOM     21  C   UNL     1       1.285   9.739  18.965  0.00  0.00    +0.000 A 
ATOM     22  C   UNL     1       1.311   8.874  20.065  0.00  0.00    +0.000 A 
ATOM     23  C   UNL     1       1.921   7.611  19.987  0.00  0.00    +0.000 A 
ENDBRANCH  17  18
TORSDOF 1
ENDMDL
MODEL 3
REMARK VINA RESULT:      -7.6      1.911      5.491
REMARK  Name = 
REMARK  1 active torsions:
REMARK  status: ('A' for Active; 'I' for Inactive)
REMARK    1  A    between atoms: C_17  and  C_18
REMARK                            x       y       z     vdW  Elec       q    Type
REMARK                         _______ _______ _______ _____ _____    ______ ____
ROOT
ATOM      1  O   UNL     1       3.344   7.753  16.653  0.00  0.00    +0.000 OA
ATOM      2  C   UNL     1       3.053   7.362  17.772  0.00  0.00    +0.000 C 
ATOM      3  C   UNL     1       2.228   8.154  18.634  0.00  0.00    +0.000 A 
ATOM      4  C   UNL     1       1.285   9.090  18.249  0.00  0.00    +0.000 A 
ATOM      5  C   UNL     1       0.359   9.467  19.208  0.00  0.00    +0.000 A 
ATOM      6  C   UNL     1       0.422   8.917  20.503  0.00  0.00    +0.000 A 
ATOM      7  C   UNL     1       1.431   8.002  20.865  0.00  0.00    +0.000 A 
ATOM      8  C   UNL     1       2.352   7.610  19.905  0.00  0.00    +0.000 A 
ATOM      9  N   UNL     1       3.316   6.519  20.004  0.00  0.00    +0.000 N 
ATOM     10  O   UNL     1       2.841   5.427  20.795  0.00  0.00    +0.000 OA
ATOM     11  C   UNL     1       2.144   4.638  19.909  0.00  0.00    +0.000 A 
ATOM     12  C   UNL     1       1.216   3.694  20.296  0.00  0.00    +0.000 A 
ATOM     13  C   UNL     1       0.512   3.039  19.289  0.00  0.00    +0.000 A 
ATOM     14  C   UNL     1       0.759   3.344  17.939  0.00  0.00    +0.000 A 
ATOM     15  C   UNL     1       1.702   4.312  17.569  0.00  0.00    +0.000 A 
ATOM     16  C   UNL     1       2.389   4.970  18.573  0.00  0.00    +0.000 A 
ATOM     17  C   UNL     1       3.427   6.072  18.536  0.00  0.00    +0.000 C 
ENDROOT
BRANCH  17  18
ATOM     18  C   UNL     1       4.775   5.532  18.046  0.00  0.00    +0.000 A 
ATOM     19  C   UNL     1       5.907   5.768  18.856  0.00  0.00    +0.000 A 
ATOM     20  C   UNL     1       7.184   5.283  18.537  0.00  0.00    +0.000 A 
ATOM     21  C   UNL     1       7.364   4.604  17.352  0.00  0.00    +0.000 A 
ATOM     22  C   UNL     1       6.274   4.415  16.493  0.00  0.00    +0.000 A 
ATOM     23  C   UNL     1       4.990   4.872  16.832  0.00  0.00    +0.000 A 
ENDBRANCH  17  18
TORSDOF 1
ENDMDL
MODEL 4
REMARK VINA RESULT:      -7.5      1.916      5.558
REMARK  Name = 
REMARK  1 active torsions:
REMARK  status: ('A' for Active; 'I' for Inactive)
REMARK    1  A    between atoms: C_17  and  C_18
REMARK                            x       y       z     vdW  Elec       q    Type
REMARK                         _______ _______ _______ _____ _____    ______ ____
ROOT
ATOM      1  O   UNL     1       3.347   7.759  16.671  0.00  0.00    +0.000 OA
ATOM      2  C   UNL     1       3.045   7.375  17.790  0.00  0.00    +0.000 C 
ATOM      3  C   UNL     1       2.204   8.168  18.635  0.00  0.00    +0.000 A 
ATOM      4  C   UNL     1       1.259   9.094  18.231  0.00  0.00    +0.000 A 
ATOM      5  C   UNL     1       0.319   9.472  19.175  0.00  0.00    +0.000 A 
ATOM      6  C   UNL     1       0.370   8.933  20.475  0.00  0.00    +0.000 A 
ATOM      7  C   UNL     1       1.381   8.028  20.857  0.00  0.00    +0.000 A 
ATOM      8  C   UNL     1       2.317   7.636  19.912  0.00  0.00    +0.000 A 
ATOM      9  N   UNL     1       3.287   6.552  20.032  0.00  0.00    +0.000 N 
ATOM     10  O   UNL     1       2.810   5.463  20.826  0.00  0.00    +0.000 OA
ATOM     11  C   UNL     1       2.130   4.662  19.938  0.00  0.00    +0.000 A 
ATOM     12  C   UNL     1       1.204   3.714  20.322  0.00  0.00    +0.000 A 
ATOM     13  C   UNL     1       0.517   3.046  19.311  0.00  0.00    +0.000 A 
ATOM     14  C   UNL     1       0.779   3.342  17.962  0.00  0.00    +0.000 A 
ATOM     15  C   UNL     1       1.719   4.314  17.596  0.00  0.00    +0.000 A 
ATOM     16  C   UNL     1       2.389   4.985  18.603  0.00  0.00    +0.000 A 
ATOM     17  C   UNL     1       3.420   6.094  18.569  0.00  0.00    +0.000 C 
ENDROOT
BRANCH  17  18
ATOM     18  C   UNL     1       4.777   5.560  18.099  0.00  0.00    +0.000 A 
ATOM     19  C   UNL     1       4.825   4.916  16.843  0.00  0.00    +0.000 A 
ATOM     20  C   UNL     1       6.017   4.427  16.286  0.00  0.00    +0.000 A 
ATOM     21  C   UNL     1       7.181   4.514  17.017  0.00  0.00    +0.000 A 
ATOM     22  C   UNL     1       7.151   5.083  18.296  0.00  0.00    +0.000 A 
ATOM     23  C   UNL     1       5.964   5.603  18.836  0.00  0.00    +0.000 A 
ENDBRANCH  17  18
TORSDOF 1
ENDMDL
MODEL 5
REMARK VINA RESULT:      -7.3      2.366      5.167
REMARK  Name = 
REMARK  1 active torsions:
REMARK  status: ('A' for Active; 'I' for Inactive)
REMARK    1  A    between atoms: C_17  and  C_18
REMARK                            x       y       z     vdW  Elec       q    Type
REMARK                         _______ _______ _______ _____ _____    ______ ____
ROOT
ATOM      1  O   UNL     1       4.051   2.998  16.632  0.00  0.00    +0.000 OA
ATOM      2  C   UNL     1       4.227   4.193  16.809  0.00  0.00    +0.000 C 
ATOM      3  C   UNL     1       3.351   4.945  17.656  0.00  0.00    +0.000 A 
ATOM      4  C   UNL     1       2.603   4.460  18.715  0.00  0.00    +0.000 A 
ATOM      5  C   UNL     1       2.121   5.399  19.613  0.00  0.00    +0.000 A 
ATOM      6  C   UNL     1       2.383   6.767  19.411  0.00  0.00    +0.000 A 
ATOM      7  C   UNL     1       3.109   7.220  18.291  0.00  0.00    +0.000 A 
ATOM      8  C   UNL     1       3.607   6.284  17.396  0.00  0.00    +0.000 A 
ATOM      9  N   UNL     1       4.563   6.518  16.319  0.00  0.00    +0.000 N 
ATOM     10  O   UNL     1       5.506   7.548  16.626  0.00  0.00    +0.000 OA
ATOM     11  C   UNL     1       6.520   6.898  17.292  0.00  0.00    +0.000 A 
ATOM     12  C   UNL     1       7.443   7.542  18.090  0.00  0.00    +0.000 A 
ATOM     13  C   UNL     1       8.353   6.748  18.784  0.00  0.00    +0.000 A 
ATOM     14  C   UNL     1       8.312   5.348  18.655  0.00  0.00    +0.000 A 
ATOM     15  C   UNL     1       7.361   4.716  17.844  0.00  0.00    +0.000 A 
ATOM     16  C   UNL     1       6.451   5.507  17.168  0.00  0.00    +0.000 A 
ATOM     17  C   UNL     1       5.292   5.165  16.255  0.00  0.00    +0.000 C 
ENDROOT
BRANCH  17  18
ATOM     18  C   UNL     1       5.800   4.682  14.892  0.00  0.00    +0.000 A 
ATOM     19  C   UNL     1       7.052   5.166  14.453  0.00  0.00    +0.000 A 
ATOM     20  C   UNL     1       7.642   4.761  13.246  0.00  0.00    +0.000 A 
ATOM     21  C   UNL     1       6.949   3.907  12.417  0.00  0.00    +0.000 A 
ATOM     22  C   UNL     1       5.675   3.465  12.793  0.00  0.00    +0.000 A 
ATOM     23  C   UNL     1       5.101   3.845  14.017  0.00  0.00    +0.000 A 
ENDBRANCH  17  18
TORSDOF 1
ENDMDL
MODEL 6
REMARK VINA RESULT:      -7.2      2.384      5.149
REMARK  Name = 
REMARK  1 active torsions:
REMARK  status: ('A' for Active; 'I' for Inactive)
REMARK    1  A    between atoms: C_17  and  C_18
REMARK                            x       y       z     vdW  Elec       q    Type
REMARK                         _______ _______ _______ _____ _____    ______ ____
ROOT
ATOM      1  O   UNL     1       4.110   3.030  16.657  0.00  0.00    +0.000 OA
ATOM      2  C   UNL     1       4.272   4.227  16.831  0.00  0.00    +0.000 C 
ATOM      3  C   UNL     1       3.383   4.972  17.671  0.00  0.00    +0.000 A 
ATOM      4  C   UNL     1       2.633   4.483  18.726  0.00  0.00    +0.000 A 
ATOM      5  C   UNL     1       2.135   5.419  19.618  0.00  0.00    +0.000 A 
ATOM      6  C   UNL     1       2.385   6.790  19.413  0.00  0.00    +0.000 A 
ATOM      7  C   UNL     1       3.114   7.246  18.296  0.00  0.00    +0.000 A 
ATOM      8  C   UNL     1       3.627   6.313  17.408  0.00  0.00    +0.000 A 
ATOM      9  N   UNL     1       4.588   6.554  16.336  0.00  0.00    +0.000 N 
ATOM     10  O   UNL     1       5.518   7.595  16.647  0.00  0.00    +0.000 OA
ATOM     11  C   UNL     1       6.534   6.958  17.321  0.00  0.00    +0.000 A 
ATOM     12  C   UNL     1       7.446   7.613  18.123  0.00  0.00    +0.000 A 
ATOM     13  C   UNL     1       8.359   6.830  18.825  0.00  0.00    +0.000 A 
ATOM     14  C   UNL     1       8.334   5.430  18.700  0.00  0.00    +0.000 A 
ATOM     15  C   UNL     1       7.394   4.786  17.885  0.00  0.00    +0.000 A 
ATOM     16  C   UNL     1       6.481   5.566  17.200  0.00  0.00    +0.000 A 
ATOM     17  C   UNL     1       5.331   5.208  16.281  0.00  0.00    +0.000 C 
ENDROOT
BRANCH  17  18
ATOM     18  C   UNL     1       5.853   4.727  14.923  0.00  0.00    +0.000 A 
ATOM     19  C   UNL     1       4.970   3.980  14.112  0.00  0.00    +0.000 A 
ATOM     20  C   UNL     1       5.317   3.525  12.831  0.00  0.00    +0.000 A 
ATOM     21  C   UNL     1       6.591   3.754  12.363  0.00  0.00    +0.000 A 
ATOM     22  C   UNL     1       7.512   4.431  13.172  0.00  0.00    +0.000 A 
ATOM     23  C   UNL     1       7.151   4.916  14.440  0.00  0.00    +0.000 A 
ENDBRANCH  17  18
TORSDOF 1
ENDMDL
MODEL 7
REMARK VINA RESULT:      -6.8      6.208      8.520
REMARK  Name = 
REMARK  1 active torsions:
REMARK  status: ('A' for Active; 'I' for Inactive)
REMARK    1  A    between atoms: C_17  and  C_18
REMARK                            x       y       z     vdW  Elec       q    Type
REMARK                         _______ _______ _______ _____ _____    ______ ____
ROOT
ATOM      1  O   UNL     1      -0.644  13.259  22.194  0.00  0.00    +0.000 OA
ATOM      2  C   UNL     1      -0.357  12.372  21.405  0.00  0.00    +0.000 C 
ATOM      3  C   UNL     1      -0.086  11.043  21.864  0.00  0.00    +0.000 A 
ATOM      4  C   UNL     1      -0.565  10.450  23.020  0.00  0.00    +0.000 A 
ATOM      5  C   UNL     1      -0.483   9.069  23.086  0.00  0.00    +0.000 A 
ATOM      6  C   UNL     1       0.084   8.344  22.021  0.00  0.00    +0.000 A 
ATOM      7  C   UNL     1       0.603   8.994  20.883  0.00  0.00    +0.000 A 
ATOM      8  C   UNL     1       0.511  10.376  20.804  0.00  0.00    +0.000 A 
ATOM      9  N   UNL     1       0.771  11.209  19.634  0.00  0.00    +0.000 N 
ATOM     10  O   UNL     1       0.441  10.560  18.404  0.00  0.00    +0.000 OA
ATOM     11  C   UNL     1      -0.894  10.835  18.218  0.00  0.00    +0.000 A 
ATOM     12  C   UNL     1      -1.710  10.112  17.372  0.00  0.00    +0.000 A 
ATOM     13  C   UNL     1      -3.064  10.438  17.358  0.00  0.00    +0.000 A 
ATOM     14  C   UNL     1      -3.553  11.469  18.179  0.00  0.00    +0.000 A 
ATOM     15  C   UNL     1      -2.706  12.185  19.036  0.00  0.00    +0.000 A 
ATOM     16  C   UNL     1      -1.365  11.849  19.057  0.00  0.00    +0.000 A 
ATOM     17  C   UNL     1      -0.201  12.379  19.868  0.00  0.00    +0.000 C 
ENDROOT
BRANCH  17  18
ATOM     18  C   UNL     1       0.213  13.770  19.379  0.00  0.00    +0.000 A 
ATOM     19  C   UNL     1       1.589  14.004  19.162  0.00  0.00    +0.000 A 
ATOM     20  C   UNL     1       2.085  15.221  18.670  0.00  0.00    +0.000 A 
ATOM     21  C   UNL     1       1.207  16.260  18.451  0.00  0.00    +0.000 A 
ATOM     22  C   UNL     1      -0.154  16.081  18.723  0.00  0.00    +0.000 A 
ATOM     23  C   UNL     1      -0.652  14.851  19.182  0.00  0.00    +0.000 A 
ENDBRANCH  17  18
TORSDOF 1
ENDMDL
MODEL 8
REMARK VINA RESULT:      -6.8      6.951      9.452
REMARK  Name = 
REMARK  1 active torsions:
REMARK  status: ('A' for Active; 'I' for Inactive)
REMARK    1  A    between atoms: C_17  and  C_18
REMARK                            x       y       z     vdW  Elec       q    Type
REMARK                         _______ _______ _______ _____ _____    ______ ____
ROOT
ATOM      1  O   UNL     1      -1.877  11.912  17.505  0.00  0.00    +0.000 OA
ATOM      2  C   UNL     1      -1.987  12.145  18.698  0.00  0.00    +0.000 C 
ATOM      3  C   UNL     1      -3.276  12.342  19.290  0.00  0.00    +0.000 A 
ATOM      4  C   UNL     1      -4.483  11.836  18.839  0.00  0.00    +0.000 A 
ATOM      5  C   UNL     1      -5.532  11.839  19.743  0.00  0.00    +0.000 A 
ATOM      6  C   UNL     1      -5.345  12.359  21.038  0.00  0.00    +0.000 A 
ATOM      7  C   UNL     1      -4.111  12.910  21.439  0.00  0.00    +0.000 A 
ATOM      8  C   UNL     1      -3.052  12.896  20.543  0.00  0.00    +0.000 A 
ATOM      9  N   UNL     1      -1.654  13.198  20.829  0.00  0.00    +0.000 N 
ATOM     10  O   UNL     1      -1.264  12.826  22.154  0.00  0.00    +0.000 OA
ATOM     11  C   UNL     1      -0.886  11.508  22.044  0.00  0.00    +0.000 A 
ATOM     12  C   UNL     1      -0.796  10.649  23.119  0.00  0.00    +0.000 A 
ATOM     13  C   UNL     1      -0.498   9.315  22.848  0.00  0.00    +0.000 A 
ATOM     14  C   UNL     1      -0.298   8.889  21.523  0.00  0.00    +0.000 A 
ATOM     15  C   UNL     1      -0.402   9.779  20.446  0.00  0.00    +0.000 A 
ATOM     16  C   UNL     1      -0.711  11.099  20.718  0.00  0.00    +0.000 A 
ATOM     17  C   UNL     1      -0.930  12.295  19.815  0.00  0.00    +0.000 C 
ENDROOT
BRANCH  17  18
ATOM     18  C   UNL     1       0.399  12.785  19.231  0.00  0.00    +0.000 A 
ATOM     19  C   UNL     1       0.609  14.180  19.168  0.00  0.00    +0.000 A 
ATOM     20  C   UNL     1       1.804  14.748  18.698  0.00  0.00    +0.000 A 
ATOM     21  C   UNL     1       2.791  13.919  18.214  0.00  0.00    +0.000 A 
ATOM     22  C   UNL     1       2.584  12.535  18.198  0.00  0.00    +0.000 A 
ATOM     23  C   UNL     1       1.402  11.968  18.701  0.00  0.00    +0.000 A 
ENDBRANCH  17  18
TORSDOF 1
ENDMDL
MODEL 9
REMARK VINA RESULT:      -6.7      2.580      4.927
REMARK  Name = 
REMARK  1 active torsions:
REMARK  status: ('A' for Active; 'I' for Inactive)
REMARK    1  A    between atoms: C_17  and  C_18
REMARK                            x       y       z     vdW  Elec       q    Type
REMARK                         _______ _______ _______ _____ _____    ______ ____
ROOT
ATOM      1  O   UNL     1       5.818   3.913  19.592  0.00  0.00    +0.000 OA
ATOM      2  C   UNL     1       5.700   4.775  18.736  0.00  0.00    +0.000 C 
ATOM      3  C   UNL     1       6.541   5.935  18.744  0.00  0.00    +0.000 A 
ATOM      4  C   UNL     1       7.813   6.034  19.279  0.00  0.00    +0.000 A 
ATOM      5  C   UNL     1       8.577   7.112  18.862  0.00  0.00    +0.000 A 
ATOM      6  C   UNL     1       8.043   8.046  17.956  0.00  0.00    +0.000 A 
ATOM      7  C   UNL     1       6.723   7.932  17.473  0.00  0.00    +0.000 A 
ATOM      8  C   UNL     1       5.958   6.847  17.875  0.00  0.00    +0.000 A 
ATOM      9  N   UNL     1       4.675   6.423  17.323  0.00  0.00    +0.000 N 
ATOM     10  O   UNL     1       4.551   6.702  15.927  0.00  0.00    +0.000 OA
ATOM     11  C   UNL     1       5.103   5.606  15.306  0.00  0.00    +0.000 A 
ATOM     12  C   UNL     1       5.530   5.607  13.994  0.00  0.00    +0.000 A 
ATOM     13  C   UNL     1       6.162   4.457  13.527  0.00  0.00    +0.000 A 
ATOM     14  C   UNL     1       6.340   3.352  14.377  0.00  0.00    +0.000 A 
ATOM     15  C   UNL     1       5.903   3.376  15.708  0.00  0.00    +0.000 A 
ATOM     16  C   UNL     1       5.289   4.524  16.172  0.00  0.00    +0.000 A 
ATOM     17  C   UNL     1       4.739   4.900  17.533  0.00  0.00    +0.000 C 
ENDROOT
BRANCH  17  18
ATOM     18  C   UNL     1       3.430   4.154  17.814  0.00  0.00    +0.000 A 
ATOM     19  C   UNL     1       3.484   2.745  17.881  0.00  0.00    +0.000 A 
ATOM     20  C   UNL     1       2.362   1.955  18.178  0.00  0.00    +0.000 A 
ATOM     21  C   UNL     1       1.140   2.568  18.346  0.00  0.00    +0.000 A 
ATOM     22  C   UNL     1       1.042   3.958  18.215  0.00  0.00    +0.000 A 
ATOM     23  C   UNL     1       2.173   4.749  17.953  0.00  0.00    +0.000 A 
ENDBRANCH  17  18
TORSDOF 1
ENDMDL
