MODEL 1
REMARK VINA RESULT:      -5.4      0.000      0.000
REMARK  Name = 
REMARK  26 active torsions:
REMARK  status: ('A' for Active; 'I' for Inactive)
REMARK    1  A    between atoms: C_1  and  C_2
REMARK    2  A    between atoms: C_2  and  C_3
REMARK    3  A    between atoms: C_3  and  C_4
REMARK    4  A    between atoms: C_4  and  C_5
REMARK    5  A    between atoms: C_5  and  C_6
REMARK    6  A    between atoms: C_6  and  C_7
REMARK    7  A    between atoms: C_7  and  C_8
REMARK    8  A    between atoms: C_8  and  C_9
REMARK    9  A    between atoms: C_9  and  C_10
REMARK   10  A    between atoms: C_10  and  C_11
REMARK   11  A    between atoms: C_11  and  C_12
REMARK   12  A    between atoms: C_12  and  C_13
REMARK   13  A    between atoms: C_13  and  C_14
REMARK   14  A    between atoms: C_14  and  C_15
REMARK   15  A    between atoms: C_15  and  C_16
REMARK   16  A    between atoms: C_16  and  C_17
REMARK   17  A    between atoms: C_17  and  C_18
REMARK   18  A    between atoms: C_18  and  O_19
REMARK   19  A    between atoms: O_19  and  P_20
REMARK   20  A    between atoms: P_20  and  O_23
REMARK   21  A    between atoms: O_23  and  C_24
REMARK   22  A    between atoms: C_24  and  C_25
REMARK   23  A    between atoms: C_25  and  N_26
REMARK   24  A    between atoms: N_26  and  C_27
REMARK   25  A    between atoms: N_26  and  C_28
REMARK   26  A    between atoms: N_26  and  C_29
REMARK                            x       y       z     vdW  Elec       q    Type
REMARK                         _______ _______ _______ _____ _____    ______ ____
ROOT
ATOM      1  C   UNL     1       8.244   9.742  18.577  0.00  0.00    +0.000 C 
ENDROOT
BRANCH   1   2
ATOM      2  C   UNL     1       8.273   8.533  17.659  0.00  0.00    +0.000 C 
BRANCH   2   3
ATOM      3  C   UNL     1       8.060   7.270  18.463  0.00  0.00    +0.000 C 
BRANCH   3   4
ATOM      4  O   UNL     1       7.547   6.248  17.613  0.00  0.00    +0.000 OA
BRANCH   4   5
ATOM      5  P   UNL     1       6.538   5.146  18.485  0.00  0.00    +0.000 P 
ATOM      6  O   UNL     1       7.272   5.562  19.764  0.00  0.00    +0.000 OA
ATOM      7  O   UNL     1       5.283   5.879  17.981  0.00  0.00    +0.000 OA
BRANCH   5   8
ATOM      8  O   UNL     1       5.529   4.042  19.355  0.00  0.00    +0.000 OA
BRANCH   8   9
ATOM      9  C   UNL     1       4.458   3.537  18.549  0.00  0.00    +0.000 C 
BRANCH   9  10
ATOM     10  C   UNL     1       3.403   2.774  19.320  0.00  0.00    +0.000 C 
BRANCH  10  11
ATOM     11  N   UNL     1       1.989   3.364  19.047  0.00  0.00    +0.000 N 
ATOM     12  C   UNL     1       2.047   4.476  17.990  0.00  0.00    +0.000 C 
ATOM     13  C   UNL     1       1.054   2.267  18.516  0.00  0.00    +0.000 C 
BRANCH  11  14
ATOM     14  C   UNL     1       1.416   3.824  20.381  0.00  0.00    +0.000 C 
ATOM     15  C   UNL     1       1.400   2.865  21.537  0.00  0.00    +0.000 C 
ATOM     16  C   UNL     1       2.299   4.059  21.577  0.00  0.00    +0.000 C 
ENDBRANCH  11  14
ENDBRANCH  10  11
ENDBRANCH   9  10
ENDBRANCH   8   9
ENDBRANCH   5   8
ENDBRANCH   4   5
ENDBRANCH   3   4
ENDBRANCH   2   3
ENDBRANCH   1   2
BRANCH   1  17
ATOM     17  C   UNL     1       9.560   9.882  19.312  0.00  0.00    +0.000 C 
BRANCH  17  18
ATOM     18  C   UNL     1      10.020  11.326  19.243  0.00  0.00    +0.000 C 
BRANCH  18  19
ATOM     19  C   UNL     1      10.150  11.754  17.796  0.00  0.00    +0.000 C 
BRANCH  19  20
ATOM     20  C   UNL     1      11.544  12.291  17.533  0.00  0.00    +0.000 C 
BRANCH  20  21
ATOM     21  C   UNL     1      11.444  13.657  16.881  0.00  0.00    +0.000 C 
BRANCH  21  22
ATOM     22  C   UNL     1      11.110  14.714  17.916  0.00  0.00    +0.000 C 
BRANCH  22  23
ATOM     23  C   UNL     1      12.034  14.563  19.113  0.00  0.00    +0.000 C 
BRANCH  23  24
ATOM     24  C   UNL     1      11.705  15.610  20.159  0.00  0.00    +0.000 C 
BRANCH  24  25
ATOM     25  C   UNL     1      10.408  16.328  19.809  0.00  0.00    +0.000 C 
BRANCH  25  26
ATOM     26  C   UNL     1       9.346  15.929  20.819  0.00  0.00    +0.000 C 
BRANCH  26  27
ATOM     27  C   UNL     1       8.293  15.006  20.220  0.00  0.00    +0.000 C 
BRANCH  27  28
ATOM     28  C   UNL     1       8.198  13.696  20.997  0.00  0.00    +0.000 C 
BRANCH  28  29
ATOM     29  C   UNL     1       9.263  13.556  22.091  0.00  0.00    +0.000 C 
BRANCH  29  31
ATOM     30  C   UNL     1       7.774  11.783  23.092  0.00  0.00    +0.000 C 
ATOM     31  C   UNL     1       8.651  12.995  23.366  0.00  0.00    +0.000 C 
ENDBRANCH  29  31
ENDBRANCH  28  29
ENDBRANCH  27  28
ENDBRANCH  26  27
ENDBRANCH  25  26
ENDBRANCH  24  25
ENDBRANCH  23  24
ENDBRANCH  22  23
ENDBRANCH  21  22
ENDBRANCH  20  21
ENDBRANCH  19  20
ENDBRANCH  18  19
ENDBRANCH  17  18
ENDBRANCH   1  17
TORSDOF 23
ENDMDL
MODEL 2
REMARK VINA RESULT:      -5.3      6.278     11.684
REMARK  Name = 
REMARK  26 active torsions:
REMARK  status: ('A' for Active; 'I' for Inactive)
REMARK    1  A    between atoms: C_1  and  C_2
REMARK    2  A    between atoms: C_2  and  C_3
REMARK    3  A    between atoms: C_3  and  C_4
REMARK    4  A    between atoms: C_4  and  C_5
REMARK    5  A    between atoms: C_5  and  C_6
REMARK    6  A    between atoms: C_6  and  C_7
REMARK    7  A    between atoms: C_7  and  C_8
REMARK    8  A    between atoms: C_8  and  C_9
REMARK    9  A    between atoms: C_9  and  C_10
REMARK   10  A    between atoms: C_10  and  C_11
REMARK   11  A    between atoms: C_11  and  C_12
REMARK   12  A    between atoms: C_12  and  C_13
REMARK   13  A    between atoms: C_13  and  C_14
REMARK   14  A    between atoms: C_14  and  C_15
REMARK   15  A    between atoms: C_15  and  C_16
REMARK   16  A    between atoms: C_16  and  C_17
REMARK   17  A    between atoms: C_17  and  C_18
REMARK   18  A    between atoms: C_18  and  O_19
REMARK   19  A    between atoms: O_19  and  P_20
REMARK   20  A    between atoms: P_20  and  O_23
REMARK   21  A    between atoms: O_23  and  C_24
REMARK   22  A    between atoms: C_24  and  C_25
REMARK   23  A    between atoms: C_25  and  N_26
REMARK   24  A    between atoms: N_26  and  C_27
REMARK   25  A    between atoms: N_26  and  C_28
REMARK   26  A    between atoms: N_26  and  C_29
REMARK                            x       y       z     vdW  Elec       q    Type
REMARK                         _______ _______ _______ _____ _____    ______ ____
ROOT
ATOM      1  C   UNL     1       2.510   8.131  18.184  0.00  0.00    +0.000 C 
ENDROOT
BRANCH   1   2
ATOM      2  C   UNL     1       1.395   9.069  17.760  0.00  0.00    +0.000 C 
BRANCH   2   3
ATOM      3  C   UNL     1       1.302  10.229  18.727  0.00  0.00    +0.000 C 
BRANCH   3   4
ATOM      4  O   UNL     1       0.143  10.075  19.542  0.00  0.00    +0.000 OA
BRANCH   4   5
ATOM      5  P   UNL     1      -0.784  11.534  19.608  0.00  0.00    +0.000 P 
ATOM      6  O   UNL     1      -1.689  10.951  18.518  0.00  0.00    +0.000 OA
ATOM      7  O   UNL     1      -1.051  11.309  21.106  0.00  0.00    +0.000 OA
BRANCH   5   8
ATOM      8  O   UNL     1      -1.710  12.994  19.675  0.00  0.00    +0.000 OA
BRANCH   8   9
ATOM      9  C   UNL     1      -0.910  14.126  20.035  0.00  0.00    +0.000 C 
BRANCH   9  10
ATOM     10  C   UNL     1      -0.131  14.731  18.887  0.00  0.00    +0.000 C 
BRANCH  10  11
ATOM     11  N   UNL     1       1.182  15.391  19.401  0.00  0.00    +0.000 N 
ATOM     12  C   UNL     1       1.564  14.855  20.789  0.00  0.00    +0.000 C 
ATOM     13  C   UNL     1       2.341  15.073  18.446  0.00  0.00    +0.000 C 
BRANCH  11  14
ATOM     14  C   UNL     1       0.982  16.900  19.368  0.00  0.00    +0.000 C 
ATOM     15  C   UNL     1       0.506  17.600  20.608  0.00  0.00    +0.000 C 
ATOM     16  C   UNL     1       1.898  17.831  20.115  0.00  0.00    +0.000 C 
ENDBRANCH  11  14
ENDBRANCH  10  11
ENDBRANCH   9  10
ENDBRANCH   8   9
ENDBRANCH   5   8
ENDBRANCH   4   5
ENDBRANCH   3   4
ENDBRANCH   2   3
ENDBRANCH   1   2
BRANCH   1  17
ATOM     17  C   UNL     1       2.233   7.565  19.561  0.00  0.00    +0.000 C 
BRANCH  17  18
ATOM     18  C   UNL     1       2.376   6.055  19.519  0.00  0.00    +0.000 C 
BRANCH  18  19
ATOM     19  C   UNL     1       1.631   5.436  20.684  0.00  0.00    +0.000 C 
BRANCH  19  20
ATOM     20  C   UNL     1       2.352   4.192  21.163  0.00  0.00    +0.000 C 
BRANCH  20  21
ATOM     21  C   UNL     1       1.417   3.001  21.077  0.00  0.00    +0.000 C 
BRANCH  21  22
ATOM     22  C   UNL     1       0.682   3.000  19.751  0.00  0.00    +0.000 C 
BRANCH  22  23
ATOM     23  C   UNL     1       1.328   1.995  18.812  0.00  0.00    +0.000 C 
BRANCH  23  24
ATOM     24  C   UNL     1       2.132   2.719  17.750  0.00  0.00    +0.000 C 
BRANCH  24  25
ATOM     25  C   UNL     1       3.620   2.447  17.925  0.00  0.00    +0.000 C 
BRANCH  25  26
ATOM     26  C   UNL     1       4.368   3.765  17.826  0.00  0.00    +0.000 C 
BRANCH  26  27
ATOM     27  C   UNL     1       5.336   3.972  18.983  0.00  0.00    +0.000 C 
BRANCH  27  28
ATOM     28  C   UNL     1       5.778   5.430  19.082  0.00  0.00    +0.000 C 
BRANCH  28  29
ATOM     29  C   UNL     1       5.835   6.143  17.726  0.00  0.00    +0.000 C 
BRANCH  29  31
ATOM     30  C   UNL     1       7.693   7.845  17.596  0.00  0.00    +0.000 C 
ATOM     31  C   UNL     1       7.277   6.408  17.320  0.00  0.00    +0.000 C 
ENDBRANCH  29  31
ENDBRANCH  28  29
ENDBRANCH  27  28
ENDBRANCH  26  27
ENDBRANCH  25  26
ENDBRANCH  24  25
ENDBRANCH  23  24
ENDBRANCH  22  23
ENDBRANCH  21  22
ENDBRANCH  20  21
ENDBRANCH  19  20
ENDBRANCH  18  19
ENDBRANCH  17  18
ENDBRANCH   1  17
TORSDOF 23
ENDMDL
MODEL 3
REMARK VINA RESULT:      -5.3      6.309     11.211
REMARK  Name = 
REMARK  26 active torsions:
REMARK  status: ('A' for Active; 'I' for Inactive)
REMARK    1  A    between atoms: C_1  and  C_2
REMARK    2  A    between atoms: C_2  and  C_3
REMARK    3  A    between atoms: C_3  and  C_4
REMARK    4  A    between atoms: C_4  and  C_5
REMARK    5  A    between atoms: C_5  and  C_6
REMARK    6  A    between atoms: C_6  and  C_7
REMARK    7  A    between atoms: C_7  and  C_8
REMARK    8  A    between atoms: C_8  and  C_9
REMARK    9  A    between atoms: C_9  and  C_10
REMARK   10  A    between atoms: C_10  and  C_11
REMARK   11  A    between atoms: C_11  and  C_12
REMARK   12  A    between atoms: C_12  and  C_13
REMARK   13  A    between atoms: C_13  and  C_14
REMARK   14  A    between atoms: C_14  and  C_15
REMARK   15  A    between atoms: C_15  and  C_16
REMARK   16  A    between atoms: C_16  and  C_17
REMARK   17  A    between atoms: C_17  and  C_18
REMARK   18  A    between atoms: C_18  and  O_19
REMARK   19  A    between atoms: O_19  and  P_20
REMARK   20  A    between atoms: P_20  and  O_23
REMARK   21  A    between atoms: O_23  and  C_24
REMARK   22  A    between atoms: C_24  and  C_25
REMARK   23  A    between atoms: C_25  and  N_26
REMARK   24  A    between atoms: N_26  and  C_27
REMARK   25  A    between atoms: N_26  and  C_28
REMARK   26  A    between atoms: N_26  and  C_29
REMARK                            x       y       z     vdW  Elec       q    Type
REMARK                         _______ _______ _______ _____ _____    ______ ____
ROOT
ATOM      1  C   UNL     1       2.140   4.936  20.652  0.00  0.00    +0.000 C 
ENDROOT
BRANCH   1   2
ATOM      2  C   UNL     1       1.061   6.004  20.670  0.00  0.00    +0.000 C 
BRANCH   2   3
ATOM      3  C   UNL     1       1.696   7.378  20.665  0.00  0.00    +0.000 C 
BRANCH   3   4
ATOM      4  O   UNL     1       0.817   8.308  21.292  0.00  0.00    +0.000 OA
BRANCH   4   5
ATOM      5  P   UNL     1       0.682   9.769  20.377  0.00  0.00    +0.000 P 
ATOM      6  O   UNL     1       1.286  10.515  21.571  0.00  0.00    +0.000 OA
ATOM      7  O   UNL     1       1.550   9.163  19.261  0.00  0.00    +0.000 OA
BRANCH   5   8
ATOM      8  O   UNL     1       0.546  11.230  19.460  0.00  0.00    +0.000 OA
BRANCH   8   9
ATOM      9  C   UNL     1       1.021  12.371  20.186  0.00  0.00    +0.000 C 
BRANCH   9  10
ATOM     10  C   UNL     1       2.036  13.207  19.437  0.00  0.00    +0.000 C 
BRANCH  10  11
ATOM     11  N   UNL     1       1.788  14.724  19.687  0.00  0.00    +0.000 N 
ATOM     12  C   UNL     1       0.423  15.161  19.135  0.00  0.00    +0.000 C 
ATOM     13  C   UNL     1       1.794  15.017  21.195  0.00  0.00    +0.000 C 
BRANCH  11  14
ATOM     14  C   UNL     1       2.959  15.488  19.084  0.00  0.00    +0.000 C 
ATOM     15  C   UNL     1       3.318  15.253  17.644  0.00  0.00    +0.000 C 
ATOM     16  C   UNL     1       2.748  16.571  18.061  0.00  0.00    +0.000 C 
ENDBRANCH  11  14
ENDBRANCH  10  11
ENDBRANCH   9  10
ENDBRANCH   8   9
ENDBRANCH   5   8
ENDBRANCH   4   5
ENDBRANCH   3   4
ENDBRANCH   2   3
ENDBRANCH   1   2
BRANCH   1  17
ATOM     17  C   UNL     1       1.632   3.658  21.284  0.00  0.00    +0.000 C 
BRANCH  17  18
ATOM     18  C   UNL     1       2.712   2.595  21.199  0.00  0.00    +0.000 C 
BRANCH  18  19
ATOM     19  C   UNL     1       3.732   2.985  20.150  0.00  0.00    +0.000 C 
BRANCH  19  20
ATOM     20  C   UNL     1       3.665   2.029  18.974  0.00  0.00    +0.000 C 
BRANCH  20  21
ATOM     21  C   UNL     1       2.328   2.183  18.274  0.00  0.00    +0.000 C 
BRANCH  21  22
ATOM     22  C   UNL     1       2.316   3.441  17.428  0.00  0.00    +0.000 C 
BRANCH  22  23
ATOM     23  C   UNL     1       3.740   3.930  17.223  0.00  0.00    +0.000 C 
BRANCH  23  24
ATOM     24  C   UNL     1       3.797   5.438  17.362  0.00  0.00    +0.000 C 
BRANCH  24  25
ATOM     25  C   UNL     1       5.166   5.879  17.863  0.00  0.00    +0.000 C 
BRANCH  25  26
ATOM     26  C   UNL     1       6.050   4.651  18.002  0.00  0.00    +0.000 C 
BRANCH  26  27
ATOM     27  C   UNL     1       7.353   4.782  17.224  0.00  0.00    +0.000 C 
BRANCH  27  28
ATOM     28  C   UNL     1       7.091   5.067  15.748  0.00  0.00    +0.000 C 
BRANCH  28  29
ATOM     29  C   UNL     1       6.616   3.839  14.963  0.00  0.00    +0.000 C 
BRANCH  29  31
ATOM     30  C   UNL     1       5.815   3.467  12.600  0.00  0.00    +0.000 C 
ATOM     31  C   UNL     1       5.613   4.243  13.892  0.00  0.00    +0.000 C 
ENDBRANCH  29  31
ENDBRANCH  28  29
ENDBRANCH  27  28
ENDBRANCH  26  27
ENDBRANCH  25  26
ENDBRANCH  24  25
ENDBRANCH  23  24
ENDBRANCH  22  23
ENDBRANCH  21  22
ENDBRANCH  20  21
ENDBRANCH  19  20
ENDBRANCH  18  19
ENDBRANCH  17  18
ENDBRANCH   1  17
TORSDOF 23
ENDMDL
MODEL 4
REMARK VINA RESULT:      -5.3      7.994     12.164
REMARK  Name = 
REMARK  26 active torsions:
REMARK  status: ('A' for Active; 'I' for Inactive)
REMARK    1  A    between atoms: C_1  and  C_2
REMARK    2  A    between atoms: C_2  and  C_3
REMARK    3  A    between atoms: C_3  and  C_4
REMARK    4  A    between atoms: C_4  and  C_5
REMARK    5  A    between atoms: C_5  and  C_6
REMARK    6  A    between atoms: C_6  and  C_7
REMARK    7  A    between atoms: C_7  and  C_8
REMARK    8  A    between atoms: C_8  and  C_9
REMARK    9  A    between atoms: C_9  and  C_10
REMARK   10  A    between atoms: C_10  and  C_11
REMARK   11  A    between atoms: C_11  and  C_12
REMARK   12  A    between atoms: C_12  and  C_13
REMARK   13  A    between atoms: C_13  and  C_14
REMARK   14  A    between atoms: C_14  and  C_15
REMARK   15  A    between atoms: C_15  and  C_16
REMARK   16  A    between atoms: C_16  and  C_17
REMARK   17  A    between atoms: C_17  and  C_18
REMARK   18  A    between atoms: C_18  and  O_19
REMARK   19  A    between atoms: O_19  and  P_20
REMARK   20  A    between atoms: P_20  and  O_23
REMARK   21  A    between atoms: O_23  and  C_24
REMARK   22  A    between atoms: C_24  and  C_25
REMARK   23  A    between atoms: C_25  and  N_26
REMARK   24  A    between atoms: N_26  and  C_27
REMARK   25  A    between atoms: N_26  and  C_28
REMARK   26  A    between atoms: N_26  and  C_29
REMARK                            x       y       z     vdW  Elec       q    Type
REMARK                         _______ _______ _______ _____ _____    ______ ____
ROOT
ATOM      1  C   UNL     1       1.190   8.275  21.418  0.00  0.00    +0.000 C 
ENDROOT
BRANCH   1   2
ATOM      2  C   UNL     1      -0.214   8.851  21.478  0.00  0.00    +0.000 C 
BRANCH   2   3
ATOM      3  C   UNL     1      -0.499   9.371  22.870  0.00  0.00    +0.000 C 
BRANCH   3   4
ATOM      4  O   UNL     1      -0.057  10.722  22.971  0.00  0.00    +0.000 OA
BRANCH   4   5
ATOM      5  P   UNL     1      -1.190  11.815  22.253  0.00  0.00    +0.000 P 
ATOM      6  O   UNL     1      -2.148  11.501  23.407  0.00  0.00    +0.000 OA
ATOM      7  O   UNL     1      -0.157  12.952  22.328  0.00  0.00    +0.000 OA
BRANCH   5   8
ATOM      8  O   UNL     1      -2.323  12.907  21.535  0.00  0.00    +0.000 OA
BRANCH   8   9
ATOM      9  C   UNL     1      -2.164  14.247  22.018  0.00  0.00    +0.000 C 
BRANCH   9  10
ATOM     10  C   UNL     1      -3.283  14.722  22.919  0.00  0.00    +0.000 C 
BRANCH  10  11
ATOM     11  N   UNL     1      -2.720  15.598  24.077  0.00  0.00    +0.000 N 
ATOM     12  C   UNL     1      -2.784  14.851  25.417  0.00  0.00    +0.000 C 
ATOM     13  C   UNL     1      -1.248  15.944  23.808  0.00  0.00    +0.000 C 
BRANCH  11  14
ATOM     14  C   UNL     1      -3.491  16.911  24.077  0.00  0.00    +0.000 C 
ATOM     15  C   UNL     1      -4.659  17.071  25.008  0.00  0.00    +0.000 C 
ATOM     16  C   UNL     1      -3.414  17.868  25.235  0.00  0.00    +0.000 C 
ENDBRANCH  11  14
ENDBRANCH  10  11
ENDBRANCH   9  10
ENDBRANCH   8   9
ENDBRANCH   5   8
ENDBRANCH   4   5
ENDBRANCH   3   4
ENDBRANCH   2   3
ENDBRANCH   1   2
BRANCH   1  17
ATOM     17  C   UNL     1       1.678   8.213  19.987  0.00  0.00    +0.000 C 
BRANCH  17  18
ATOM     18  C   UNL     1       2.398   6.897  19.761  0.00  0.00    +0.000 C 
BRANCH  18  19
ATOM     19  C   UNL     1       2.450   6.588  18.280  0.00  0.00    +0.000 C 
BRANCH  19  20
ATOM     20  C   UNL     1       3.373   7.563  17.575  0.00  0.00    +0.000 C 
BRANCH  20  21
ATOM     21  C   UNL     1       4.787   7.013  17.576  0.00  0.00    +0.000 C 
BRANCH  21  22
ATOM     22  C   UNL     1       5.138   6.452  16.212  0.00  0.00    +0.000 C 
BRANCH  22  23
ATOM     23  C   UNL     1       6.277   5.456  16.349  0.00  0.00    +0.000 C 
BRANCH  23  24
ATOM     24  C   UNL     1       5.749   4.041  16.222  0.00  0.00    +0.000 C 
BRANCH  24  25
ATOM     25  C   UNL     1       4.234   4.019  16.374  0.00  0.00    +0.000 C 
BRANCH  25  26
ATOM     26  C   UNL     1       3.887   3.264  17.646  0.00  0.00    +0.000 C 
BRANCH  26  27
ATOM     27  C   UNL     1       2.584   2.485  17.522  0.00  0.00    +0.000 C 
BRANCH  27  28
ATOM     28  C   UNL     1       2.064   2.053  18.890  0.00  0.00    +0.000 C 
BRANCH  28  29
ATOM     29  C   UNL     1       0.821   2.829  19.344  0.00  0.00    +0.000 C 
BRANCH  29  31
ATOM     30  C   UNL     1       1.673   2.730  21.716  0.00  0.00    +0.000 C 
ATOM     31  C   UNL     1       1.115   3.615  20.613  0.00  0.00    +0.000 C 
ENDBRANCH  29  31
ENDBRANCH  28  29
ENDBRANCH  27  28
ENDBRANCH  26  27
ENDBRANCH  25  26
ENDBRANCH  24  25
ENDBRANCH  23  24
ENDBRANCH  22  23
ENDBRANCH  21  22
ENDBRANCH  20  21
ENDBRANCH  19  20
ENDBRANCH  18  19
ENDBRANCH  17  18
ENDBRANCH   1  17
TORSDOF 23
ENDMDL
MODEL 5
REMARK VINA RESULT:      -5.2      4.184     10.988
REMARK  Name = 
REMARK  26 active torsions:
REMARK  status: ('A' for Active; 'I' for Inactive)
REMARK    1  A    between atoms: C_1  and  C_2
REMARK    2  A    between atoms: C_2  and  C_3
REMARK    3  A    between atoms: C_3  and  C_4
REMARK    4  A    between atoms: C_4  and  C_5
REMARK    5  A    between atoms: C_5  and  C_6
REMARK    6  A    between atoms: C_6  and  C_7
REMARK    7  A    between atoms: C_7  and  C_8
REMARK    8  A    between atoms: C_8  and  C_9
REMARK    9  A    between atoms: C_9  and  C_10
REMARK   10  A    between atoms: C_10  and  C_11
REMARK   11  A    between atoms: C_11  and  C_12
REMARK   12  A    between atoms: C_12  and  C_13
REMARK   13  A    between atoms: C_13  and  C_14
REMARK   14  A    between atoms: C_14  and  C_15
REMARK   15  A    between atoms: C_15  and  C_16
REMARK   16  A    between atoms: C_16  and  C_17
REMARK   17  A    between atoms: C_17  and  C_18
REMARK   18  A    between atoms: C_18  and  O_19
REMARK   19  A    between atoms: O_19  and  P_20
REMARK   20  A    between atoms: P_20  and  O_23
REMARK   21  A    between atoms: O_23  and  C_24
REMARK   22  A    between atoms: C_24  and  C_25
REMARK   23  A    between atoms: C_25  and  N_26
REMARK   24  A    between atoms: N_26  and  C_27
REMARK   25  A    between atoms: N_26  and  C_28
REMARK   26  A    between atoms: N_26  and  C_29
REMARK                            x       y       z     vdW  Elec       q    Type
REMARK                         _______ _______ _______ _____ _____    ______ ____
ROOT
ATOM      1  C   UNL     1       7.373   8.484  17.716  0.00  0.00    +0.000 C 
ENDROOT
BRANCH   1   2
ATOM      2  C   UNL     1       8.189   9.736  17.979  0.00  0.00    +0.000 C 
BRANCH   2   3
ATOM      3  C   UNL     1       9.260   9.447  19.008  0.00  0.00    +0.000 C 
BRANCH   3   4
ATOM      4  O   UNL     1       9.195  10.422  20.045  0.00  0.00    +0.000 OA
BRANCH   4   5
ATOM      5  P   UNL     1       9.518  12.011  19.442  0.00  0.00    +0.000 P 
ATOM      6  O   UNL     1       9.257  12.546  20.854  0.00  0.00    +0.000 OA
ATOM      7  O   UNL     1      10.914  11.563  18.978  0.00  0.00    +0.000 OA
BRANCH   5   8
ATOM      8  O   UNL     1       9.841  13.599  18.838  0.00  0.00    +0.000 OA
BRANCH   8   9
ATOM      9  C   UNL     1       8.674  14.213  18.277  0.00  0.00    +0.000 C 
BRANCH   9  10
ATOM     10  C   UNL     1       8.527  15.684  18.597  0.00  0.00    +0.000 C 
BRANCH  10  11
ATOM     11  N   UNL     1       7.159  15.963  19.286  0.00  0.00    +0.000 N 
ATOM     12  C   UNL     1       6.870  14.928  20.383  0.00  0.00    +0.000 C 
ATOM     13  C   UNL     1       7.173  17.349  19.947  0.00  0.00    +0.000 C 
BRANCH  11  14
ATOM     14  C   UNL     1       6.095  16.004  18.196  0.00  0.00    +0.000 C 
ATOM     15  C   UNL     1       5.126  14.861  18.080  0.00  0.00    +0.000 C 
ATOM     16  C   UNL     1       4.641  16.203  18.524  0.00  0.00    +0.000 C 
ENDBRANCH  11  14
ENDBRANCH  10  11
ENDBRANCH   9  10
ENDBRANCH   8   9
ENDBRANCH   5   8
ENDBRANCH   4   5
ENDBRANCH   3   4
ENDBRANCH   2   3
ENDBRANCH   1   2
BRANCH   1  17
ATOM     17  C   UNL     1       8.095   7.259  18.238  0.00  0.00    +0.000 C 
BRANCH  17  18
ATOM     18  C   UNL     1       7.104   6.120  18.387  0.00  0.00    +0.000 C 
BRANCH  18  19
ATOM     19  C   UNL     1       7.466   4.999  17.436  0.00  0.00    +0.000 C 
BRANCH  19  20
ATOM     20  C   UNL     1       6.989   5.328  16.034  0.00  0.00    +0.000 C 
BRANCH  20  21
ATOM     21  C   UNL     1       5.473   5.392  16.018  0.00  0.00    +0.000 C 
BRANCH  21  22
ATOM     22  C   UNL     1       4.883   4.008  16.202  0.00  0.00    +0.000 C 
BRANCH  22  23
ATOM     23  C   UNL     1       3.943   4.009  17.397  0.00  0.00    +0.000 C 
BRANCH  23  24
ATOM     24  C   UNL     1       3.776   2.600  17.929  0.00  0.00    +0.000 C 
BRANCH  24  25
ATOM     25  C   UNL     1       2.306   2.203  17.941  0.00  0.00    +0.000 C 
BRANCH  25  26
ATOM     26  C   UNL     1       1.482   3.408  18.358  0.00  0.00    +0.000 C 
BRANCH  26  27
ATOM     27  C   UNL     1       0.666   3.146  19.618  0.00  0.00    +0.000 C 
BRANCH  27  28
ATOM     28  C   UNL     1       1.515   3.321  20.874  0.00  0.00    +0.000 C 
BRANCH  28  29
ATOM     29  C   UNL     1       2.478   4.511  20.800  0.00  0.00    +0.000 C 
BRANCH  29  31
ATOM     30  C   UNL     1       2.379   6.750  19.642  0.00  0.00    +0.000 C 
ATOM     31  C   UNL     1       1.709   5.813  20.635  0.00  0.00    +0.000 C 
ENDBRANCH  29  31
ENDBRANCH  28  29
ENDBRANCH  27  28
ENDBRANCH  26  27
ENDBRANCH  25  26
ENDBRANCH  24  25
ENDBRANCH  23  24
ENDBRANCH  22  23
ENDBRANCH  21  22
ENDBRANCH  20  21
ENDBRANCH  19  20
ENDBRANCH  18  19
ENDBRANCH  17  18
ENDBRANCH   1  17
TORSDOF 23
ENDMDL
MODEL 6
REMARK VINA RESULT:      -5.1      7.395     11.062
REMARK  Name = 
REMARK  26 active torsions:
REMARK  status: ('A' for Active; 'I' for Inactive)
REMARK    1  A    between atoms: C_1  and  C_2
REMARK    2  A    between atoms: C_2  and  C_3
REMARK    3  A    between atoms: C_3  and  C_4
REMARK    4  A    between atoms: C_4  and  C_5
REMARK    5  A    between atoms: C_5  and  C_6
REMARK    6  A    between atoms: C_6  and  C_7
REMARK    7  A    between atoms: C_7  and  C_8
REMARK    8  A    between atoms: C_8  and  C_9
REMARK    9  A    between atoms: C_9  and  C_10
REMARK   10  A    between atoms: C_10  and  C_11
REMARK   11  A    between atoms: C_11  and  C_12
REMARK   12  A    between atoms: C_12  and  C_13
REMARK   13  A    between atoms: C_13  and  C_14
REMARK   14  A    between atoms: C_14  and  C_15
REMARK   15  A    between atoms: C_15  and  C_16
REMARK   16  A    between atoms: C_16  and  C_17
REMARK   17  A    between atoms: C_17  and  C_18
REMARK   18  A    between atoms: C_18  and  O_19
REMARK   19  A    between atoms: O_19  and  P_20
REMARK   20  A    between atoms: P_20  and  O_23
REMARK   21  A    between atoms: O_23  and  C_24
REMARK   22  A    between atoms: C_24  and  C_25
REMARK   23  A    between atoms: C_25  and  N_26
REMARK   24  A    between atoms: N_26  and  C_27
REMARK   25  A    between atoms: N_26  and  C_28
REMARK   26  A    between atoms: N_26  and  C_29
REMARK                            x       y       z     vdW  Elec       q    Type
REMARK                         _______ _______ _______ _____ _____    ______ ____
ROOT
ATOM      1  C   UNL     1       2.050   5.227  20.716  0.00  0.00    +0.000 C 
ENDROOT
BRANCH   1   2
ATOM      2  C   UNL     1       2.007   6.582  20.032  0.00  0.00    +0.000 C 
BRANCH   2   3
ATOM      3  C   UNL     1       1.809   7.673  21.061  0.00  0.00    +0.000 C 
BRANCH   3   4
ATOM      4  O   UNL     1       0.415   7.910  21.237  0.00  0.00    +0.000 OA
BRANCH   4   5
ATOM      5  P   UNL     1       0.127   9.333  22.177  0.00  0.00    +0.000 P 
ATOM      6  O   UNL     1      -0.892   8.530  22.992  0.00  0.00    +0.000 OA
ATOM      7  O   UNL     1       1.617   9.397  22.557  0.00  0.00    +0.000 OA
BRANCH   5   8
ATOM      8  O   UNL     1      -0.160  10.758  23.116  0.00  0.00    +0.000 OA
BRANCH   8   9
ATOM      9  C   UNL     1      -0.797  11.789  22.353  0.00  0.00    +0.000 C 
BRANCH   9  10
ATOM     10  C   UNL     1      -0.017  12.239  21.137  0.00  0.00    +0.000 C 
BRANCH  10  11
ATOM     11  N   UNL     1      -0.980  12.753  20.027  0.00  0.00    +0.000 N 
ATOM     12  C   UNL     1      -1.998  13.752  20.595  0.00  0.00    +0.000 C 
ATOM     13  C   UNL     1      -0.182  13.475  18.931  0.00  0.00    +0.000 C 
BRANCH  11  14
ATOM     14  C   UNL     1      -1.623  11.535  19.376  0.00  0.00    +0.000 C 
ATOM     15  C   UNL     1      -1.820  11.524  17.886  0.00  0.00    +0.000 C 
ATOM     16  C   UNL     1      -0.829  10.595  18.511  0.00  0.00    +0.000 C 
ENDBRANCH  11  14
ENDBRANCH  10  11
ENDBRANCH   9  10
ENDBRANCH   8   9
ENDBRANCH   5   8
ENDBRANCH   4   5
ENDBRANCH   3   4
ENDBRANCH   2   3
ENDBRANCH   1   2
BRANCH   1  17
ATOM     17  C   UNL     1       0.789   4.443  20.421  0.00  0.00    +0.000 C 
BRANCH  17  18
ATOM     18  C   UNL     1       1.112   3.327  19.445  0.00  0.00    +0.000 C 
BRANCH  18  19
ATOM     19  C   UNL     1       1.671   3.912  18.164  0.00  0.00    +0.000 C 
BRANCH  19  20
ATOM     20  C   UNL     1       2.506   2.876  17.437  0.00  0.00    +0.000 C 
BRANCH  20  21
ATOM     21  C   UNL     1       3.977   3.136  17.701  0.00  0.00    +0.000 C 
BRANCH  21  22
ATOM     22  C   UNL     1       4.192   4.577  18.120  0.00  0.00    +0.000 C 
BRANCH  22  23
ATOM     23  C   UNL     1       4.232   5.465  16.886  0.00  0.00    +0.000 C 
BRANCH  23  24
ATOM     24  C   UNL     1       5.581   6.149  16.782  0.00  0.00    +0.000 C 
BRANCH  24  25
ATOM     25  C   UNL     1       6.707   5.125  16.837  0.00  0.00    +0.000 C 
BRANCH  25  26
ATOM     26  C   UNL     1       7.300   4.983  15.445  0.00  0.00    +0.000 C 
BRANCH  26  27
ATOM     27  C   UNL     1       6.630   3.878  14.638  0.00  0.00    +0.000 C 
BRANCH  27  28
ATOM     28  C   UNL     1       6.233   4.369  13.249  0.00  0.00    +0.000 C 
BRANCH  28  29
ATOM     29  C   UNL     1       6.628   3.405  12.125  0.00  0.00    +0.000 C 
BRANCH  29  31
ATOM     30  C   UNL     1       5.976   1.201  11.085  0.00  0.00    +0.000 C 
ATOM     31  C   UNL     1       5.492   2.440  11.823  0.00  0.00    +0.000 C 
ENDBRANCH  29  31
ENDBRANCH  28  29
ENDBRANCH  27  28
ENDBRANCH  26  27
ENDBRANCH  25  26
ENDBRANCH  24  25
ENDBRANCH  23  24
ENDBRANCH  22  23
ENDBRANCH  21  22
ENDBRANCH  20  21
ENDBRANCH  19  20
ENDBRANCH  18  19
ENDBRANCH  17  18
ENDBRANCH   1  17
TORSDOF 23
ENDMDL
MODEL 7
REMARK VINA RESULT:      -5.1      7.203     11.866
REMARK  Name = 
REMARK  26 active torsions:
REMARK  status: ('A' for Active; 'I' for Inactive)
REMARK    1  A    between atoms: C_1  and  C_2
REMARK    2  A    between atoms: C_2  and  C_3
REMARK    3  A    between atoms: C_3  and  C_4
REMARK    4  A    between atoms: C_4  and  C_5
REMARK    5  A    between atoms: C_5  and  C_6
REMARK    6  A    between atoms: C_6  and  C_7
REMARK    7  A    between atoms: C_7  and  C_8
REMARK    8  A    between atoms: C_8  and  C_9
REMARK    9  A    between atoms: C_9  and  C_10
REMARK   10  A    between atoms: C_10  and  C_11
REMARK   11  A    between atoms: C_11  and  C_12
REMARK   12  A    between atoms: C_12  and  C_13
REMARK   13  A    between atoms: C_13  and  C_14
REMARK   14  A    between atoms: C_14  and  C_15
REMARK   15  A    between atoms: C_15  and  C_16
REMARK   16  A    between atoms: C_16  and  C_17
REMARK   17  A    between atoms: C_17  and  C_18
REMARK   18  A    between atoms: C_18  and  O_19
REMARK   19  A    between atoms: O_19  and  P_20
REMARK   20  A    between atoms: P_20  and  O_23
REMARK   21  A    between atoms: O_23  and  C_24
REMARK   22  A    between atoms: C_24  and  C_25
REMARK   23  A    between atoms: C_25  and  N_26
REMARK   24  A    between atoms: N_26  and  C_27
REMARK   25  A    between atoms: N_26  and  C_28
REMARK   26  A    between atoms: N_26  and  C_29
REMARK                            x       y       z     vdW  Elec       q    Type
REMARK                         _______ _______ _______ _____ _____    ______ ____
ROOT
ATOM      1  C   UNL     1       0.599  10.037  17.794  0.00  0.00    +0.000 C 
ENDROOT
BRANCH   1   2
ATOM      2  C   UNL     1      -0.596  10.354  18.674  0.00  0.00    +0.000 C 
BRANCH   2   3
ATOM      3  C   UNL     1      -0.229  10.164  20.130  0.00  0.00    +0.000 C 
BRANCH   3   4
ATOM      4  O   UNL     1      -1.173  10.847  20.949  0.00  0.00    +0.000 OA
BRANCH   4   5
ATOM      5  P   UNL     1      -0.456  12.207  21.742  0.00  0.00    +0.000 P 
ATOM      6  O   UNL     1      -1.609  13.064  21.207  0.00  0.00    +0.000 OA
ATOM      7  O   UNL     1      -0.534  11.475  23.093  0.00  0.00    +0.000 OA
BRANCH   5   8
ATOM      8  O   UNL     1       0.261  13.567  22.535  0.00  0.00    +0.000 OA
BRANCH   8   9
ATOM      9  C   UNL     1       0.956  14.423  21.619  0.00  0.00    +0.000 C 
BRANCH   9  10
ATOM     10  C   UNL     1       1.779  13.690  20.583  0.00  0.00    +0.000 C 
BRANCH  10  11
ATOM     11  N   UNL     1       1.683  14.401  19.202  0.00  0.00    +0.000 N 
ATOM     12  C   UNL     1       2.872  14.032  18.303  0.00  0.00    +0.000 C 
ATOM     13  C   UNL     1       0.401  13.970  18.475  0.00  0.00    +0.000 C 
BRANCH  11  14
ATOM     14  C   UNL     1       1.561  15.897  19.462  0.00  0.00    +0.000 C 
ATOM     15  C   UNL     1       2.112  16.860  18.449  0.00  0.00    +0.000 C 
ATOM     16  C   UNL     1       0.634  16.763  18.653  0.00  0.00    +0.000 C 
ENDBRANCH  11  14
ENDBRANCH  10  11
ENDBRANCH   9  10
ENDBRANCH   8   9
ENDBRANCH   5   8
ENDBRANCH   4   5
ENDBRANCH   3   4
ENDBRANCH   2   3
ENDBRANCH   1   2
BRANCH   1  17
ATOM     17  C   UNL     1       1.666   9.313  18.587  0.00  0.00    +0.000 C 
BRANCH  17  18
ATOM     18  C   UNL     1       2.132   8.099  17.805  0.00  0.00    +0.000 C 
BRANCH  18  19
ATOM     19  C   UNL     1       2.494   6.982  18.761  0.00  0.00    +0.000 C 
BRANCH  19  20
ATOM     20  C   UNL     1       2.150   7.379  20.183  0.00  0.00    +0.000 C 
BRANCH  20  21
ATOM     21  C   UNL     1       1.552   6.190  20.911  0.00  0.00    +0.000 C 
BRANCH  21  22
ATOM     22  C   UNL     1       2.042   4.893  20.296  0.00  0.00    +0.000 C 
BRANCH  22  23
ATOM     23  C   UNL     1       0.994   3.809  20.492  0.00  0.00    +0.000 C 
BRANCH  23  24
ATOM     24  C   UNL     1       1.468   2.511  19.871  0.00  0.00    +0.000 C 
BRANCH  24  25
ATOM     25  C   UNL     1       1.399   2.586  18.351  0.00  0.00    +0.000 C 
BRANCH  25  26
ATOM     26  C   UNL     1       2.677   1.998  17.779  0.00  0.00    +0.000 C 
BRANCH  26  27
ATOM     27  C   UNL     1       3.898   2.857  18.080  0.00  0.00    +0.000 C 
BRANCH  27  28
ATOM     28  C   UNL     1       3.917   4.115  17.217  0.00  0.00    +0.000 C 
BRANCH  28  29
ATOM     29  C   UNL     1       5.326   4.538  16.785  0.00  0.00    +0.000 C 
BRANCH  29  31
ATOM     30  C   UNL     1       6.327   4.002  14.533  0.00  0.00    +0.000 C 
ATOM     31  C   UNL     1       5.351   4.879  15.303  0.00  0.00    +0.000 C 
ENDBRANCH  29  31
ENDBRANCH  28  29
ENDBRANCH  27  28
ENDBRANCH  26  27
ENDBRANCH  25  26
ENDBRANCH  24  25
ENDBRANCH  23  24
ENDBRANCH  22  23
ENDBRANCH  21  22
ENDBRANCH  20  21
ENDBRANCH  19  20
ENDBRANCH  18  19
ENDBRANCH  17  18
ENDBRANCH   1  17
TORSDOF 23
ENDMDL
MODEL 8
REMARK VINA RESULT:      -5.1      7.143     10.392
REMARK  Name = 
REMARK  26 active torsions:
REMARK  status: ('A' for Active; 'I' for Inactive)
REMARK    1  A    between atoms: C_1  and  C_2
REMARK    2  A    between atoms: C_2  and  C_3
REMARK    3  A    between atoms: C_3  and  C_4
REMARK    4  A    between atoms: C_4  and  C_5
REMARK    5  A    between atoms: C_5  and  C_6
REMARK    6  A    between atoms: C_6  and  C_7
REMARK    7  A    between atoms: C_7  and  C_8
REMARK    8  A    between atoms: C_8  and  C_9
REMARK    9  A    between atoms: C_9  and  C_10
REMARK   10  A    between atoms: C_10  and  C_11
REMARK   11  A    between atoms: C_11  and  C_12
REMARK   12  A    between atoms: C_12  and  C_13
REMARK   13  A    between atoms: C_13  and  C_14
REMARK   14  A    between atoms: C_14  and  C_15
REMARK   15  A    between atoms: C_15  and  C_16
REMARK   16  A    between atoms: C_16  and  C_17
REMARK   17  A    between atoms: C_17  and  C_18
REMARK   18  A    between atoms: C_18  and  O_19
REMARK   19  A    between atoms: O_19  and  P_20
REMARK   20  A    between atoms: P_20  and  O_23
REMARK   21  A    between atoms: O_23  and  C_24
REMARK   22  A    between atoms: C_24  and  C_25
REMARK   23  A    between atoms: C_25  and  N_26
REMARK   24  A    between atoms: N_26  and  C_27
REMARK   25  A    between atoms: N_26  and  C_28
REMARK   26  A    between atoms: N_26  and  C_29
REMARK                            x       y       z     vdW  Elec       q    Type
REMARK                         _______ _______ _______ _____ _____    ______ ____
ROOT
ATOM      1  C   UNL     1       2.394   7.371  18.043  0.00  0.00    +0.000 C 
ENDROOT
BRANCH   1   2
ATOM      2  C   UNL     1       2.321   7.236  19.554  0.00  0.00    +0.000 C 
BRANCH   2   3
ATOM      3  C   UNL     1       1.665   8.463  20.150  0.00  0.00    +0.000 C 
BRANCH   3   4
ATOM      4  O   UNL     1       0.743   8.064  21.159  0.00  0.00    +0.000 OA
BRANCH   4   5
ATOM      5  P   UNL     1       0.336   9.381  22.204  0.00  0.00    +0.000 P 
ATOM      6  O   UNL     1       1.769   9.330  22.745  0.00  0.00    +0.000 OA
ATOM      7  O   UNL     1      -0.053  10.239  20.988  0.00  0.00    +0.000 OA
BRANCH   5   8
ATOM      8  O   UNL     1      -0.071  10.698  23.249  0.00  0.00    +0.000 OA
BRANCH   8   9
ATOM      9  C   UNL     1      -1.334  11.286  22.913  0.00  0.00    +0.000 C 
BRANCH   9  10
ATOM     10  C   UNL     1      -1.307  12.793  22.783  0.00  0.00    +0.000 C 
BRANCH  10  11
ATOM     11  N   UNL     1      -2.663  13.407  23.239  0.00  0.00    +0.000 N 
ATOM     12  C   UNL     1      -3.541  12.358  23.935  0.00  0.00    +0.000 C 
ATOM     13  C   UNL     1      -2.416  14.544  24.242  0.00  0.00    +0.000 C 
BRANCH  11  14
ATOM     14  C   UNL     1      -3.320  14.033  22.015  0.00  0.00    +0.000 C 
ATOM     15  C   UNL     1      -3.177  13.352  20.684  0.00  0.00    +0.000 C 
ATOM     16  C   UNL     1      -4.513  13.399  21.353  0.00  0.00    +0.000 C 
ENDBRANCH  11  14
ENDBRANCH  10  11
ENDBRANCH   9  10
ENDBRANCH   8   9
ENDBRANCH   5   8
ENDBRANCH   4   5
ENDBRANCH   3   4
ENDBRANCH   2   3
ENDBRANCH   1   2
BRANCH   1  17
ATOM     17  C   UNL     1       3.834   7.345  17.577  0.00  0.00    +0.000 C 
BRANCH  17  18
ATOM     18  C   UNL     1       4.079   6.076  16.783  0.00  0.00    +0.000 C 
BRANCH  18  19
ATOM     19  C   UNL     1       5.127   6.331  15.720  0.00  0.00    +0.000 C 
BRANCH  19  20
ATOM     20  C   UNL     1       5.798   5.029  15.325  0.00  0.00    +0.000 C 
BRANCH  20  21
ATOM     21  C   UNL     1       7.280   5.109  15.638  0.00  0.00    +0.000 C 
BRANCH  21  22
ATOM     22  C   UNL     1       7.550   4.617  17.047  0.00  0.00    +0.000 C 
BRANCH  22  23
ATOM     23  C   UNL     1       7.659   5.806  17.989  0.00  0.00    +0.000 C 
BRANCH  23  24
ATOM     24  C   UNL     1       7.214   5.407  19.382  0.00  0.00    +0.000 C 
BRANCH  24  25
ATOM     25  C   UNL     1       5.698   5.274  19.443  0.00  0.00    +0.000 C 
BRANCH  25  26
ATOM     26  C   UNL     1       5.323   3.849  19.074  0.00  0.00    +0.000 C 
BRANCH  26  27
ATOM     27  C   UNL     1       3.893   3.504  19.467  0.00  0.00    +0.000 C 
BRANCH  27  28
ATOM     28  C   UNL     1       3.171   2.765  18.344  0.00  0.00    +0.000 C 
BRANCH  28  29
ATOM     29  C   UNL     1       1.698   2.476  18.651  0.00  0.00    +0.000 C 
BRANCH  29  31
ATOM     30  C   UNL     1       0.686   4.003  20.385  0.00  0.00    +0.000 C 
ATOM     31  C   UNL     1       1.407   2.689  20.130  0.00  0.00    +0.000 C 
ENDBRANCH  29  31
ENDBRANCH  28  29
ENDBRANCH  27  28
ENDBRANCH  26  27
ENDBRANCH  25  26
ENDBRANCH  24  25
ENDBRANCH  23  24
ENDBRANCH  22  23
ENDBRANCH  21  22
ENDBRANCH  20  21
ENDBRANCH  19  20
ENDBRANCH  18  19
ENDBRANCH  17  18
ENDBRANCH   1  17
TORSDOF 23
ENDMDL
MODEL 9
REMARK VINA RESULT:      -5.1      4.995      8.367
REMARK  Name = 
REMARK  26 active torsions:
REMARK  status: ('A' for Active; 'I' for Inactive)
REMARK    1  A    between atoms: C_1  and  C_2
REMARK    2  A    between atoms: C_2  and  C_3
REMARK    3  A    between atoms: C_3  and  C_4
REMARK    4  A    between atoms: C_4  and  C_5
REMARK    5  A    between atoms: C_5  and  C_6
REMARK    6  A    between atoms: C_6  and  C_7
REMARK    7  A    between atoms: C_7  and  C_8
REMARK    8  A    between atoms: C_8  and  C_9
REMARK    9  A    between atoms: C_9  and  C_10
REMARK   10  A    between atoms: C_10  and  C_11
REMARK   11  A    between atoms: C_11  and  C_12
REMARK   12  A    between atoms: C_12  and  C_13
REMARK   13  A    between atoms: C_13  and  C_14
REMARK   14  A    between atoms: C_14  and  C_15
REMARK   15  A    between atoms: C_15  and  C_16
REMARK   16  A    between atoms: C_16  and  C_17
REMARK   17  A    between atoms: C_17  and  C_18
REMARK   18  A    between atoms: C_18  and  O_19
REMARK   19  A    between atoms: O_19  and  P_20
REMARK   20  A    between atoms: P_20  and  O_23
REMARK   21  A    between atoms: O_23  and  C_24
REMARK   22  A    between atoms: C_24  and  C_25
REMARK   23  A    between atoms: C_25  and  N_26
REMARK   24  A    between atoms: N_26  and  C_27
REMARK   25  A    between atoms: N_26  and  C_28
REMARK   26  A    between atoms: N_26  and  C_29
REMARK                            x       y       z     vdW  Elec       q    Type
REMARK                         _______ _______ _______ _____ _____    ______ ____
ROOT
ATOM      1  C   UNL     1       2.401   4.589  21.229  0.00  0.00    +0.000 C 
ENDROOT
BRANCH   1   2
ATOM      2  C   UNL     1       1.789   3.201  21.165  0.00  0.00    +0.000 C 
BRANCH   2   3
ATOM      3  C   UNL     1       0.925   3.075  19.930  0.00  0.00    +0.000 C 
BRANCH   3   4
ATOM      4  O   UNL     1       1.478   2.090  19.063  0.00  0.00    +0.000 OA
BRANCH   4   5
ATOM      5  P   UNL     1       2.900   2.671  18.268  0.00  0.00    +0.000 P 
ATOM      6  O   UNL     1       3.455   1.244  18.322  0.00  0.00    +0.000 OA
ATOM      7  O   UNL     1       2.048   3.178  17.092  0.00  0.00    +0.000 OA
BRANCH   5   8
ATOM      8  O   UNL     1       4.322   3.254  17.473  0.00  0.00    +0.000 OA
BRANCH   8   9
ATOM      9  C   UNL     1       4.946   4.323  18.194  0.00  0.00    +0.000 C 
BRANCH   9  10
ATOM     10  C   UNL     1       5.207   5.563  17.368  0.00  0.00    +0.000 C 
BRANCH  10  11
ATOM     11  N   UNL     1       6.719   5.678  17.013  0.00  0.00    +0.000 N 
ATOM     12  C   UNL     1       7.283   7.045  17.428  0.00  0.00    +0.000 C 
ATOM     13  C   UNL     1       7.518   4.600  17.760  0.00  0.00    +0.000 C 
BRANCH  11  14
ATOM     14  C   UNL     1       6.866   5.387  15.525  0.00  0.00    +0.000 C 
ATOM     15  C   UNL     1       6.602   3.995  15.025  0.00  0.00    +0.000 C 
ATOM     16  C   UNL     1       5.671   5.105  14.657  0.00  0.00    +0.000 C 
ENDBRANCH  11  14
ENDBRANCH  10  11
ENDBRANCH   9  10
ENDBRANCH   8   9
ENDBRANCH   5   8
ENDBRANCH   4   5
ENDBRANCH   3   4
ENDBRANCH   2   3
ENDBRANCH   1   2
BRANCH   1  17
ATOM     17  C   UNL     1       1.525   5.590  20.505  0.00  0.00    +0.000 C 
BRANCH  17  18
ATOM     18  C   UNL     1       2.403   6.560  19.737  0.00  0.00    +0.000 C 
BRANCH  18  19
ATOM     19  C   UNL     1       1.819   7.955  19.819  0.00  0.00    +0.000 C 
BRANCH  19  20
ATOM     20  C   UNL     1       1.450   8.283  21.253  0.00  0.00    +0.000 C 
BRANCH  20  21
ATOM     21  C   UNL     1       0.758   9.632  21.301  0.00  0.00    +0.000 C 
BRANCH  21  22
ATOM     22  C   UNL     1      -0.325   9.708  20.242  0.00  0.00    +0.000 C 
BRANCH  22  23
ATOM     23  C   UNL     1      -0.243  11.046  19.526  0.00  0.00    +0.000 C 
BRANCH  23  24
ATOM     24  C   UNL     1       0.886  11.876  20.102  0.00  0.00    +0.000 C 
BRANCH  24  25
ATOM     25  C   UNL     1       0.335  13.060  20.887  0.00  0.00    +0.000 C 
BRANCH  25  26
ATOM     26  C   UNL     1      -0.466  13.937  19.940  0.00  0.00    +0.000 C 
BRANCH  26  27
ATOM     27  C   UNL     1       0.394  14.533  18.833  0.00  0.00    +0.000 C 
BRANCH  27  28
ATOM     28  C   UNL     1       1.405  15.531  19.393  0.00  0.00    +0.000 C 
BRANCH  28  29
ATOM     29  C   UNL     1       2.179  16.289  18.308  0.00  0.00    +0.000 C 
BRANCH  29  31
ATOM     30  C   UNL     1       3.957  14.500  18.252  0.00  0.00    +0.000 C 
ATOM     31  C   UNL     1       3.667  15.986  18.402  0.00  0.00    +0.000 C 
ENDBRANCH  29  31
ENDBRANCH  28  29
ENDBRANCH  27  28
ENDBRANCH  26  27
ENDBRANCH  25  26
ENDBRANCH  24  25
ENDBRANCH  23  24
ENDBRANCH  22  23
ENDBRANCH  21  22
ENDBRANCH  20  21
ENDBRANCH  19  20
ENDBRANCH  18  19
ENDBRANCH  17  18
ENDBRANCH   1  17
TORSDOF 23
ENDMDL
