MODEL 1
REMARK VINA RESULT:      -7.3      0.000      0.000
REMARK  Name = 
REMARK  12 active torsions:
REMARK  status: ('A' for Active; 'I' for Inactive)
REMARK    1  A    between atoms: C_1  and  O_2
REMARK    2  A    between atoms: O_2  and  C_3
REMARK    3  A    between atoms: C_8  and  C_9
REMARK    4  A    between atoms: C_9  and  C_10
REMARK    5  A    between atoms: C_9  and  C_11
REMARK    6  A    between atoms: C_11  and  O_13
REMARK    7  A    between atoms: O_13  and  C_14
REMARK    8  A    between atoms: C_14  and  C_15
REMARK    9  A    between atoms: C_15  and  S_16
REMARK   10  A    between atoms: S_16  and  C_18
REMARK   11  A    between atoms: C_18  and  C_19
REMARK   12  A    between atoms: C_19  and  C_20
REMARK                            x       y       z     vdW  Elec       q    Type
REMARK                         _______ _______ _______ _____ _____    ______ ____
ROOT
ATOM      1  C   UNL     1       2.805   3.198  19.076  0.00  0.00    +0.000 C 
ATOM      2  C   UNL     1       4.049   2.711  19.828  0.00  0.00    +0.000 C 
ENDROOT
BRANCH   1   8
ATOM      3  C   UNL     1       1.448   9.634  19.287  0.00  0.00    +0.000 A 
ATOM      4  C   UNL     1       1.995   9.309  18.047  0.00  0.00    +0.000 A 
ATOM      5  C   UNL     1       2.358   7.990  17.767  0.00  0.00    +0.000 A 
ATOM      6  C   UNL     1       2.193   6.981  18.722  0.00  0.00    +0.000 A 
ATOM      7  C   UNL     1       2.560   5.657  18.440  0.00  0.00    +0.000 A 
ATOM      8  C   UNL     1       2.426   4.636  19.393  0.00  0.00    +0.000 A 
ATOM      9  C   UNL     1       1.866   4.960  20.637  0.00  0.00    +0.000 A 
ATOM     10  C   UNL     1       1.486   6.276  20.930  0.00  0.00    +0.000 A 
ATOM     11  C   UNL     1       1.652   7.304  19.985  0.00  0.00    +0.000 A 
ATOM     12  C   UNL     1       1.292   8.635  20.252  0.00  0.00    +0.000 A 
BRANCH   3  14
ATOM     13  C   UNL     1      -0.282  11.020  20.106  0.00  0.00    +0.000 C 
ATOM     14  O   UNL     1       1.069  10.891  19.673  0.00  0.00    +0.000 OA
ENDBRANCH   3  14
ENDBRANCH   1   8
BRANCH   1  15
ATOM     15  C   UNL     1       3.008   3.028  17.577  0.00  0.00    +0.000 C 
ATOM     16  O   UNL     1       2.123   2.784  16.765  0.00  0.00    +0.000 OA
BRANCH  15  17
ATOM     17  O   UNL     1       4.329   3.130  17.262  0.00  0.00    +0.000 OA
BRANCH  17  18
ATOM     18  C   UNL     1       4.652   4.008  16.167  0.00  0.00    +0.000 C 
BRANCH  18  19
ATOM     19  C   UNL     1       5.844   3.551  15.331  0.00  0.00    +0.000 C 
BRANCH  19  20
ATOM     20  S   UNL     1       7.165   4.801  15.376  0.00  0.00    +0.000 S 
ATOM     21  O   UNL     1       7.303   5.401  13.934  0.00  0.00    +0.000 OA
BRANCH  20  22
ATOM     22  C   UNL     1       6.274   6.024  16.406  0.00  0.00    +0.000 C 
BRANCH  22  23
ATOM     23  C   UNL     1       6.966   6.217  17.759  0.00  0.00    +0.000 C 
ATOM     24  C   UNL     1       7.727   7.534  17.884  0.00  0.00    +0.000 C 
ATOM     25  C   UNL     1       7.836   5.011  18.174  0.00  0.00    +0.000 C 
ATOM     26  O   UNL     1       6.818   4.539  19.084  0.00  0.00    +0.000 OA
ATOM     27  C   UNL     1       6.114   5.803  18.982  0.00  0.00    +0.000 C 
ENDBRANCH  22  23
ENDBRANCH  20  22
ENDBRANCH  19  20
ENDBRANCH  18  19
ENDBRANCH  17  18
ENDBRANCH  15  17
ENDBRANCH   1  15
TORSDOF 9
ENDMDL
MODEL 2
REMARK VINA RESULT:      -6.8      1.490      2.901
REMARK  Name = 
REMARK  12 active torsions:
REMARK  status: ('A' for Active; 'I' for Inactive)
REMARK    1  A    between atoms: C_1  and  O_2
REMARK    2  A    between atoms: O_2  and  C_3
REMARK    3  A    between atoms: C_8  and  C_9
REMARK    4  A    between atoms: C_9  and  C_10
REMARK    5  A    between atoms: C_9  and  C_11
REMARK    6  A    between atoms: C_11  and  O_13
REMARK    7  A    between atoms: O_13  and  C_14
REMARK    8  A    between atoms: C_14  and  C_15
REMARK    9  A    between atoms: C_15  and  S_16
REMARK   10  A    between atoms: S_16  and  C_18
REMARK   11  A    between atoms: C_18  and  C_19
REMARK   12  A    between atoms: C_19  and  C_20
REMARK                            x       y       z     vdW  Elec       q    Type
REMARK                         _______ _______ _______ _____ _____    ______ ____
ROOT
ATOM      1  C   UNL     1       2.169   3.585  19.926  0.00  0.00    +0.000 C 
ATOM      2  C   UNL     1       2.468   3.223  21.386  0.00  0.00    +0.000 C 
ENDROOT
BRANCH   1   8
ATOM      3  C   UNL     1       1.219  10.095  20.084  0.00  0.00    +0.000 A 
ATOM      4  C   UNL     1       0.884   9.541  21.318  0.00  0.00    +0.000 A 
ATOM      5  C   UNL     1       1.011   8.166  21.524  0.00  0.00    +0.000 A 
ATOM      6  C   UNL     1       1.462   7.324  20.502  0.00  0.00    +0.000 A 
ATOM      7  C   UNL     1       1.588   5.942  20.711  0.00  0.00    +0.000 A 
ATOM      8  C   UNL     1       2.014   5.079  19.690  0.00  0.00    +0.000 A 
ATOM      9  C   UNL     1       2.361   5.638  18.452  0.00  0.00    +0.000 A 
ATOM     10  C   UNL     1       2.251   7.016  18.232  0.00  0.00    +0.000 A 
ATOM     11  C   UNL     1       1.792   7.875  19.245  0.00  0.00    +0.000 A 
ATOM     12  C   UNL     1       1.658   9.260  19.052  0.00  0.00    +0.000 A 
BRANCH   3  14
ATOM     13  C   UNL     1       1.634  11.789  18.490  0.00  0.00    +0.000 C 
ATOM     14  O   UNL     1       1.124  11.423  19.768  0.00  0.00    +0.000 OA
ENDBRANCH   3  14
ENDBRANCH   1   8
BRANCH   1  15
ATOM     15  C   UNL     1       3.257   3.022  19.022  0.00  0.00    +0.000 C 
ATOM     16  O   UNL     1       3.066   2.475  17.942  0.00  0.00    +0.000 OA
BRANCH  15  17
ATOM     17  O   UNL     1       4.480   3.160  19.606  0.00  0.00    +0.000 OA
BRANCH  17  18
ATOM     18  C   UNL     1       5.466   3.879  18.843  0.00  0.00    +0.000 C 
BRANCH  18  19
ATOM     19  C   UNL     1       5.768   5.277  19.373  0.00  0.00    +0.000 C 
BRANCH  19  20
ATOM     20  S   UNL     1       6.775   6.205  18.175  0.00  0.00    +0.000 S 
ATOM     21  O   UNL     1       8.173   6.475  18.834  0.00  0.00    +0.000 OA
BRANCH  20  22
ATOM     22  C   UNL     1       6.981   4.847  16.965  0.00  0.00    +0.000 C 
BRANCH  22  23
ATOM     23  C   UNL     1       6.197   5.127  15.679  0.00  0.00    +0.000 C 
ATOM     24  C   UNL     1       5.282   6.346  15.764  0.00  0.00    +0.000 C 
ATOM     25  C   UNL     1       5.449   3.887  15.141  0.00  0.00    +0.000 C 
ATOM     26  O   UNL     1       6.462   3.664  14.136  0.00  0.00    +0.000 OA
ATOM     27  C   UNL     1       7.021   4.980  14.378  0.00  0.00    +0.000 C 
ENDBRANCH  22  23
ENDBRANCH  20  22
ENDBRANCH  19  20
ENDBRANCH  18  19
ENDBRANCH  17  18
ENDBRANCH  15  17
ENDBRANCH   1  15
TORSDOF 9
ENDMDL
MODEL 3
REMARK VINA RESULT:      -6.6      0.696      1.527
REMARK  Name = 
REMARK  12 active torsions:
REMARK  status: ('A' for Active; 'I' for Inactive)
REMARK    1  A    between atoms: C_1  and  O_2
REMARK    2  A    between atoms: O_2  and  C_3
REMARK    3  A    between atoms: C_8  and  C_9
REMARK    4  A    between atoms: C_9  and  C_10
REMARK    5  A    between atoms: C_9  and  C_11
REMARK    6  A    between atoms: C_11  and  O_13
REMARK    7  A    between atoms: O_13  and  C_14
REMARK    8  A    between atoms: C_14  and  C_15
REMARK    9  A    between atoms: C_15  and  S_16
REMARK   10  A    between atoms: S_16  and  C_18
REMARK   11  A    between atoms: C_18  and  C_19
REMARK   12  A    between atoms: C_19  and  C_20
REMARK                            x       y       z     vdW  Elec       q    Type
REMARK                         _______ _______ _______ _____ _____    ______ ____
ROOT
ATOM      1  C   UNL     1       2.729   3.751  19.122  0.00  0.00    +0.000 C 
ATOM      2  C   UNL     1       3.896   3.386  20.048  0.00  0.00    +0.000 C 
ENDROOT
BRANCH   1   8
ATOM      3  C   UNL     1       1.091  10.027  20.230  0.00  0.00    +0.000 A 
ATOM      4  C   UNL     1       0.852   9.270  21.375  0.00  0.00    +0.000 A 
ATOM      5  C   UNL     1       1.132   7.902  21.379  0.00  0.00    +0.000 A 
ATOM      6  C   UNL     1       1.641   7.269  20.240  0.00  0.00    +0.000 A 
ATOM      7  C   UNL     1       1.920   5.894  20.245  0.00  0.00    +0.000 A 
ATOM      8  C   UNL     1       2.407   5.237  19.105  0.00  0.00    +0.000 A 
ATOM      9  C   UNL     1       2.658   6.001  17.957  0.00  0.00    +0.000 A 
ATOM     10  C   UNL     1       2.394   7.376  17.940  0.00  0.00    +0.000 A 
ATOM     11  C   UNL     1       1.874   8.027  19.072  0.00  0.00    +0.000 A 
ATOM     12  C   UNL     1       1.588   9.401  19.083  0.00  0.00    +0.000 A 
BRANCH   3  14
ATOM     13  C   UNL     1       0.236  11.775  18.889  0.00  0.00    +0.000 C 
ATOM     14  O   UNL     1       0.844  11.368  20.110  0.00  0.00    +0.000 OA
ENDBRANCH   3  14
ENDBRANCH   1   8
BRANCH   1  15
ATOM     15  C   UNL     1       3.019   3.263  17.709  0.00  0.00    +0.000 C 
ATOM     16  O   UNL     1       2.225   2.673  16.987  0.00  0.00    +0.000 OA
BRANCH  15  17
ATOM     17  O   UNL     1       4.314   3.522  17.373  0.00  0.00    +0.000 OA
BRANCH  17  18
ATOM     18  C   UNL     1       4.512   4.303  16.180  0.00  0.00    +0.000 C 
BRANCH  18  19
ATOM     19  C   UNL     1       5.652   3.810  15.293  0.00  0.00    +0.000 C 
BRANCH  19  20
ATOM     20  S   UNL     1       7.158   4.784  15.598  0.00  0.00    +0.000 S 
ATOM     21  O   UNL     1       7.613   5.400  14.229  0.00  0.00    +0.000 OA
BRANCH  20  22
ATOM     22  C   UNL     1       6.364   6.115  16.572  0.00  0.00    +0.000 C 
BRANCH  22  23
ATOM     23  C   UNL     1       7.078   6.322  17.912  0.00  0.00    +0.000 C 
ATOM     24  C   UNL     1       7.874   7.620  17.997  0.00  0.00    +0.000 C 
ATOM     25  C   UNL     1       7.922   5.103  18.344  0.00  0.00    +0.000 C 
ATOM     26  O   UNL     1       6.903   4.679  19.277  0.00  0.00    +0.000 OA
ATOM     27  C   UNL     1       6.230   5.958  19.154  0.00  0.00    +0.000 C 
ENDBRANCH  22  23
ENDBRANCH  20  22
ENDBRANCH  19  20
ENDBRANCH  18  19
ENDBRANCH  17  18
ENDBRANCH  15  17
ENDBRANCH   1  15
TORSDOF 9
ENDMDL
MODEL 4
REMARK VINA RESULT:      -6.5      2.588      7.146
REMARK  Name = 
REMARK  12 active torsions:
REMARK  status: ('A' for Active; 'I' for Inactive)
REMARK    1  A    between atoms: C_1  and  O_2
REMARK    2  A    between atoms: O_2  and  C_3
REMARK    3  A    between atoms: C_8  and  C_9
REMARK    4  A    between atoms: C_9  and  C_10
REMARK    5  A    between atoms: C_9  and  C_11
REMARK    6  A    between atoms: C_11  and  O_13
REMARK    7  A    between atoms: O_13  and  C_14
REMARK    8  A    between atoms: C_14  and  C_15
REMARK    9  A    between atoms: C_15  and  S_16
REMARK   10  A    between atoms: S_16  and  C_18
REMARK   11  A    between atoms: C_18  and  C_19
REMARK   12  A    between atoms: C_19  and  C_20
REMARK                            x       y       z     vdW  Elec       q    Type
REMARK                         _______ _______ _______ _____ _____    ______ ____
ROOT
ATOM      1  C   UNL     1       2.797   4.245  20.859  0.00  0.00    +0.000 C 
ATOM      2  C   UNL     1       2.482   2.821  21.335  0.00  0.00    +0.000 C 
ENDROOT
BRANCH   1   8
ATOM      3  C   UNL     1       6.910   5.248  15.821  0.00  0.00    +0.000 A 
ATOM      4  C   UNL     1       7.221   6.121  16.862  0.00  0.00    +0.000 A 
ATOM      5  C   UNL     1       6.481   6.087  18.046  0.00  0.00    +0.000 A 
ATOM      6  C   UNL     1       5.416   5.193  18.203  0.00  0.00    +0.000 A 
ATOM      7  C   UNL     1       4.673   5.162  19.393  0.00  0.00    +0.000 A 
ATOM      8  C   UNL     1       3.587   4.291  19.560  0.00  0.00    +0.000 A 
ATOM      9  C   UNL     1       3.281   3.405  18.517  0.00  0.00    +0.000 A 
ATOM     10  C   UNL     1       4.020   3.417  17.328  0.00  0.00    +0.000 A 
ATOM     11  C   UNL     1       5.087   4.315  17.149  0.00  0.00    +0.000 A 
ATOM     12  C   UNL     1       5.840   4.360  15.964  0.00  0.00    +0.000 A 
BRANCH   3  14
ATOM     13  C   UNL     1       6.888   4.486  13.584  0.00  0.00    +0.000 C 
ATOM     14  O   UNL     1       7.558   5.201  14.617  0.00  0.00    +0.000 OA
ENDBRANCH   3  14
ENDBRANCH   1   8
BRANCH   1  15
ATOM     15  C   UNL     1       1.506   5.038  20.716  0.00  0.00    +0.000 C 
ATOM     16  O   UNL     1       0.467   4.617  20.223  0.00  0.00    +0.000 OA
BRANCH  15  17
ATOM     17  O   UNL     1       1.680   6.314  21.162  0.00  0.00    +0.000 OA
BRANCH  17  18
ATOM     18  C   UNL     1       1.868   7.317  20.147  0.00  0.00    +0.000 C 
BRANCH  18  19
ATOM     19  C   UNL     1       1.165   8.640  20.439  0.00  0.00    +0.000 C 
BRANCH  19  20
ATOM     20  S   UNL     1       1.309   9.762  19.014  0.00  0.00    +0.000 S 
ATOM     21  O   UNL     1       1.314   8.884  17.714  0.00  0.00    +0.000 OA
BRANCH  20  22
ATOM     22  C   UNL     1      -0.348  10.524  19.167  0.00  0.00    +0.000 C 
BRANCH  22  23
ATOM     23  C   UNL     1      -0.247  11.983  19.622  0.00  0.00    +0.000 C 
ATOM     24  C   UNL     1      -0.784  12.989  18.608  0.00  0.00    +0.000 C 
ATOM     25  C   UNL     1       1.165  12.368  20.118  0.00  0.00    +0.000 C 
ATOM     26  O   UNL     1       0.752  12.264  21.498  0.00  0.00    +0.000 OA
ATOM     27  C   UNL     1      -0.642  12.224  21.099  0.00  0.00    +0.000 C 
ENDBRANCH  22  23
ENDBRANCH  20  22
ENDBRANCH  19  20
ENDBRANCH  18  19
ENDBRANCH  17  18
ENDBRANCH  15  17
ENDBRANCH   1  15
TORSDOF 9
ENDMDL
MODEL 5
REMARK VINA RESULT:      -6.5      2.891      6.788
REMARK  Name = 
REMARK  12 active torsions:
REMARK  status: ('A' for Active; 'I' for Inactive)
REMARK    1  A    between atoms: C_1  and  O_2
REMARK    2  A    between atoms: O_2  and  C_3
REMARK    3  A    between atoms: C_8  and  C_9
REMARK    4  A    between atoms: C_9  and  C_10
REMARK    5  A    between atoms: C_9  and  C_11
REMARK    6  A    between atoms: C_11  and  O_13
REMARK    7  A    between atoms: O_13  and  C_14
REMARK    8  A    between atoms: C_14  and  C_15
REMARK    9  A    between atoms: C_15  and  S_16
REMARK   10  A    between atoms: S_16  and  C_18
REMARK   11  A    between atoms: C_18  and  C_19
REMARK   12  A    between atoms: C_19  and  C_20
REMARK                            x       y       z     vdW  Elec       q    Type
REMARK                         _______ _______ _______ _____ _____    ______ ____
ROOT
ATOM      1  C   UNL     1       2.398   3.165  19.448  0.00  0.00    +0.000 C 
ATOM      2  C   UNL     1       1.204   2.870  18.532  0.00  0.00    +0.000 C 
ENDROOT
BRANCH   1   8
ATOM      3  C   UNL     1       7.372   7.116  17.732  0.00  0.00    +0.000 A 
ATOM      4  C   UNL     1       7.772   6.283  18.775  0.00  0.00    +0.000 A 
ATOM      5  C   UNL     1       6.880   5.349  19.304  0.00  0.00    +0.000 A 
ATOM      6  C   UNL     1       5.575   5.241  18.811  0.00  0.00    +0.000 A 
ATOM      7  C   UNL     1       4.679   4.303  19.345  0.00  0.00    +0.000 A 
ATOM      8  C   UNL     1       3.360   4.197  18.881  0.00  0.00    +0.000 A 
ATOM      9  C   UNL     1       2.960   5.028  17.824  0.00  0.00    +0.000 A 
ATOM     10  C   UNL     1       3.846   5.962  17.274  0.00  0.00    +0.000 A 
ATOM     11  C   UNL     1       5.158   6.090  17.763  0.00  0.00    +0.000 A 
ATOM     12  C   UNL     1       6.067   7.025  17.241  0.00  0.00    +0.000 A 
BRANCH   3  14
ATOM     13  C   UNL     1       8.222   9.319  17.831  0.00  0.00    +0.000 C 
ATOM     14  O   UNL     1       8.157   8.072  17.146  0.00  0.00    +0.000 OA
ENDBRANCH   3  14
ENDBRANCH   1   8
BRANCH   1  15
ATOM     15  C   UNL     1       1.902   3.607  20.817  0.00  0.00    +0.000 C 
ATOM     16  O   UNL     1       1.196   2.940  21.564  0.00  0.00    +0.000 OA
BRANCH  15  17
ATOM     17  O   UNL     1       2.305   4.882  21.080  0.00  0.00    +0.000 OA
BRANCH  17  18
ATOM     18  C   UNL     1       1.303   5.904  20.928  0.00  0.00    +0.000 C 
BRANCH  18  19
ATOM     19  C   UNL     1       1.859   7.267  20.524  0.00  0.00    +0.000 C 
BRANCH  19  20
ATOM     20  S   UNL     1       0.890   8.600  21.296  0.00  0.00    +0.000 S 
ATOM     21  O   UNL     1       1.770   9.237  22.426  0.00  0.00    +0.000 OA
BRANCH  20  22
ATOM     22  C   UNL     1       0.909   9.741  19.864  0.00  0.00    +0.000 C 
BRANCH  22  23
ATOM     23  C   UNL     1       0.241  11.075  20.210  0.00  0.00    +0.000 C 
ATOM     24  C   UNL     1      -0.779  10.984  21.341  0.00  0.00    +0.000 C 
ATOM     25  C   UNL     1      -0.336  11.804  18.976  0.00  0.00    +0.000 C 
ATOM     26  O   UNL     1       0.791  12.706  18.932  0.00  0.00    +0.000 OA
ATOM     27  C   UNL     1       1.206  12.284  20.256  0.00  0.00    +0.000 C 
ENDBRANCH  22  23
ENDBRANCH  20  22
ENDBRANCH  19  20
ENDBRANCH  18  19
ENDBRANCH  17  18
ENDBRANCH  15  17
ENDBRANCH   1  15
TORSDOF 9
ENDMDL
MODEL 6
REMARK VINA RESULT:      -6.5      3.214      8.120
REMARK  Name = 
REMARK  12 active torsions:
REMARK  status: ('A' for Active; 'I' for Inactive)
REMARK    1  A    between atoms: C_1  and  O_2
REMARK    2  A    between atoms: O_2  and  C_3
REMARK    3  A    between atoms: C_8  and  C_9
REMARK    4  A    between atoms: C_9  and  C_10
REMARK    5  A    between atoms: C_9  and  C_11
REMARK    6  A    between atoms: C_11  and  O_13
REMARK    7  A    between atoms: O_13  and  C_14
REMARK    8  A    between atoms: C_14  and  C_15
REMARK    9  A    between atoms: C_15  and  S_16
REMARK   10  A    between atoms: S_16  and  C_18
REMARK   11  A    between atoms: C_18  and  C_19
REMARK   12  A    between atoms: C_19  and  C_20
REMARK                            x       y       z     vdW  Elec       q    Type
REMARK                         _______ _______ _______ _____ _____    ______ ____
ROOT
ATOM      1  C   UNL     1       2.493   5.774  20.273  0.00  0.00    +0.000 C 
ATOM      2  C   UNL     1       1.388   4.792  20.680  0.00  0.00    +0.000 C 
ENDROOT
BRANCH   1   8
ATOM      3  C   UNL     1       6.566   4.703  15.217  0.00  0.00    +0.000 A 
ATOM      4  C   UNL     1       7.146   5.607  16.104  0.00  0.00    +0.000 A 
ATOM      5  C   UNL     1       6.465   5.983  17.263  0.00  0.00    +0.000 A 
ATOM      6  C   UNL     1       5.193   5.475  17.547  0.00  0.00    +0.000 A 
ATOM      7  C   UNL     1       4.509   5.856  18.711  0.00  0.00    +0.000 A 
ATOM      8  C   UNL     1       3.222   5.376  18.999  0.00  0.00    +0.000 A 
ATOM      9  C   UNL     1       2.643   4.458  18.112  0.00  0.00    +0.000 A 
ATOM     10  C   UNL     1       3.317   4.061  16.952  0.00  0.00    +0.000 A 
ATOM     11  C   UNL     1       4.592   4.569  16.646  0.00  0.00    +0.000 A 
ATOM     12  C   UNL     1       5.290   4.199  15.485  0.00  0.00    +0.000 A 
BRANCH   3  14
ATOM     13  C   UNL     1       6.242   3.692  13.105  0.00  0.00    +0.000 C 
ATOM     14  O   UNL     1       7.136   4.273  14.049  0.00  0.00    +0.000 OA
ENDBRANCH   3  14
ENDBRANCH   1   8
BRANCH   1  15
ATOM     15  C   UNL     1       1.912   7.174  20.128  0.00  0.00    +0.000 C 
ATOM     16  O   UNL     1       2.103   7.925  19.179  0.00  0.00    +0.000 OA
BRANCH  15  17
ATOM     17  O   UNL     1       1.189   7.505  21.235  0.00  0.00    +0.000 OA
BRANCH  17  18
ATOM     18  C   UNL     1       1.268   8.880  21.652  0.00  0.00    +0.000 C 
BRANCH  18  19
ATOM     19  C   UNL     1       0.079   9.350  22.485  0.00  0.00    +0.000 C 
BRANCH  19  20
ATOM     20  S   UNL     1      -0.649  10.851  21.760  0.00  0.00    +0.000 S 
ATOM     21  O   UNL     1       0.239  12.069  22.193  0.00  0.00    +0.000 OA
BRANCH  20  22
ATOM     22  C   UNL     1      -0.255  10.465  20.015  0.00  0.00    +0.000 C 
BRANCH  22  23
ATOM     23  C   UNL     1      -1.234  11.156  19.060  0.00  0.00    +0.000 C 
ATOM     24  C   UNL     1      -1.827  10.231  18.001  0.00  0.00    +0.000 C 
ATOM     25  C   UNL     1      -0.662  12.448  18.436  0.00  0.00    +0.000 C 
ATOM     26  O   UNL     1      -1.418  13.272  19.351  0.00  0.00    +0.000 OA
ATOM     27  C   UNL     1      -2.221  12.130  19.746  0.00  0.00    +0.000 C 
ENDBRANCH  22  23
ENDBRANCH  20  22
ENDBRANCH  19  20
ENDBRANCH  18  19
ENDBRANCH  17  18
ENDBRANCH  15  17
ENDBRANCH   1  15
TORSDOF 9
ENDMDL
MODEL 7
REMARK VINA RESULT:      -6.5      2.022      3.640
REMARK  Name = 
REMARK  12 active torsions:
REMARK  status: ('A' for Active; 'I' for Inactive)
REMARK    1  A    between atoms: C_1  and  O_2
REMARK    2  A    between atoms: O_2  and  C_3
REMARK    3  A    between atoms: C_8  and  C_9
REMARK    4  A    between atoms: C_9  and  C_10
REMARK    5  A    between atoms: C_9  and  C_11
REMARK    6  A    between atoms: C_11  and  O_13
REMARK    7  A    between atoms: O_13  and  C_14
REMARK    8  A    between atoms: C_14  and  C_15
REMARK    9  A    between atoms: C_15  and  S_16
REMARK   10  A    between atoms: S_16  and  C_18
REMARK   11  A    between atoms: C_18  and  C_19
REMARK   12  A    between atoms: C_19  and  C_20
REMARK                            x       y       z     vdW  Elec       q    Type
REMARK                         _______ _______ _______ _____ _____    ______ ____
ROOT
ATOM      1  C   UNL     1       3.717   4.220  18.741  0.00  0.00    +0.000 C 
ATOM      2  C   UNL     1       3.166   2.966  19.431  0.00  0.00    +0.000 C 
ENDROOT
BRANCH   1   8
ATOM      3  C   UNL     1       0.958  10.152  19.448  0.00  0.00    +0.000 A 
ATOM      4  C   UNL     1       1.601  10.077  18.214  0.00  0.00    +0.000 A 
ATOM      5  C   UNL     1       2.256   8.903  17.838  0.00  0.00    +0.000 A 
ATOM      6  C   UNL     1       2.291   7.794  18.691  0.00  0.00    +0.000 A 
ATOM      7  C   UNL     1       2.951   6.616  18.312  0.00  0.00    +0.000 A 
ATOM      8  C   UNL     1       3.018   5.503  19.164  0.00  0.00    +0.000 A 
ATOM      9  C   UNL     1       2.363   5.575  20.401  0.00  0.00    +0.000 A 
ATOM     10  C   UNL     1       1.691   6.740  20.788  0.00  0.00    +0.000 A 
ATOM     11  C   UNL     1       1.653   7.867  19.948  0.00  0.00    +0.000 A 
ATOM     12  C   UNL     1       0.998   9.054  20.312  0.00  0.00    +0.000 A 
BRANCH   3  14
ATOM     13  C   UNL     1       1.097  12.414  20.121  0.00  0.00    +0.000 C 
ATOM     14  O   UNL     1       0.297  11.252  19.923  0.00  0.00    +0.000 OA
ENDBRANCH   3  14
ENDBRANCH   1   8
BRANCH   1  15
ATOM     15  C   UNL     1       5.214   4.331  18.992  0.00  0.00    +0.000 C 
ATOM     16  O   UNL     1       5.741   4.439  20.092  0.00  0.00    +0.000 OA
BRANCH  15  17
ATOM     17  O   UNL     1       5.893   4.353  17.811  0.00  0.00    +0.000 OA
BRANCH  17  18
ATOM     18  C   UNL     1       5.100   4.178  16.623  0.00  0.00    +0.000 C 
BRANCH  18  19
ATOM     19  C   UNL     1       5.220   5.320  15.618  0.00  0.00    +0.000 C 
BRANCH  19  20
ATOM     20  S   UNL     1       6.616   5.025  14.489  0.00  0.00    +0.000 S 
ATOM     21  O   UNL     1       7.875   4.693  15.363  0.00  0.00    +0.000 OA
BRANCH  20  22
ATOM     22  C   UNL     1       5.997   3.455  13.780  0.00  0.00    +0.000 C 
BRANCH  22  23
ATOM     23  C   UNL     1       6.169   3.428  12.258  0.00  0.00    +0.000 C 
ATOM     24  C   UNL     1       7.187   4.436  11.731  0.00  0.00    +0.000 C 
ATOM     25  C   UNL     1       4.830   3.513  11.494  0.00  0.00    +0.000 C 
ATOM     26  O   UNL     1       4.841   2.092  11.234  0.00  0.00    +0.000 OA
ATOM     27  C   UNL     1       6.231   2.009  11.644  0.00  0.00    +0.000 C 
ENDBRANCH  22  23
ENDBRANCH  20  22
ENDBRANCH  19  20
ENDBRANCH  18  19
ENDBRANCH  17  18
ENDBRANCH  15  17
ENDBRANCH   1  15
TORSDOF 9
ENDMDL
MODEL 8
REMARK VINA RESULT:      -6.5      1.860      3.531
REMARK  Name = 
REMARK  12 active torsions:
REMARK  status: ('A' for Active; 'I' for Inactive)
REMARK    1  A    between atoms: C_1  and  O_2
REMARK    2  A    between atoms: O_2  and  C_3
REMARK    3  A    between atoms: C_8  and  C_9
REMARK    4  A    between atoms: C_9  and  C_10
REMARK    5  A    between atoms: C_9  and  C_11
REMARK    6  A    between atoms: C_11  and  O_13
REMARK    7  A    between atoms: O_13  and  C_14
REMARK    8  A    between atoms: C_14  and  C_15
REMARK    9  A    between atoms: C_15  and  S_16
REMARK   10  A    between atoms: S_16  and  C_18
REMARK   11  A    between atoms: C_18  and  C_19
REMARK   12  A    between atoms: C_19  and  C_20
REMARK                            x       y       z     vdW  Elec       q    Type
REMARK                         _______ _______ _______ _____ _____    ______ ____
ROOT
ATOM      1  C   UNL     1       3.220   3.989  18.273  0.00  0.00    +0.000 C 
ATOM      2  C   UNL     1       2.530   2.746  18.850  0.00  0.00    +0.000 C 
ENDROOT
BRANCH   1   8
ATOM      3  C   UNL     1       1.087  10.072  19.597  0.00  0.00    +0.000 A 
ATOM      4  C   UNL     1       1.572  10.017  18.292  0.00  0.00    +0.000 A 
ATOM      5  C   UNL     1       2.075   8.819  17.783  0.00  0.00    +0.000 A 
ATOM      6  C   UNL     1       2.113   7.663  18.570  0.00  0.00    +0.000 A 
ATOM      7  C   UNL     1       2.620   6.459  18.057  0.00  0.00    +0.000 A 
ATOM      8  C   UNL     1       2.690   5.297  18.840  0.00  0.00    +0.000 A 
ATOM      9  C   UNL     1       2.192   5.348  20.149  0.00  0.00    +0.000 A 
ATOM     10  C   UNL     1       1.673   6.539  20.671  0.00  0.00    +0.000 A 
ATOM     11  C   UNL     1       1.635   7.712  19.897  0.00  0.00    +0.000 A 
ATOM     12  C   UNL     1       1.132   8.925  20.396  0.00  0.00    +0.000 A 
BRANCH   3  14
ATOM     13  C   UNL     1      -0.540  11.785  19.559  0.00  0.00    +0.000 C 
ATOM     14  O   UNL     1       0.584  11.191  20.201  0.00  0.00    +0.000 OA
ENDBRANCH   3  14
ENDBRANCH   1   8
BRANCH   1  15
ATOM     15  C   UNL     1       4.723   3.893  18.495  0.00  0.00    +0.000 C 
ATOM     16  O   UNL     1       5.279   3.892  19.586  0.00  0.00    +0.000 OA
BRANCH  15  17
ATOM     17  O   UNL     1       5.378   3.866  17.300  0.00  0.00    +0.000 OA
BRANCH  17  18
ATOM     18  C   UNL     1       4.645   4.363  16.166  0.00  0.00    +0.000 C 
BRANCH  18  19
ATOM     19  C   UNL     1       5.294   5.561  15.479  0.00  0.00    +0.000 C 
BRANCH  19  20
ATOM     20  S   UNL     1       6.617   5.008  14.358  0.00  0.00    +0.000 S 
ATOM     21  O   UNL     1       7.861   4.635  15.237  0.00  0.00    +0.000 OA
BRANCH  20  22
ATOM     22  C   UNL     1       5.817   3.447  13.832  0.00  0.00    +0.000 C 
BRANCH  22  23
ATOM     23  C   UNL     1       5.775   3.335  12.304  0.00  0.00    +0.000 C 
ATOM     24  C   UNL     1       4.404   3.624  11.699  0.00  0.00    +0.000 C 
ATOM     25  C   UNL     1       6.366   2.010  11.775  0.00  0.00    +0.000 C 
ATOM     26  O   UNL     1       7.602   2.662  11.408  0.00  0.00    +0.000 OA
ATOM     27  C   UNL     1       6.987   3.965  11.579  0.00  0.00    +0.000 C 
ENDBRANCH  22  23
ENDBRANCH  20  22
ENDBRANCH  19  20
ENDBRANCH  18  19
ENDBRANCH  17  18
ENDBRANCH  15  17
ENDBRANCH   1  15
TORSDOF 9
ENDMDL
MODEL 9
REMARK VINA RESULT:      -6.4      2.728      7.341
REMARK  Name = 
REMARK  12 active torsions:
REMARK  status: ('A' for Active; 'I' for Inactive)
REMARK    1  A    between atoms: C_1  and  O_2
REMARK    2  A    between atoms: O_2  and  C_3
REMARK    3  A    between atoms: C_8  and  C_9
REMARK    4  A    between atoms: C_9  and  C_10
REMARK    5  A    between atoms: C_9  and  C_11
REMARK    6  A    between atoms: C_11  and  O_13
REMARK    7  A    between atoms: O_13  and  C_14
REMARK    8  A    between atoms: C_14  and  C_15
REMARK    9  A    between atoms: C_15  and  S_16
REMARK   10  A    between atoms: S_16  and  C_18
REMARK   11  A    between atoms: C_18  and  C_19
REMARK   12  A    between atoms: C_19  and  C_20
REMARK                            x       y       z     vdW  Elec       q    Type
REMARK                         _______ _______ _______ _____ _____    ______ ____
ROOT
ATOM      1  C   UNL     1       2.777   4.018  20.697  0.00  0.00    +0.000 C 
ATOM      2  C   UNL     1       2.892   2.643  21.367  0.00  0.00    +0.000 C 
ENDROOT
BRANCH   1   8
ATOM      3  C   UNL     1       6.993   5.335  15.820  0.00  0.00    +0.000 A 
ATOM      4  C   UNL     1       7.271   6.151  16.915  0.00  0.00    +0.000 A 
ATOM      5  C   UNL     1       6.506   6.045  18.077  0.00  0.00    +0.000 A 
ATOM      6  C   UNL     1       5.446   5.135  18.160  0.00  0.00    +0.000 A 
ATOM      7  C   UNL     1       4.677   5.032  19.329  0.00  0.00    +0.000 A 
ATOM      8  C   UNL     1       3.595   4.143  19.422  0.00  0.00    +0.000 A 
ATOM      9  C   UNL     1       3.321   3.315  18.324  0.00  0.00    +0.000 A 
ATOM     10  C   UNL     1       4.087   3.399  17.155  0.00  0.00    +0.000 A 
ATOM     11  C   UNL     1       5.149   4.314  17.051  0.00  0.00    +0.000 A 
ATOM     12  C   UNL     1       5.929   4.432  15.889  0.00  0.00    +0.000 A 
BRANCH   3  14
ATOM     13  C   UNL     1       7.096   4.588  13.580  0.00  0.00    +0.000 C 
ATOM     14  O   UNL     1       7.668   5.361  14.630  0.00  0.00    +0.000 OA
ENDBRANCH   3  14
ENDBRANCH   1   8
BRANCH   1  15
ATOM     15  C   UNL     1       1.315   4.334  20.415  0.00  0.00    +0.000 C 
ATOM     16  O   UNL     1       0.388   3.539  20.508  0.00  0.00    +0.000 OA
BRANCH  15  17
ATOM     17  O   UNL     1       1.180   5.621  19.987  0.00  0.00    +0.000 OA
BRANCH  17  18
ATOM     18  C   UNL     1       1.379   6.641  20.983  0.00  0.00    +0.000 C 
BRANCH  18  19
ATOM     19  C   UNL     1       1.819   7.988  20.417  0.00  0.00    +0.000 C 
BRANCH  19  20
ATOM     20  S   UNL     1       0.582   9.268  20.793  0.00  0.00    +0.000 S 
ATOM     21  O   UNL     1       1.181  10.200  21.903  0.00  0.00    +0.000 OA
BRANCH  20  22
ATOM     22  C   UNL     1       0.696  10.157  19.197  0.00  0.00    +0.000 C 
BRANCH  22  23
ATOM     23  C   UNL     1      -0.612  10.887  18.875  0.00  0.00    +0.000 C 
ATOM     24  C   UNL     1      -1.450  10.212  17.793  0.00  0.00    +0.000 C 
ATOM     25  C   UNL     1      -0.413  12.392  18.589  0.00  0.00    +0.000 C 
ATOM     26  O   UNL     1      -0.874  12.745  19.912  0.00  0.00    +0.000 OA
ATOM     27  C   UNL     1      -1.382  11.402  20.115  0.00  0.00    +0.000 C 
ENDBRANCH  22  23
ENDBRANCH  20  22
ENDBRANCH  19  20
ENDBRANCH  18  19
ENDBRANCH  17  18
ENDBRANCH  15  17
ENDBRANCH   1  15
TORSDOF 9
ENDMDL
