MODEL 1
REMARK VINA RESULT:      -6.6      0.000      0.000
REMARK  Name = 
REMARK  8 active torsions:
REMARK  status: ('A' for Active; 'I' for Inactive)
REMARK    1  A    between atoms: C_1  and  C_2
REMARK    2  A    between atoms: C_2  and  C_3
REMARK    3  A    between atoms: C_2  and  N_11
REMARK    4  A    between atoms: C_3  and  C_4
REMARK    5  A    between atoms: C_4  and  O_5
REMARK    6  A    between atoms: C_4  and  C_6
REMARK    7  A    between atoms: N_11  and  C_12
REMARK    8  A    between atoms: C_12  and  C_13
REMARK                            x       y       z     vdW  Elec       q    Type
REMARK                         _______ _______ _______ _____ _____    ______ ____
ROOT
ATOM      1  C   UNL     1       3.429   5.640  17.814  0.00  0.00    +0.000 C 
ATOM      2  C   UNL     1       3.963   4.295  17.297  0.00  0.00    +0.000 C 
ENDROOT
BRANCH   2   3
ATOM      3  N   UNL     1       4.732   4.460  16.055  0.00  0.00    +0.000 NA
ATOM      4  H   UNL     1       4.647   5.413  15.707  0.00  0.00    +0.000 HD
BRANCH   3   5
ATOM      5  C   UNL     1       6.152   4.138  16.213  0.00  0.00    +0.000 C 
BRANCH   5   6
ATOM      6  C   UNL     1       6.840   5.161  17.075  0.00  0.00    +0.000 A 
ATOM      7  C   UNL     1       7.401   4.804  18.309  0.00  0.00    +0.000 A 
ATOM      8  C   UNL     1       8.026   5.785  19.064  0.00  0.00    +0.000 A 
ATOM      9  N   UNL     1       8.130   7.075  18.681  0.00  0.00    +0.000 NA
ATOM     10  C   UNL     1       7.582   7.400  17.489  0.00  0.00    +0.000 A 
ATOM     11  C   UNL     1       6.937   6.492  16.663  0.00  0.00    +0.000 A 
ENDBRANCH   5   6
ENDBRANCH   3   5
ENDBRANCH   2   3
BRANCH   2  12
ATOM     12  C   UNL     1       2.756   3.366  17.050  0.00  0.00    +0.000 C 
BRANCH  12  13
ATOM     13  C   UNL     1       2.704   2.113  17.933  0.00  0.00    +0.000 C 
BRANCH  13  14
ATOM     14  C   UNL     1       2.241   2.460  19.314  0.00  0.00    +0.000 A 
ATOM     15  C   UNL     1       1.032   2.862  19.846  0.00  0.00    +0.000 A 
ATOM     16  C   UNL     1       1.251   3.074  21.230  0.00  0.00    +0.000 A 
ATOM     17  C   UNL     1       2.573   2.777  21.459  0.00  0.00    +0.000 A 
ATOM     18  O   UNL     1       3.180   2.391  20.308  0.00  0.00    +0.000 OA
ENDBRANCH  13  14
BRANCH  13  19
ATOM     19  O   UNL     1       4.007   1.544  18.066  0.00  0.00    +0.000 OA
ATOM     20  H   UNL     1       4.482   2.104  18.706  0.00  0.00    +0.000 HD
ENDBRANCH  13  19
ENDBRANCH  12  13
ENDBRANCH   2  12
TORSDOF 7
ENDMDL
MODEL 2
REMARK VINA RESULT:      -6.6      2.669      6.093
REMARK  Name = 
REMARK  8 active torsions:
REMARK  status: ('A' for Active; 'I' for Inactive)
REMARK    1  A    between atoms: C_1  and  C_2
REMARK    2  A    between atoms: C_2  and  C_3
REMARK    3  A    between atoms: C_2  and  N_11
REMARK    4  A    between atoms: C_3  and  C_4
REMARK    5  A    between atoms: C_4  and  O_5
REMARK    6  A    between atoms: C_4  and  C_6
REMARK    7  A    between atoms: N_11  and  C_12
REMARK    8  A    between atoms: C_12  and  C_13
REMARK                            x       y       z     vdW  Elec       q    Type
REMARK                         _______ _______ _______ _____ _____    ______ ____
ROOT
ATOM      1  C   UNL     1       3.821   5.580  17.954  0.00  0.00    +0.000 C 
ATOM      2  C   UNL     1       4.140   4.438  16.978  0.00  0.00    +0.000 C 
ENDROOT
BRANCH   2   3
ATOM      3  N   UNL     1       4.675   3.262  17.678  0.00  0.00    +0.000 NA
ATOM      4  H   UNL     1       5.065   3.530  18.580  0.00  0.00    +0.000 HD
BRANCH   3   5
ATOM      5  C   UNL     1       3.673   2.214  17.887  0.00  0.00    +0.000 C 
BRANCH   5   6
ATOM      6  C   UNL     1       2.828   2.516  19.095  0.00  0.00    +0.000 A 
ATOM      7  C   UNL     1       1.457   2.779  18.968  0.00  0.00    +0.000 A 
ATOM      8  C   UNL     1       0.723   3.049  20.113  0.00  0.00    +0.000 A 
ATOM      9  N   UNL     1       1.250   3.074  21.355  0.00  0.00    +0.000 NA
ATOM     10  C   UNL     1       2.574   2.819  21.456  0.00  0.00    +0.000 A 
ATOM     11  C   UNL     1       3.392   2.538  20.373  0.00  0.00    +0.000 A 
ENDBRANCH   5   6
ENDBRANCH   3   5
ENDBRANCH   2   3
BRANCH   2  12
ATOM     12  C   UNL     1       5.174   4.958  15.957  0.00  0.00    +0.000 C 
BRANCH  12  13
ATOM     13  C   UNL     1       6.640   4.662  16.303  0.00  0.00    +0.000 C 
BRANCH  13  14
ATOM     14  C   UNL     1       7.209   5.749  17.162  0.00  0.00    +0.000 A 
ATOM     15  C   UNL     1       7.724   5.787  18.442  0.00  0.00    +0.000 A 
ATOM     16  C   UNL     1       8.066   7.137  18.699  0.00  0.00    +0.000 A 
ATOM     17  C   UNL     1       7.751   7.837  17.558  0.00  0.00    +0.000 A 
ATOM     18  O   UNL     1       7.243   7.004  16.615  0.00  0.00    +0.000 OA
ENDBRANCH  13  14
BRANCH  13  19
ATOM     19  O   UNL     1       7.432   4.617  15.116  0.00  0.00    +0.000 OA
ATOM     20  H   UNL     1       7.093   3.868  14.593  0.00  0.00    +0.000 HD
ENDBRANCH  13  19
ENDBRANCH  12  13
ENDBRANCH   2  12
TORSDOF 7
ENDMDL
MODEL 3
REMARK VINA RESULT:      -6.4      2.676      6.195
REMARK  Name = 
REMARK  8 active torsions:
REMARK  status: ('A' for Active; 'I' for Inactive)
REMARK    1  A    between atoms: C_1  and  C_2
REMARK    2  A    between atoms: C_2  and  C_3
REMARK    3  A    between atoms: C_2  and  N_11
REMARK    4  A    between atoms: C_3  and  C_4
REMARK    5  A    between atoms: C_4  and  O_5
REMARK    6  A    between atoms: C_4  and  C_6
REMARK    7  A    between atoms: N_11  and  C_12
REMARK    8  A    between atoms: C_12  and  C_13
REMARK                            x       y       z     vdW  Elec       q    Type
REMARK                         _______ _______ _______ _____ _____    ______ ____
ROOT
ATOM      1  C   UNL     1       3.831   7.561  17.344  0.00  0.00    +0.000 C 
ATOM      2  C   UNL     1       4.526   6.221  17.057  0.00  0.00    +0.000 C 
ENDROOT
BRANCH   2   3
ATOM      3  N   UNL     1       3.748   5.087  17.574  0.00  0.00    +0.000 NA
ATOM      4  H   UNL     1       4.292   4.565  18.261  0.00  0.00    +0.000 HD
BRANCH   3   5
ATOM      5  C   UNL     1       2.478   5.491  18.182  0.00  0.00    +0.000 C 
BRANCH   5   6
ATOM      6  C   UNL     1       2.069   4.523  19.258  0.00  0.00    +0.000 A 
ATOM      7  C   UNL     1       1.226   3.441  18.972  0.00  0.00    +0.000 A 
ATOM      8  C   UNL     1       0.881   2.577  20.000  0.00  0.00    +0.000 A 
ATOM      9  N   UNL     1       1.309   2.713  21.272  0.00  0.00    +0.000 NA
ATOM     10  C   UNL     1       2.120   3.765  21.529  0.00  0.00    +0.000 A 
ATOM     11  C   UNL     1       2.522   4.682  20.571  0.00  0.00    +0.000 A 
ENDBRANCH   5   6
ENDBRANCH   3   5
ENDBRANCH   2   3
BRANCH   2  12
ATOM     12  C   UNL     1       5.917   6.254  17.724  0.00  0.00    +0.000 C 
BRANCH  12  13
ATOM     13  C   UNL     1       6.833   5.070  17.384  0.00  0.00    +0.000 C 
BRANCH  13  14
ATOM     14  C   UNL     1       6.706   4.703  15.937  0.00  0.00    +0.000 A 
ATOM     15  C   UNL     1       6.009   3.726  15.255  0.00  0.00    +0.000 A 
ATOM     16  C   UNL     1       6.338   3.879  13.885  0.00  0.00    +0.000 A 
ATOM     17  C   UNL     1       7.203   4.945  13.815  0.00  0.00    +0.000 A 
ATOM     18  O   UNL     1       7.423   5.461  15.051  0.00  0.00    +0.000 OA
ENDBRANCH  13  14
BRANCH  13  19
ATOM     19  O   UNL     1       6.455   3.917  18.136  0.00  0.00    +0.000 OA
ATOM     20  H   UNL     1       5.707   4.192  18.695  0.00  0.00    +0.000 HD
ENDBRANCH  13  19
ENDBRANCH  12  13
ENDBRANCH   2  12
TORSDOF 7
ENDMDL
MODEL 4
REMARK VINA RESULT:      -6.4      2.917      6.456
REMARK  Name = 
REMARK  8 active torsions:
REMARK  status: ('A' for Active; 'I' for Inactive)
REMARK    1  A    between atoms: C_1  and  C_2
REMARK    2  A    between atoms: C_2  and  C_3
REMARK    3  A    between atoms: C_2  and  N_11
REMARK    4  A    between atoms: C_3  and  C_4
REMARK    5  A    between atoms: C_4  and  O_5
REMARK    6  A    between atoms: C_4  and  C_6
REMARK    7  A    between atoms: N_11  and  C_12
REMARK    8  A    between atoms: C_12  and  C_13
REMARK                            x       y       z     vdW  Elec       q    Type
REMARK                         _______ _______ _______ _____ _____    ______ ____
ROOT
ATOM      1  C   UNL     1       7.731   6.470  18.473  0.00  0.00    +0.000 C 
ATOM      2  C   UNL     1       6.650   5.587  17.832  0.00  0.00    +0.000 C 
ENDROOT
BRANCH   2   3
ATOM      3  N   UNL     1       6.258   4.482  18.718  0.00  0.00    +0.000 NA
ATOM      4  H   UNL     1       7.014   4.258  19.363  0.00  0.00    +0.000 HD
BRANCH   3   5
ATOM      5  C   UNL     1       5.045   4.768  19.488  0.00  0.00    +0.000 C 
BRANCH   5   6
ATOM      6  C   UNL     1       3.825   4.260  18.771  0.00  0.00    +0.000 A 
ATOM      7  C   UNL     1       2.726   5.098  18.535  0.00  0.00    +0.000 A 
ATOM      8  C   UNL     1       1.627   4.582  17.867  0.00  0.00    +0.000 A 
ATOM      9  N   UNL     1       1.546   3.309  17.425  0.00  0.00    +0.000 NA
ATOM     10  C   UNL     1       2.614   2.515  17.664  0.00  0.00    +0.000 A 
ATOM     11  C   UNL     1       3.759   2.939  18.321  0.00  0.00    +0.000 A 
ENDBRANCH   5   6
ENDBRANCH   3   5
ENDBRANCH   2   3
BRANCH   2  12
ATOM     12  C   UNL     1       7.215   5.027  16.509  0.00  0.00    +0.000 C 
BRANCH  12  13
ATOM     13  C   UNL     1       6.200   4.288  15.627  0.00  0.00    +0.000 C 
BRANCH  13  14
ATOM     14  C   UNL     1       6.613   4.344  14.188  0.00  0.00    +0.000 A 
ATOM     15  C   UNL     1       6.339   3.564  13.083  0.00  0.00    +0.000 A 
ATOM     16  C   UNL     1       7.071   4.121  12.005  0.00  0.00    +0.000 A 
ATOM     17  C   UNL     1       7.735   5.211  12.515  0.00  0.00    +0.000 A 
ATOM     18  O   UNL     1       7.455   5.364  13.834  0.00  0.00    +0.000 OA
ENDBRANCH  13  14
BRANCH  13  19
ATOM     19  O   UNL     1       4.919   4.913  15.712  0.00  0.00    +0.000 OA
ATOM     20  H   UNL     1       4.796   5.150  16.649  0.00  0.00    +0.000 HD
ENDBRANCH  13  19
ENDBRANCH  12  13
ENDBRANCH   2  12
TORSDOF 7
ENDMDL
MODEL 5
REMARK VINA RESULT:      -6.3      2.741      6.528
REMARK  Name = 
REMARK  8 active torsions:
REMARK  status: ('A' for Active; 'I' for Inactive)
REMARK    1  A    between atoms: C_1  and  C_2
REMARK    2  A    between atoms: C_2  and  C_3
REMARK    3  A    between atoms: C_2  and  N_11
REMARK    4  A    between atoms: C_3  and  C_4
REMARK    5  A    between atoms: C_4  and  O_5
REMARK    6  A    between atoms: C_4  and  C_6
REMARK    7  A    between atoms: N_11  and  C_12
REMARK    8  A    between atoms: C_12  and  C_13
REMARK                            x       y       z     vdW  Elec       q    Type
REMARK                         _______ _______ _______ _____ _____    ______ ____
ROOT
ATOM      1  C   UNL     1       7.223   6.485  17.752  0.00  0.00    +0.000 C 
ATOM      2  C   UNL     1       5.762   6.576  17.285  0.00  0.00    +0.000 C 
ENDROOT
BRANCH   2   3
ATOM      3  N   UNL     1       4.853   5.890  18.214  0.00  0.00    +0.000 NA
ATOM      4  H   UNL     1       4.934   6.287  19.149  0.00  0.00    +0.000 HD
BRANCH   3   5
ATOM      5  C   UNL     1       3.451   5.948  17.793  0.00  0.00    +0.000 C 
BRANCH   5   6
ATOM      6  C   UNL     1       2.708   4.719  18.240  0.00  0.00    +0.000 A 
ATOM      7  C   UNL     1       2.807   3.517  17.525  0.00  0.00    +0.000 A 
ATOM      8  C   UNL     1       2.104   2.413  17.981  0.00  0.00    +0.000 A 
ATOM      9  N   UNL     1       1.321   2.422  19.081  0.00  0.00    +0.000 NA
ATOM     10  C   UNL     1       1.237   3.591  19.755  0.00  0.00    +0.000 A 
ATOM     11  C   UNL     1       1.901   4.748  19.380  0.00  0.00    +0.000 A 
ENDBRANCH   5   6
ENDBRANCH   3   5
ENDBRANCH   2   3
BRANCH   2  12
ATOM     12  C   UNL     1       5.668   5.933  15.885  0.00  0.00    +0.000 C 
BRANCH  12  13
ATOM     13  C   UNL     1       6.616   4.751  15.644  0.00  0.00    +0.000 C 
BRANCH  13  14
ATOM     14  C   UNL     1       6.754   4.476  14.178  0.00  0.00    +0.000 A 
ATOM     15  C   UNL     1       7.553   4.992  13.178  0.00  0.00    +0.000 A 
ATOM     16  C   UNL     1       7.175   4.336  11.981  0.00  0.00    +0.000 A 
ATOM     17  C   UNL     1       6.179   3.453  12.325  0.00  0.00    +0.000 A 
ATOM     18  O   UNL     1       5.924   3.520  13.657  0.00  0.00    +0.000 OA
ENDBRANCH  13  14
BRANCH  13  19
ATOM     19  O   UNL     1       6.092   3.564  16.239  0.00  0.00    +0.000 OA
ATOM     20  H   UNL     1       6.823   3.173  16.750  0.00  0.00    +0.000 HD
ENDBRANCH  13  19
ENDBRANCH  12  13
ENDBRANCH   2  12
TORSDOF 7
ENDMDL
MODEL 6
REMARK VINA RESULT:      -6.2      2.323      5.925
REMARK  Name = 
REMARK  8 active torsions:
REMARK  status: ('A' for Active; 'I' for Inactive)
REMARK    1  A    between atoms: C_1  and  C_2
REMARK    2  A    between atoms: C_2  and  C_3
REMARK    3  A    between atoms: C_2  and  N_11
REMARK    4  A    between atoms: C_3  and  C_4
REMARK    5  A    between atoms: C_4  and  O_5
REMARK    6  A    between atoms: C_4  and  C_6
REMARK    7  A    between atoms: N_11  and  C_12
REMARK    8  A    between atoms: C_12  and  C_13
REMARK                            x       y       z     vdW  Elec       q    Type
REMARK                         _______ _______ _______ _____ _____    ______ ____
ROOT
ATOM      1  C   UNL     1       3.452   7.452  17.740  0.00  0.00    +0.000 C 
ATOM      2  C   UNL     1       4.190   6.158  17.364  0.00  0.00    +0.000 C 
ENDROOT
BRANCH   2   3
ATOM      3  N   UNL     1       3.286   4.999  17.369  0.00  0.00    +0.000 NA
ATOM      4  H   UNL     1       3.744   4.192  17.790  0.00  0.00    +0.000 HD
BRANCH   3   5
ATOM      5  C   UNL     1       2.030   5.255  18.077  0.00  0.00    +0.000 C 
BRANCH   5   6
ATOM      6  C   UNL     1       1.895   4.350  19.271  0.00  0.00    +0.000 A 
ATOM      7  C   UNL     1       1.329   3.074  19.149  0.00  0.00    +0.000 A 
ATOM      8  C   UNL     1       1.231   2.279  20.280  0.00  0.00    +0.000 A 
ATOM      9  N   UNL     1       1.650   2.660  21.505  0.00  0.00    +0.000 NA
ATOM     10  C   UNL     1       2.191   3.895  21.603  0.00  0.00    +0.000 A 
ATOM     11  C   UNL     1       2.333   4.762  20.532  0.00  0.00    +0.000 A 
ENDBRANCH   5   6
ENDBRANCH   3   5
ENDBRANCH   2   3
BRANCH   2  12
ATOM     12  C   UNL     1       5.328   5.944  18.384  0.00  0.00    +0.000 C 
BRANCH  12  13
ATOM     13  C   UNL     1       6.264   4.767  18.081  0.00  0.00    +0.000 C 
BRANCH  13  14
ATOM     14  C   UNL     1       6.475   4.626  16.606  0.00  0.00    +0.000 A 
ATOM     15  C   UNL     1       7.266   5.283  15.684  0.00  0.00    +0.000 A 
ATOM     16  C   UNL     1       6.982   4.702  14.423  0.00  0.00    +0.000 A 
ATOM     17  C   UNL     1       6.047   3.721  14.654  0.00  0.00    +0.000 A 
ATOM     18  O   UNL     1       5.741   3.657  15.975  0.00  0.00    +0.000 OA
ENDBRANCH  13  14
BRANCH  13  19
ATOM     19  O   UNL     1       5.687   3.542  18.534  0.00  0.00    +0.000 OA
ATOM     20  H   UNL     1       5.427   3.053  17.732  0.00  0.00    +0.000 HD
ENDBRANCH  13  19
ENDBRANCH  12  13
ENDBRANCH   2  12
TORSDOF 7
ENDMDL
MODEL 7
REMARK VINA RESULT:      -6.1      2.686      4.027
REMARK  Name = 
REMARK  8 active torsions:
REMARK  status: ('A' for Active; 'I' for Inactive)
REMARK    1  A    between atoms: C_1  and  C_2
REMARK    2  A    between atoms: C_2  and  C_3
REMARK    3  A    between atoms: C_2  and  N_11
REMARK    4  A    between atoms: C_3  and  C_4
REMARK    5  A    between atoms: C_4  and  O_5
REMARK    6  A    between atoms: C_4  and  C_6
REMARK    7  A    between atoms: N_11  and  C_12
REMARK    8  A    between atoms: C_12  and  C_13
REMARK                            x       y       z     vdW  Elec       q    Type
REMARK                         _______ _______ _______ _____ _____    ______ ____
ROOT
ATOM      1  C   UNL     1       5.727   4.491  16.582  0.00  0.00    +0.000 C 
ATOM      2  C   UNL     1       4.432   4.373  17.400  0.00  0.00    +0.000 C 
ENDROOT
BRANCH   2   3
ATOM      3  N   UNL     1       3.737   5.664  17.503  0.00  0.00    +0.000 NA
ATOM      4  H   UNL     1       2.885   5.656  16.944  0.00  0.00    +0.000 HD
BRANCH   3   5
ATOM      5  C   UNL     1       3.398   6.025  18.881  0.00  0.00    +0.000 C 
BRANCH   5   6
ATOM      6  C   UNL     1       2.611   7.306  18.920  0.00  0.00    +0.000 A 
ATOM      7  C   UNL     1       1.916   7.690  20.075  0.00  0.00    +0.000 A 
ATOM      8  C   UNL     1       1.209   8.882  20.059  0.00  0.00    +0.000 A 
ATOM      9  N   UNL     1       1.145   9.705  18.991  0.00  0.00    +0.000 NA
ATOM     10  C   UNL     1       1.820   9.316  17.886  0.00  0.00    +0.000 A 
ATOM     11  C   UNL     1       2.556   8.144  17.804  0.00  0.00    +0.000 A 
ENDBRANCH   5   6
ENDBRANCH   3   5
ENDBRANCH   2   3
BRANCH   2  12
ATOM     12  C   UNL     1       4.801   3.860  18.808  0.00  0.00    +0.000 C 
BRANCH  12  13
ATOM     13  C   UNL     1       4.205   2.497  19.184  0.00  0.00    +0.000 C 
BRANCH  13  14
ATOM     14  C   UNL     1       2.913   2.671  19.919  0.00  0.00    +0.000 A 
ATOM     15  C   UNL     1       1.611   2.907  19.524  0.00  0.00    +0.000 A 
ATOM     16  C   UNL     1       0.843   3.012  20.710  0.00  0.00    +0.000 A 
ATOM     17  C   UNL     1       1.719   2.821  21.752  0.00  0.00    +0.000 A 
ATOM     18  O   UNL     1       2.974   2.601  21.285  0.00  0.00    +0.000 OA
ENDBRANCH  13  14
BRANCH  13  19
ATOM     19  O   UNL     1       5.086   1.794  20.060  0.00  0.00    +0.000 OA
ATOM     20  H   UNL     1       4.702   1.874  20.951  0.00  0.00    +0.000 HD
ENDBRANCH  13  19
ENDBRANCH  12  13
ENDBRANCH   2  12
TORSDOF 7
ENDMDL
MODEL 8
REMARK VINA RESULT:      -6.1      2.919      6.454
REMARK  Name = 
REMARK  8 active torsions:
REMARK  status: ('A' for Active; 'I' for Inactive)
REMARK    1  A    between atoms: C_1  and  C_2
REMARK    2  A    between atoms: C_2  and  C_3
REMARK    3  A    between atoms: C_2  and  N_11
REMARK    4  A    between atoms: C_3  and  C_4
REMARK    5  A    between atoms: C_4  and  O_5
REMARK    6  A    between atoms: C_4  and  C_6
REMARK    7  A    between atoms: N_11  and  C_12
REMARK    8  A    between atoms: C_12  and  C_13
REMARK                            x       y       z     vdW  Elec       q    Type
REMARK                         _______ _______ _______ _____ _____    ______ ____
ROOT
ATOM      1  C   UNL     1       6.850   5.333  18.397  0.00  0.00    +0.000 C 
ATOM      2  C   UNL     1       5.700   6.116  17.747  0.00  0.00    +0.000 C 
ENDROOT
BRANCH   2   3
ATOM      3  N   UNL     1       4.476   6.052  18.557  0.00  0.00    +0.000 NA
ATOM      4  H   UNL     1       4.236   6.975  18.915  0.00  0.00    +0.000 HD
BRANCH   3   5
ATOM      5  C   UNL     1       3.328   5.516  17.821  0.00  0.00    +0.000 C 
BRANCH   5   6
ATOM      6  C   UNL     1       2.672   4.403  18.592  0.00  0.00    +0.000 A 
ATOM      7  C   UNL     1       3.104   4.067  19.882  0.00  0.00    +0.000 A 
ATOM      8  C   UNL     1       2.462   3.035  20.550  0.00  0.00    +0.000 A 
ATOM      9  N   UNL     1       1.438   2.326  20.031  0.00  0.00    +0.000 NA
ATOM     10  C   UNL     1       1.037   2.664  18.785  0.00  0.00    +0.000 A 
ATOM     11  C   UNL     1       1.613   3.679  18.038  0.00  0.00    +0.000 A 
ENDBRANCH   5   6
ENDBRANCH   3   5
ENDBRANCH   2   3
BRANCH   2  12
ATOM     12  C   UNL     1       5.440   5.510  16.351  0.00  0.00    +0.000 C 
BRANCH  12  13
ATOM     13  C   UNL     1       6.389   4.375  15.945  0.00  0.00    +0.000 C 
BRANCH  13  14
ATOM     14  C   UNL     1       6.721   4.459  14.487  0.00  0.00    +0.000 A 
ATOM     15  C   UNL     1       6.246   3.821  13.359  0.00  0.00    +0.000 A 
ATOM     16  C   UNL     1       7.003   4.316  12.268  0.00  0.00    +0.000 A 
ATOM     17  C   UNL     1       7.882   5.232  12.795  0.00  0.00    +0.000 A 
ATOM     18  O   UNL     1       7.711   5.337  14.137  0.00  0.00    +0.000 OA
ENDBRANCH  13  14
BRANCH  13  19
ATOM     19  O   UNL     1       5.766   3.107  16.153  0.00  0.00    +0.000 OA
ATOM     20  H   UNL     1       5.597   2.740  15.267  0.00  0.00    +0.000 HD
ENDBRANCH  13  19
ENDBRANCH  12  13
ENDBRANCH   2  12
TORSDOF 7
ENDMDL
MODEL 9
REMARK VINA RESULT:      -6.1      3.006      6.672
REMARK  Name = 
REMARK  8 active torsions:
REMARK  status: ('A' for Active; 'I' for Inactive)
REMARK    1  A    between atoms: C_1  and  C_2
REMARK    2  A    between atoms: C_2  and  C_3
REMARK    3  A    between atoms: C_2  and  N_11
REMARK    4  A    between atoms: C_3  and  C_4
REMARK    5  A    between atoms: C_4  and  O_5
REMARK    6  A    between atoms: C_4  and  C_6
REMARK    7  A    between atoms: N_11  and  C_12
REMARK    8  A    between atoms: C_12  and  C_13
REMARK                            x       y       z     vdW  Elec       q    Type
REMARK                         _______ _______ _______ _____ _____    ______ ____
ROOT
ATOM      1  C   UNL     1       6.032   7.202  17.158  0.00  0.00    +0.000 C 
ATOM      2  C   UNL     1       4.945   6.118  17.114  0.00  0.00    +0.000 C 
ENDROOT
BRANCH   2   3
ATOM      3  N   UNL     1       4.606   5.637  18.461  0.00  0.00    +0.000 NA
ATOM      4  H   UNL     1       5.308   5.940  19.134  0.00  0.00    +0.000 HD
BRANCH   3   5
ATOM      5  C   UNL     1       3.288   6.086  18.915  0.00  0.00    +0.000 C 
BRANCH   5   6
ATOM      6  C   UNL     1       2.396   4.912  19.213  0.00  0.00    +0.000 A 
ATOM      7  C   UNL     1       1.978   4.638  20.523  0.00  0.00    +0.000 A 
ATOM      8  C   UNL     1       1.154   3.546  20.743  0.00  0.00    +0.000 A 
ATOM      9  N   UNL     1       0.725   2.719  19.766  0.00  0.00    +0.000 NA
ATOM     10  C   UNL     1       1.140   2.998  18.510  0.00  0.00    +0.000 A 
ATOM     11  C   UNL     1       1.962   4.067  18.189  0.00  0.00    +0.000 A 
ENDBRANCH   5   6
ENDBRANCH   3   5
ENDBRANCH   2   3
BRANCH   2  12
ATOM     12  C   UNL     1       5.472   4.949  16.255  0.00  0.00    +0.000 C 
BRANCH  12  13
ATOM     13  C   UNL     1       6.848   5.177  15.616  0.00  0.00    +0.000 C 
BRANCH  13  14
ATOM     14  C   UNL     1       6.863   4.679  14.203  0.00  0.00    +0.000 A 
ATOM     15  C   UNL     1       7.602   5.001  13.082  0.00  0.00    +0.000 A 
ATOM     16  C   UNL     1       7.109   4.193  12.029  0.00  0.00    +0.000 A 
ATOM     17  C   UNL     1       6.110   3.420  12.573  0.00  0.00    +0.000 A 
ATOM     18  O   UNL     1       5.961   3.697  13.893  0.00  0.00    +0.000 OA
ENDBRANCH  13  14
BRANCH  13  19
ATOM     19  O   UNL     1       7.851   4.446  16.321  0.00  0.00    +0.000 OA
ATOM     20  H   UNL     1       8.172   3.763  15.704  0.00  0.00    +0.000 HD
ENDBRANCH  13  19
ENDBRANCH  12  13
ENDBRANCH   2  12
TORSDOF 7
ENDMDL
