MODEL 1
REMARK VINA RESULT:      -8.6      0.000      0.000
REMARK  Name = 
REMARK  4 active torsions:
REMARK  status: ('A' for Active; 'I' for Inactive)
REMARK    1  A    between atoms: C_4  and  O_5
REMARK    2  A    between atoms: O_5  and  C_6
REMARK    3  A    between atoms: C_9  and  N_10
REMARK    4  A    between atoms: N_10  and  C_11
REMARK                            x       y       z     vdW  Elec       q    Type
REMARK                         _______ _______ _______ _____ _____    ______ ____
ROOT
ATOM      1  C   UNL     1       1.045   9.876  18.995  0.00  0.00    +0.000 A 
ATOM      2  C   UNL     1       1.016   9.095  20.155  0.00  0.00    +0.000 A 
ATOM      3  C   UNL     1       1.709   7.866  20.237  0.00  0.00    +0.000 A 
ATOM      4  C   UNL     1       2.408   7.383  19.132  0.00  0.00    +0.000 A 
ATOM      5  C   UNL     1       2.443   8.200  17.975  0.00  0.00    +0.000 A 
ATOM      6  C   UNL     1       1.762   9.421  17.891  0.00  0.00    +0.000 A 
ENDROOT
BRANCH   4   7
ATOM      7  N   UNL     1       2.870   6.043  18.945  0.00  0.00    +0.000 N 
ATOM      8  H   UNL     1       3.788   6.177  19.402  0.00  0.00    +0.000 HD
BRANCH   7   9
ATOM      9  C   UNL     1       3.319   5.177  17.762  0.00  0.00    +0.000 A 
ATOM     10  C   UNL     1       2.970   3.868  18.093  0.00  0.00    +0.000 A 
ATOM     11  C   UNL     1       3.830   3.282  19.003  0.00  0.00    +0.000 A 
ATOM     12  N   UNL     1       5.088   3.756  19.188  0.00  0.00    +0.000 NA
ATOM     13  C   UNL     1       5.548   4.574  18.217  0.00  0.00    +0.000 A 
ATOM     14  C   UNL     1       6.891   4.544  17.874  0.00  0.00    +0.000 A 
ATOM     15  C   UNL     1       7.305   4.864  16.574  0.00  0.00    +0.000 A 
ATOM     16  C   UNL     1       6.358   5.226  15.620  0.00  0.00    +0.000 A 
ATOM     17  C   UNL     1       5.034   5.432  16.015  0.00  0.00    +0.000 A 
ATOM     18  C   UNL     1       4.648   5.207  17.355  0.00  0.00    +0.000 A 
ENDBRANCH   7   9
ENDBRANCH   4   7
BRANCH   1  19
ATOM     19  O   UNL     1       0.278  11.016  18.786  0.00  0.00    +0.000 OA
BRANCH  19  23
ATOM     20  C   UNL     1      -3.671  10.562  17.572  0.00  0.00    +0.000 A 
ATOM     21  C   UNL     1      -3.365  11.525  18.534  0.00  0.00    +0.000 A 
ATOM     22  C   UNL     1      -2.047  11.700  18.947  0.00  0.00    +0.000 A 
ATOM     23  C   UNL     1      -1.043  10.883  18.437  0.00  0.00    +0.000 A 
ATOM     24  C   UNL     1      -1.341   9.945  17.436  0.00  0.00    +0.000 A 
ATOM     25  C   UNL     1      -2.659   9.786  17.012  0.00  0.00    +0.000 A 
ENDBRANCH  19  23
ENDBRANCH   1  19
TORSDOF 4
ENDMDL
MODEL 2
REMARK VINA RESULT:      -8.4      1.622      3.357
REMARK  Name = 
REMARK  4 active torsions:
REMARK  status: ('A' for Active; 'I' for Inactive)
REMARK    1  A    between atoms: C_4  and  O_5
REMARK    2  A    between atoms: O_5  and  C_6
REMARK    3  A    between atoms: C_9  and  N_10
REMARK    4  A    between atoms: N_10  and  C_11
REMARK                            x       y       z     vdW  Elec       q    Type
REMARK                         _______ _______ _______ _____ _____    ______ ____
ROOT
ATOM      1  C   UNL     1       1.050   9.942  18.987  0.00  0.00    +0.000 A 
ATOM      2  C   UNL     1       1.082   8.937  19.958  0.00  0.00    +0.000 A 
ATOM      3  C   UNL     1       1.851   7.763  19.783  0.00  0.00    +0.000 A 
ATOM      4  C   UNL     1       2.566   7.566  18.602  0.00  0.00    +0.000 A 
ATOM      5  C   UNL     1       2.538   8.606  17.642  0.00  0.00    +0.000 A 
ATOM      6  C   UNL     1       1.782   9.773  17.813  0.00  0.00    +0.000 A 
ENDROOT
BRANCH   4   7
ATOM      7  N   UNL     1       3.108   6.327  18.141  0.00  0.00    +0.000 N 
ATOM      8  H   UNL     1       2.243   5.990  17.684  0.00  0.00    +0.000 HD
BRANCH   7   9
ATOM      9  C   UNL     1       3.566   5.009  18.778  0.00  0.00    +0.000 A 
ATOM     10  C   UNL     1       3.901   4.168  17.717  0.00  0.00    +0.000 A 
ATOM     11  C   UNL     1       2.803   3.618  17.082  0.00  0.00    +0.000 A 
ATOM     12  N   UNL     1       1.597   3.546  17.700  0.00  0.00    +0.000 NA
ATOM     13  C   UNL     1       1.621   3.711  19.040  0.00  0.00    +0.000 A 
ATOM     14  C   UNL     1       0.735   2.999  19.834  0.00  0.00    +0.000 A 
ATOM     15  C   UNL     1       1.072   2.655  21.150  0.00  0.00    +0.000 A 
ATOM     16  C   UNL     1       2.305   3.038  21.668  0.00  0.00    +0.000 A 
ATOM     17  C   UNL     1       3.116   3.907  20.932  0.00  0.00    +0.000 A 
ATOM     18  C   UNL     1       2.717   4.334  19.646  0.00  0.00    +0.000 A 
ENDBRANCH   7   9
ENDBRANCH   4   7
BRANCH   1  19
ATOM     19  O   UNL     1       0.211  11.050  19.018  0.00  0.00    +0.000 OA
BRANCH  19  23
ATOM     20  C   UNL     1      -3.727  10.758  17.723  0.00  0.00    +0.000 A 
ATOM     21  C   UNL     1      -2.768   9.909  17.170  0.00  0.00    +0.000 A 
ATOM     22  C   UNL     1      -1.445   9.984  17.598  0.00  0.00    +0.000 A 
ATOM     23  C   UNL     1      -1.071  10.937  18.539  0.00  0.00    +0.000 A 
ATOM     24  C   UNL     1      -2.041  11.761  19.130  0.00  0.00    +0.000 A 
ATOM     25  C   UNL     1      -3.368  11.670  18.713  0.00  0.00    +0.000 A 
ENDBRANCH  19  23
ENDBRANCH   1  19
TORSDOF 4
ENDMDL
MODEL 3
REMARK VINA RESULT:      -8.4      1.392      3.387
REMARK  Name = 
REMARK  4 active torsions:
REMARK  status: ('A' for Active; 'I' for Inactive)
REMARK    1  A    between atoms: C_4  and  O_5
REMARK    2  A    between atoms: O_5  and  C_6
REMARK    3  A    between atoms: C_9  and  N_10
REMARK    4  A    between atoms: N_10  and  C_11
REMARK                            x       y       z     vdW  Elec       q    Type
REMARK                         _______ _______ _______ _____ _____    ______ ____
ROOT
ATOM      1  C   UNL     1       0.893   9.720  18.793  0.00  0.00    +0.000 A 
ATOM      2  C   UNL     1       1.712   9.308  17.738  0.00  0.00    +0.000 A 
ATOM      3  C   UNL     1       2.579   8.198  17.864  0.00  0.00    +0.000 A 
ATOM      4  C   UNL     1       2.664   7.512  19.076  0.00  0.00    +0.000 A 
ATOM      5  C   UNL     1       1.809   7.932  20.124  0.00  0.00    +0.000 A 
ATOM      6  C   UNL     1       0.946   9.028  20.001  0.00  0.00    +0.000 A 
ENDROOT
BRANCH   4   7
ATOM      7  N   UNL     1       3.700   6.607  19.461  0.00  0.00    +0.000 N 
ATOM      8  H   UNL     1       4.148   6.546  18.531  0.00  0.00    +0.000 HD
BRANCH   7   9
ATOM      9  C   UNL     1       3.793   5.129  19.863  0.00  0.00    +0.000 A 
ATOM     10  C   UNL     1       4.819   4.587  19.090  0.00  0.00    +0.000 A 
ATOM     11  C   UNL     1       4.447   4.331  17.783  0.00  0.00    +0.000 A 
ATOM     12  N   UNL     1       3.141   4.198  17.436  0.00  0.00    +0.000 NA
ATOM     13  C   UNL     1       2.288   3.986  18.461  0.00  0.00    +0.000 A 
ATOM     14  C   UNL     1       1.186   3.165  18.277  0.00  0.00    +0.000 A 
ATOM     15  C   UNL     1       0.644   2.444  19.349  0.00  0.00    +0.000 A 
ATOM     16  C   UNL     1       1.213   2.560  20.615  0.00  0.00    +0.000 A 
ATOM     17  C   UNL     1       2.202   3.522  20.834  0.00  0.00    +0.000 A 
ATOM     18  C   UNL     1       2.668   4.320  19.765  0.00  0.00    +0.000 A 
ENDBRANCH   7   9
ENDBRANCH   4   7
BRANCH   1  19
ATOM     19  O   UNL     1       0.128  10.880  18.798  0.00  0.00    +0.000 OA
BRANCH  19  23
ATOM     20  C   UNL     1      -3.853  10.786  17.607  0.00  0.00    +0.000 A 
ATOM     21  C   UNL     1      -2.951   9.897  17.023  0.00  0.00    +0.000 A 
ATOM     22  C   UNL     1      -1.614   9.906  17.415  0.00  0.00    +0.000 A 
ATOM     23  C   UNL     1      -1.170  10.832  18.353  0.00  0.00    +0.000 A 
ATOM     24  C   UNL     1      -2.084  11.696  18.976  0.00  0.00    +0.000 A 
ATOM     25  C   UNL     1      -3.424  11.671  18.593  0.00  0.00    +0.000 A 
ENDBRANCH  19  23
ENDBRANCH   1  19
TORSDOF 4
ENDMDL
MODEL 4
REMARK VINA RESULT:      -8.4      0.726      1.280
REMARK  Name = 
REMARK  4 active torsions:
REMARK  status: ('A' for Active; 'I' for Inactive)
REMARK    1  A    between atoms: C_4  and  O_5
REMARK    2  A    between atoms: O_5  and  C_6
REMARK    3  A    between atoms: C_9  and  N_10
REMARK    4  A    between atoms: N_10  and  C_11
REMARK                            x       y       z     vdW  Elec       q    Type
REMARK                         _______ _______ _______ _____ _____    ______ ____
ROOT
ATOM      1  C   UNL     1       1.674   9.257  18.900  0.00  0.00    +0.000 A 
ATOM      2  C   UNL     1       1.495   8.518  20.074  0.00  0.00    +0.000 A 
ATOM      3  C   UNL     1       1.912   7.171  20.172  0.00  0.00    +0.000 A 
ATOM      4  C   UNL     1       2.477   6.532  19.068  0.00  0.00    +0.000 A 
ATOM      5  C   UNL     1       2.670   7.304  17.897  0.00  0.00    +0.000 A 
ATOM      6  C   UNL     1       2.263   8.641  17.798  0.00  0.00    +0.000 A 
ENDROOT
BRANCH   4   7
ATOM      7  N   UNL     1       2.640   5.122  18.902  0.00  0.00    +0.000 N 
ATOM      8  H   UNL     1       3.275   4.987  19.707  0.00  0.00    +0.000 HD
BRANCH   7   9
ATOM      9  C   UNL     1       3.333   4.194  17.897  0.00  0.00    +0.000 A 
ATOM     10  C   UNL     1       3.392   2.943  18.509  0.00  0.00    +0.000 A 
ATOM     11  C   UNL     1       4.386   2.845  19.466  0.00  0.00    +0.000 A 
ATOM     12  N   UNL     1       5.443   3.697  19.472  0.00  0.00    +0.000 NA
ATOM     13  C   UNL     1       5.638   4.387  18.328  0.00  0.00    +0.000 A 
ATOM     14  C   UNL     1       6.930   4.680  17.917  0.00  0.00    +0.000 A 
ATOM     15  C   UNL     1       7.232   4.822  16.556  0.00  0.00    +0.000 A 
ATOM     16  C   UNL     1       6.223   4.676  15.607  0.00  0.00    +0.000 A 
ATOM     17  C   UNL     1       4.897   4.563  16.032  0.00  0.00    +0.000 A 
ATOM     18  C   UNL     1       4.592   4.527  17.411  0.00  0.00    +0.000 A 
ENDBRANCH   7   9
ENDBRANCH   4   7
BRANCH   1  19
ATOM     19  O   UNL     1       1.165  10.530  18.677  0.00  0.00    +0.000 OA
BRANCH  19  23
ATOM     20  C   UNL     1      -2.938  11.067  18.290  0.00  0.00    +0.000 A 
ATOM     21  C   UNL     1      -2.304  10.104  17.505  0.00  0.00    +0.000 A 
ATOM     22  C   UNL     1      -0.932   9.901  17.627  0.00  0.00    +0.000 A 
ATOM     23  C   UNL     1      -0.186  10.692  18.495  0.00  0.00    +0.000 A 
ATOM     24  C   UNL     1      -0.827  11.630  19.318  0.00  0.00    +0.000 A 
ATOM     25  C   UNL     1      -2.204  11.816  19.206  0.00  0.00    +0.000 A 
ENDBRANCH  19  23
ENDBRANCH   1  19
TORSDOF 4
ENDMDL
MODEL 5
REMARK VINA RESULT:      -8.4      3.370      8.549
REMARK  Name = 
REMARK  4 active torsions:
REMARK  status: ('A' for Active; 'I' for Inactive)
REMARK    1  A    between atoms: C_4  and  O_5
REMARK    2  A    between atoms: O_5  and  C_6
REMARK    3  A    between atoms: C_9  and  N_10
REMARK    4  A    between atoms: N_10  and  C_11
REMARK                            x       y       z     vdW  Elec       q    Type
REMARK                         _______ _______ _______ _____ _____    ______ ____
ROOT
ATOM      1  C   UNL     1       2.427   7.302  19.511  0.00  0.00    +0.000 A 
ATOM      2  C   UNL     1       2.301   7.969  18.288  0.00  0.00    +0.000 A 
ATOM      3  C   UNL     1       1.509   9.133  18.157  0.00  0.00    +0.000 A 
ATOM      4  C   UNL     1       0.793   9.617  19.251  0.00  0.00    +0.000 A 
ATOM      5  C   UNL     1       0.951   8.941  20.485  0.00  0.00    +0.000 A 
ATOM      6  C   UNL     1       1.740   7.791  20.620  0.00  0.00    +0.000 A 
ENDROOT
BRANCH   4   7
ATOM      7  N   UNL     1      -0.283  10.557  19.206  0.00  0.00    +0.000 N 
ATOM      8  H   UNL     1      -1.042   9.863  19.317  0.00  0.00    +0.000 HD
BRANCH   7   9
ATOM      9  C   UNL     1      -0.935  11.450  18.143  0.00  0.00    +0.000 A 
ATOM     10  C   UNL     1      -0.731  12.762  18.568  0.00  0.00    +0.000 A 
ATOM     11  C   UNL     1      -1.582  13.149  19.587  0.00  0.00    +0.000 A 
ATOM     12  N   UNL     1      -2.749  12.496  19.815  0.00  0.00    +0.000 NA
ATOM     13  C   UNL     1      -3.178  11.706  18.807  0.00  0.00    +0.000 A 
ATOM     14  C   UNL     1      -4.538  11.583  18.564  0.00  0.00    +0.000 A 
ATOM     15  C   UNL     1      -5.012  11.319  17.272  0.00  0.00    +0.000 A 
ATOM     16  C   UNL     1      -4.108  11.168  16.224  0.00  0.00    +0.000 A 
ATOM     17  C   UNL     1      -2.740  11.111  16.504  0.00  0.00    +0.000 A 
ATOM     18  C   UNL     1      -2.278  11.274  17.829  0.00  0.00    +0.000 A 
ENDBRANCH   7   9
ENDBRANCH   4   7
BRANCH   1  19
ATOM     19  O   UNL     1       3.063   6.080  19.688  0.00  0.00    +0.000 OA
BRANCH  19  23
ATOM     20  C   UNL     1       0.795   2.626  19.243  0.00  0.00    +0.000 A 
ATOM     21  C   UNL     1       1.028   3.123  20.526  0.00  0.00    +0.000 A 
ATOM     22  C   UNL     1       1.777   4.285  20.696  0.00  0.00    +0.000 A 
ATOM     23  C   UNL     1       2.333   4.922  19.592  0.00  0.00    +0.000 A 
ATOM     24  C   UNL     1       2.063   4.450  18.298  0.00  0.00    +0.000 A 
ATOM     25  C   UNL     1       1.298   3.297  18.131  0.00  0.00    +0.000 A 
ENDBRANCH  19  23
ENDBRANCH   1  19
TORSDOF 4
ENDMDL
MODEL 6
REMARK VINA RESULT:      -8.3      1.433      3.240
REMARK  Name = 
REMARK  4 active torsions:
REMARK  status: ('A' for Active; 'I' for Inactive)
REMARK    1  A    between atoms: C_4  and  O_5
REMARK    2  A    between atoms: O_5  and  C_6
REMARK    3  A    between atoms: C_9  and  N_10
REMARK    4  A    between atoms: N_10  and  C_11
REMARK                            x       y       z     vdW  Elec       q    Type
REMARK                         _______ _______ _______ _____ _____    ______ ____
ROOT
ATOM      1  C   UNL     1       0.810   9.823  18.852  0.00  0.00    +0.000 A 
ATOM      2  C   UNL     1       1.567   9.483  17.726  0.00  0.00    +0.000 A 
ATOM      3  C   UNL     1       2.434   8.366  17.727  0.00  0.00    +0.000 A 
ATOM      4  C   UNL     1       2.585   7.599  18.882  0.00  0.00    +0.000 A 
ATOM      5  C   UNL     1       1.793   7.947  20.003  0.00  0.00    +0.000 A 
ATOM      6  C   UNL     1       0.928   9.049  20.005  0.00  0.00    +0.000 A 
ENDROOT
BRANCH   4   7
ATOM      7  N   UNL     1       3.637   6.668  19.145  0.00  0.00    +0.000 N 
ATOM      8  H   UNL     1       3.824   6.429  18.156  0.00  0.00    +0.000 HD
BRANCH   7   9
ATOM      9  C   UNL     1       3.754   5.266  19.753  0.00  0.00    +0.000 A 
ATOM     10  C   UNL     1       4.816   4.650  19.092  0.00  0.00    +0.000 A 
ATOM     11  C   UNL     1       4.492   4.203  17.825  0.00  0.00    +0.000 A 
ATOM     12  N   UNL     1       3.202   3.985  17.464  0.00  0.00    +0.000 NA
ATOM     13  C   UNL     1       2.323   3.894  18.485  0.00  0.00    +0.000 A 
ATOM     14  C   UNL     1       1.247   3.023  18.388  0.00  0.00    +0.000 A 
ATOM     15  C   UNL     1       0.691   2.444  19.536  0.00  0.00    +0.000 A 
ATOM     16  C   UNL     1       1.216   2.753  20.787  0.00  0.00    +0.000 A 
ATOM     17  C   UNL     1       2.174   3.764  20.896  0.00  0.00    +0.000 A 
ATOM     18  C   UNL     1       2.653   4.418  19.739  0.00  0.00    +0.000 A 
ENDBRANCH   7   9
ENDBRANCH   4   7
BRANCH   1  19
ATOM     19  O   UNL     1       0.052  10.980  18.979  0.00  0.00    +0.000 OA
BRANCH  19  23
ATOM     20  C   UNL     1      -3.916  10.865  17.748  0.00  0.00    +0.000 A 
ATOM     21  C   UNL     1      -3.540  11.772  18.738  0.00  0.00    +0.000 A 
ATOM     22  C   UNL     1      -2.214  11.834  19.158  0.00  0.00    +0.000 A 
ATOM     23  C   UNL     1      -1.274  10.958  18.625  0.00  0.00    +0.000 A 
ATOM     24  C   UNL     1      -1.639  10.076  17.597  0.00  0.00    +0.000 A 
ATOM     25  C   UNL     1      -2.964  10.030  17.166  0.00  0.00    +0.000 A 
ENDBRANCH  19  23
ENDBRANCH   1  19
TORSDOF 4
ENDMDL
MODEL 7
REMARK VINA RESULT:      -8.2      3.408      8.798
REMARK  Name = 
REMARK  4 active torsions:
REMARK  status: ('A' for Active; 'I' for Inactive)
REMARK    1  A    between atoms: C_4  and  O_5
REMARK    2  A    between atoms: O_5  and  C_6
REMARK    3  A    between atoms: C_9  and  N_10
REMARK    4  A    between atoms: N_10  and  C_11
REMARK                            x       y       z     vdW  Elec       q    Type
REMARK                         _______ _______ _______ _____ _____    ______ ____
ROOT
ATOM      1  C   UNL     1       2.311   7.497  19.440  0.00  0.00    +0.000 A 
ATOM      2  C   UNL     1       2.132   8.200  18.245  0.00  0.00    +0.000 A 
ATOM      3  C   UNL     1       1.319   9.355  18.179  0.00  0.00    +0.000 A 
ATOM      4  C   UNL     1       0.636   9.794  19.314  0.00  0.00    +0.000 A 
ATOM      5  C   UNL     1       0.849   9.082  20.519  0.00  0.00    +0.000 A 
ATOM      6  C   UNL     1       1.658   7.940  20.589  0.00  0.00    +0.000 A 
ENDROOT
BRANCH   4   7
ATOM      7  N   UNL     1      -0.454  10.718  19.337  0.00  0.00    +0.000 N 
ATOM      8  H   UNL     1      -1.193  10.014  19.502  0.00  0.00    +0.000 HD
BRANCH   7   9
ATOM      9  C   UNL     1      -1.188  11.597  18.318  0.00  0.00    +0.000 A 
ATOM     10  C   UNL     1      -0.773  12.904  18.571  0.00  0.00    +0.000 A 
ATOM     11  C   UNL     1      -1.382  13.470  19.676  0.00  0.00    +0.000 A 
ATOM     12  N   UNL     1      -2.552  12.983  20.162  0.00  0.00    +0.000 NA
ATOM     13  C   UNL     1      -3.235  12.175  19.323  0.00  0.00    +0.000 A 
ATOM     14  C   UNL     1      -4.622  12.199  19.327  0.00  0.00    +0.000 A 
ATOM     15  C   UNL     1      -5.345  11.893  18.166  0.00  0.00    +0.000 A 
ATOM     16  C   UNL     1      -4.665  11.553  17.001  0.00  0.00    +0.000 A 
ATOM     17  C   UNL     1      -3.283  11.352  17.049  0.00  0.00    +0.000 A 
ATOM     18  C   UNL     1      -2.576  11.561  18.254  0.00  0.00    +0.000 A 
ENDBRANCH   7   9
ENDBRANCH   4   7
BRANCH   1  19
ATOM     19  O   UNL     1       2.971   6.280  19.555  0.00  0.00    +0.000 OA
BRANCH  19  23
ATOM     20  C   UNL     1       0.867   2.701  19.362  0.00  0.00    +0.000 A 
ATOM     21  C   UNL     1       1.296   3.298  18.177  0.00  0.00    +0.000 A 
ATOM     22  C   UNL     1       2.011   4.493  18.220  0.00  0.00    +0.000 A 
ATOM     23  C   UNL     1       2.255   5.114  19.441  0.00  0.00    +0.000 A 
ATOM     24  C   UNL     1       1.865   4.492  20.637  0.00  0.00    +0.000 A 
ATOM     25  C   UNL     1       1.166   3.287  20.590  0.00  0.00    +0.000 A 
ENDBRANCH  19  23
ENDBRANCH   1  19
TORSDOF 4
ENDMDL
MODEL 8
REMARK VINA RESULT:      -8.2      1.315      1.938
REMARK  Name = 
REMARK  4 active torsions:
REMARK  status: ('A' for Active; 'I' for Inactive)
REMARK    1  A    between atoms: C_4  and  O_5
REMARK    2  A    between atoms: O_5  and  C_6
REMARK    3  A    between atoms: C_9  and  N_10
REMARK    4  A    between atoms: N_10  and  C_11
REMARK                            x       y       z     vdW  Elec       q    Type
REMARK                         _______ _______ _______ _____ _____    ______ ____
ROOT
ATOM      1  C   UNL     1       1.775   8.252  20.027  0.00  0.00    +0.000 A 
ATOM      2  C   UNL     1       1.626   7.056  20.736  0.00  0.00    +0.000 A 
ATOM      3  C   UNL     1       1.903   5.804  20.141  0.00  0.00    +0.000 A 
ATOM      4  C   UNL     1       2.293   5.736  18.804  0.00  0.00    +0.000 A 
ATOM      5  C   UNL     1       2.460   6.960  18.111  0.00  0.00    +0.000 A 
ATOM      6  C   UNL     1       2.191   8.204  18.698  0.00  0.00    +0.000 A 
ENDROOT
BRANCH   4   7
ATOM      7  N   UNL     1       2.289   4.567  17.982  0.00  0.00    +0.000 N 
ATOM      8  H   UNL     1       2.033   3.904  18.733  0.00  0.00    +0.000 HD
BRANCH   7   9
ATOM      9  C   UNL     1       3.337   3.712  17.260  0.00  0.00    +0.000 A 
ATOM     10  C   UNL     1       3.394   2.507  17.958  0.00  0.00    +0.000 A 
ATOM     11  C   UNL     1       4.104   2.589  19.142  0.00  0.00    +0.000 A 
ATOM     12  N   UNL     1       5.002   3.585  19.356  0.00  0.00    +0.000 NA
ATOM     13  C   UNL     1       5.401   4.252  18.252  0.00  0.00    +0.000 A 
ATOM     14  C   UNL     1       6.706   4.714  18.166  0.00  0.00    +0.000 A 
ATOM     15  C   UNL     1       7.336   4.846  16.921  0.00  0.00    +0.000 A 
ATOM     16  C   UNL     1       6.642   4.521  15.759  0.00  0.00    +0.000 A 
ATOM     17  C   UNL     1       5.277   4.233  15.837  0.00  0.00    +0.000 A 
ATOM     18  C   UNL     1       4.626   4.205  17.090  0.00  0.00    +0.000 A 
ENDBRANCH   7   9
ENDBRANCH   4   7
BRANCH   1  19
ATOM     19  O   UNL     1       1.386   9.504  20.490  0.00  0.00    +0.000 OA
BRANCH  19  23
ATOM     20  C   UNL     1      -1.129  11.952  18.263  0.00  0.00    +0.000 A 
ATOM     21  C   UNL     1      -1.583  10.692  18.655  0.00  0.00    +0.000 A 
ATOM     22  C   UNL     1      -0.759   9.861  19.410  0.00  0.00    +0.000 A 
ATOM     23  C   UNL     1       0.532  10.265  19.732  0.00  0.00    +0.000 A 
ATOM     24  C   UNL     1       0.975  11.549  19.379  0.00  0.00    +0.000 A 
ATOM     25  C   UNL     1       0.140  12.386  18.639  0.00  0.00    +0.000 A 
ENDBRANCH  19  23
ENDBRANCH   1  19
TORSDOF 4
ENDMDL
MODEL 9
REMARK VINA RESULT:      -8.2      1.037      1.294
REMARK  Name = 
REMARK  4 active torsions:
REMARK  status: ('A' for Active; 'I' for Inactive)
REMARK    1  A    between atoms: C_4  and  O_5
REMARK    2  A    between atoms: O_5  and  C_6
REMARK    3  A    between atoms: C_9  and  N_10
REMARK    4  A    between atoms: N_10  and  C_11
REMARK                            x       y       z     vdW  Elec       q    Type
REMARK                         _______ _______ _______ _____ _____    ______ ____
ROOT
ATOM      1  C   UNL     1       1.835   8.710  19.376  0.00  0.00    +0.000 A 
ATOM      2  C   UNL     1       1.616   7.811  20.425  0.00  0.00    +0.000 A 
ATOM      3  C   UNL     1       1.900   6.433  20.290  0.00  0.00    +0.000 A 
ATOM      4  C   UNL     1       2.368   5.931  19.076  0.00  0.00    +0.000 A 
ATOM      5  C   UNL     1       2.604   6.861  18.034  0.00  0.00    +0.000 A 
ATOM      6  C   UNL     1       2.329   8.229  18.166  0.00  0.00    +0.000 A 
ENDROOT
BRANCH   4   7
ATOM      7  N   UNL     1       2.386   4.558  18.681  0.00  0.00    +0.000 N 
ATOM      8  H   UNL     1       2.643   4.178  19.608  0.00  0.00    +0.000 HD
BRANCH   7   9
ATOM      9  C   UNL     1       3.274   3.664  17.807  0.00  0.00    +0.000 A 
ATOM     10  C   UNL     1       3.451   2.482  18.525  0.00  0.00    +0.000 A 
ATOM     11  C   UNL     1       4.370   2.594  19.552  0.00  0.00    +0.000 A 
ATOM     12  N   UNL     1       5.300   3.583  19.559  0.00  0.00    +0.000 NA
ATOM     13  C   UNL     1       5.492   4.207  18.376  0.00  0.00    +0.000 A 
ATOM     14  C   UNL     1       6.761   4.647  18.031  0.00  0.00    +0.000 A 
ATOM     15  C   UNL     1       7.148   4.728  16.687  0.00  0.00    +0.000 A 
ATOM     16  C   UNL     1       6.245   4.374  15.687  0.00  0.00    +0.000 A 
ATOM     17  C   UNL     1       4.917   4.108  16.029  0.00  0.00    +0.000 A 
ATOM     18  C   UNL     1       4.512   4.132  17.382  0.00  0.00    +0.000 A 
ENDBRANCH   7   9
ENDBRANCH   4   7
BRANCH   1  19
ATOM     19  O   UNL     1       1.448  10.044  19.380  0.00  0.00    +0.000 OA
BRANCH  19  23
ATOM     20  C   UNL     1      -2.463  11.005  18.354  0.00  0.00    +0.000 A 
ATOM     21  C   UNL     1      -1.912  11.557  19.510  0.00  0.00    +0.000 A 
ATOM     22  C   UNL     1      -0.599  11.256  19.866  0.00  0.00    +0.000 A 
ATOM     23  C   UNL     1       0.144  10.367  19.097  0.00  0.00    +0.000 A 
ATOM     24  C   UNL     1      -0.392   9.846  17.909  0.00  0.00    +0.000 A 
ATOM     25  C   UNL     1      -1.700  10.165  17.547  0.00  0.00    +0.000 A 
ENDBRANCH  19  23
ENDBRANCH   1  19
TORSDOF 4
ENDMDL
