MODEL 1
REMARK VINA RESULT:      -6.7      0.000      0.000
REMARK  Name = 
REMARK  6 active torsions:
REMARK  status: ('A' for Active; 'I' for Inactive)
REMARK    1  A    between atoms: C_1  and  C_2
REMARK    2  A    between atoms: C_2  and  C_3
REMARK    3  A    between atoms: C_3  and  C_4
REMARK    4  A    between atoms: C_4  and  C_5
REMARK    5  A    between atoms: C_8  and  C_9
REMARK    6  A    between atoms: C_15  and  O_16
REMARK                            x       y       z     vdW  Elec       q    Type
REMARK                         _______ _______ _______ _____ _____    ______ ____
ROOT
ATOM      1  C   UNL     1       5.135   4.721  16.259  0.00  0.00    +0.000 A 
ATOM      2  C   UNL     1       5.409   6.085  16.166  0.00  0.00    +0.000 A 
ATOM      3  C   UNL     1       4.660   6.991  16.908  0.00  0.00    +0.000 A 
ATOM      4  C   UNL     1       3.625   6.528  17.713  0.00  0.00    +0.000 A 
ATOM      5  N   UNL     1       3.385   5.197  17.861  0.00  0.00    +0.000 NA
ATOM      6  C   UNL     1       4.133   4.336  17.136  0.00  0.00    +0.000 A 
ENDROOT
BRANCH   4   7
ATOM      7  C   UNL     1       2.686   7.421  18.425  0.00  0.00    +0.000 A 
ATOM      8  C   UNL     1       2.194   8.572  17.776  0.00  0.00    +0.000 A 
ATOM      9  C   UNL     1       1.352   9.478  18.429  0.00  0.00    +0.000 A 
ATOM     10  C   UNL     1       0.988   9.248  19.746  0.00  0.00    +0.000 A 
ATOM     11 BR   UNL     1      -0.122  10.484  20.647  0.00  0.00    +0.000 Br
ATOM     12  C   UNL     1       1.448   8.119  20.422  0.00  0.00    +0.000 A 
ATOM     13  C   UNL     1       2.293   7.220  19.765  0.00  0.00    +0.000 A 
BRANCH  13  14
ATOM     14  O   UNL     1       2.759   6.142  20.469  0.00  0.00    +0.000 OA
ATOM     15  H   UNL     1       3.153   6.440  21.302  0.00  0.00    +0.000 HD
ENDBRANCH  13  14
ENDBRANCH   4   7
BRANCH   1  16
ATOM     16  C   UNL     1       5.862   3.715  15.412  0.00  0.00    +0.000 C 
BRANCH  16  17
ATOM     17  C   UNL     1       5.617   3.944  13.921  0.00  0.00    +0.000 C 
BRANCH  17  19
ATOM     18  C   UNL     1       6.958   3.800  11.814  0.00  0.00    +0.000 C 
ATOM     19  C   UNL     1       6.878   4.412  13.204  0.00  0.00    +0.000 C 
ENDBRANCH  17  19
ENDBRANCH  16  17
ENDBRANCH   1  16
TORSDOF 5
ENDMDL
MODEL 2
REMARK VINA RESULT:      -6.7      1.545      2.334
REMARK  Name = 
REMARK  6 active torsions:
REMARK  status: ('A' for Active; 'I' for Inactive)
REMARK    1  A    between atoms: C_1  and  C_2
REMARK    2  A    between atoms: C_2  and  C_3
REMARK    3  A    between atoms: C_3  and  C_4
REMARK    4  A    between atoms: C_4  and  C_5
REMARK    5  A    between atoms: C_8  and  C_9
REMARK    6  A    between atoms: C_15  and  O_16
REMARK                            x       y       z     vdW  Elec       q    Type
REMARK                         _______ _______ _______ _____ _____    ______ ____
ROOT
ATOM      1  C   UNL     1       4.292   5.021  16.937  0.00  0.00    +0.000 A 
ATOM      2  C   UNL     1       3.133   4.601  17.588  0.00  0.00    +0.000 A 
ATOM      3  C   UNL     1       2.350   5.527  18.268  0.00  0.00    +0.000 A 
ATOM      4  C   UNL     1       2.750   6.858  18.317  0.00  0.00    +0.000 A 
ATOM      5  N   UNL     1       3.845   7.294  17.637  0.00  0.00    +0.000 NA
ATOM      6  C   UNL     1       4.584   6.376  16.975  0.00  0.00    +0.000 A 
ENDROOT
BRANCH   4   7
ATOM      7  C   UNL     1       2.064   7.884  19.130  0.00  0.00    +0.000 A 
ATOM      8  C   UNL     1       1.742   7.605  20.475  0.00  0.00    +0.000 A 
ATOM      9  C   UNL     1       1.040   8.520  21.266  0.00  0.00    +0.000 A 
ATOM     10  C   UNL     1       0.645   9.732  20.723  0.00  0.00    +0.000 A 
ATOM     11 BR   UNL     1      -0.333  10.961  21.775  0.00  0.00    +0.000 Br
ATOM     12  C   UNL     1       0.948  10.050  19.400  0.00  0.00    +0.000 A 
ATOM     13  C   UNL     1       1.646   9.129  18.614  0.00  0.00    +0.000 A 
BRANCH  13  14
ATOM     14  O   UNL     1       1.893   9.454  17.307  0.00  0.00    +0.000 OA
ATOM     15  H   UNL     1       1.246   9.018  16.733  0.00  0.00    +0.000 HD
ENDBRANCH  13  14
ENDBRANCH   4   7
BRANCH   1  16
ATOM     16  C   UNL     1       5.212   4.043  16.262  0.00  0.00    +0.000 C 
BRANCH  16  17
ATOM     17  C   UNL     1       6.626   4.603  16.110  0.00  0.00    +0.000 C 
BRANCH  17  19
ATOM     18  C   UNL     1       6.133   3.921  13.754  0.00  0.00    +0.000 C 
ATOM     19  C   UNL     1       7.010   4.785  14.645  0.00  0.00    +0.000 C 
ENDBRANCH  17  19
ENDBRANCH  16  17
ENDBRANCH   1  16
TORSDOF 5
ENDMDL
MODEL 3
REMARK VINA RESULT:      -6.4      0.845      1.309
REMARK  Name = 
REMARK  6 active torsions:
REMARK  status: ('A' for Active; 'I' for Inactive)
REMARK    1  A    between atoms: C_1  and  C_2
REMARK    2  A    between atoms: C_2  and  C_3
REMARK    3  A    between atoms: C_3  and  C_4
REMARK    4  A    between atoms: C_4  and  C_5
REMARK    5  A    between atoms: C_8  and  C_9
REMARK    6  A    between atoms: C_15  and  O_16
REMARK                            x       y       z     vdW  Elec       q    Type
REMARK                         _______ _______ _______ _____ _____    ______ ____
ROOT
ATOM      1  C   UNL     1       5.198   4.694  16.017  0.00  0.00    +0.000 A 
ATOM      2  C   UNL     1       4.198   4.071  16.763  0.00  0.00    +0.000 A 
ATOM      3  C   UNL     1       3.319   4.841  17.516  0.00  0.00    +0.000 A 
ATOM      4  C   UNL     1       3.467   6.224  17.540  0.00  0.00    +0.000 A 
ATOM      5  N   UNL     1       4.398   6.850  16.771  0.00  0.00    +0.000 NA
ATOM      6  C   UNL     1       5.234   6.080  16.041  0.00  0.00    +0.000 A 
ENDROOT
BRANCH   4   7
ATOM      7  C   UNL     1       2.675   7.110  18.418  0.00  0.00    +0.000 A 
ATOM      8  C   UNL     1       2.184   8.333  17.913  0.00  0.00    +0.000 A 
ATOM      9  C   UNL     1       1.481   9.232  18.722  0.00  0.00    +0.000 A 
ATOM     10  C   UNL     1       1.259   8.923  20.054  0.00  0.00    +0.000 A 
ATOM     11 BR   UNL     1       0.340  10.148  21.164  0.00  0.00    +0.000 Br
ATOM     12  C   UNL     1       1.722   7.723  20.592  0.00  0.00    +0.000 A 
ATOM     13  C   UNL     1       2.427   6.832  19.779  0.00  0.00    +0.000 A 
BRANCH  13  14
ATOM     14  O   UNL     1       2.903   5.680  20.347  0.00  0.00    +0.000 OA
ATOM     15  H   UNL     1       3.857   5.611  20.196  0.00  0.00    +0.000 HD
ENDBRANCH  13  14
ENDBRANCH   4   7
BRANCH   1  16
ATOM     16  C   UNL     1       6.221   3.898  15.257  0.00  0.00    +0.000 C 
BRANCH  16  17
ATOM     17  C   UNL     1       6.897   4.731  14.170  0.00  0.00    +0.000 C 
BRANCH  17  19
ATOM     18  C   UNL     1       5.499   3.393  12.584  0.00  0.00    +0.000 C 
ATOM     19  C   UNL     1       6.858   4.035  12.813  0.00  0.00    +0.000 C 
ENDBRANCH  17  19
ENDBRANCH  16  17
ENDBRANCH   1  16
TORSDOF 5
ENDMDL
MODEL 4
REMARK VINA RESULT:      -6.4      1.168      1.551
REMARK  Name = 
REMARK  6 active torsions:
REMARK  status: ('A' for Active; 'I' for Inactive)
REMARK    1  A    between atoms: C_1  and  C_2
REMARK    2  A    between atoms: C_2  and  C_3
REMARK    3  A    between atoms: C_3  and  C_4
REMARK    4  A    between atoms: C_4  and  C_5
REMARK    5  A    between atoms: C_8  and  C_9
REMARK    6  A    between atoms: C_15  and  O_16
REMARK                            x       y       z     vdW  Elec       q    Type
REMARK                         _______ _______ _______ _____ _____    ______ ____
ROOT
ATOM      1  C   UNL     1       4.170   4.960  17.403  0.00  0.00    +0.000 A 
ATOM      2  C   UNL     1       4.562   6.258  17.079  0.00  0.00    +0.000 A 
ATOM      3  C   UNL     1       3.861   7.340  17.600  0.00  0.00    +0.000 A 
ATOM      4  C   UNL     1       2.756   7.114  18.414  0.00  0.00    +0.000 A 
ATOM      5  N   UNL     1       2.398   5.855  18.787  0.00  0.00    +0.000 NA
ATOM      6  C   UNL     1       3.101   4.821  18.276  0.00  0.00    +0.000 A 
ENDROOT
BRANCH   4   7
ATOM      7  C   UNL     1       1.867   8.191  18.896  0.00  0.00    +0.000 A 
ATOM      8  C   UNL     1       1.413   9.175  17.993  0.00  0.00    +0.000 A 
ATOM      9  C   UNL     1       0.619  10.247  18.413  0.00  0.00    +0.000 A 
ATOM     10  C   UNL     1       0.267  10.354  19.750  0.00  0.00    +0.000 A 
ATOM     11 BR   UNL     1      -0.777  11.818  20.334  0.00  0.00    +0.000 Br
ATOM     12  C   UNL     1       0.690   9.401  20.674  0.00  0.00    +0.000 A 
ATOM     13  C   UNL     1       1.486   8.335  20.247  0.00  0.00    +0.000 A 
BRANCH  13  14
ATOM     14  O   UNL     1       1.919   7.437  21.186  0.00  0.00    +0.000 OA
ATOM     15  H   UNL     1       2.771   7.724  21.547  0.00  0.00    +0.000 HD
ENDBRANCH  13  14
ENDBRANCH   4   7
BRANCH   1  16
ATOM     16  C   UNL     1       4.844   3.762  16.797  0.00  0.00    +0.000 C 
BRANCH  16  17
ATOM     17  C   UNL     1       6.172   4.130  16.135  0.00  0.00    +0.000 C 
BRANCH  17  19
ATOM     18  C   UNL     1       7.121   4.887  13.948  0.00  0.00    +0.000 C 
ATOM     19  C   UNL     1       6.117   3.964  14.620  0.00  0.00    +0.000 C 
ENDBRANCH  17  19
ENDBRANCH  16  17
ENDBRANCH   1  16
TORSDOF 5
ENDMDL
MODEL 5
REMARK VINA RESULT:      -6.3      1.863      2.679
REMARK  Name = 
REMARK  6 active torsions:
REMARK  status: ('A' for Active; 'I' for Inactive)
REMARK    1  A    between atoms: C_1  and  C_2
REMARK    2  A    between atoms: C_2  and  C_3
REMARK    3  A    between atoms: C_3  and  C_4
REMARK    4  A    between atoms: C_4  and  C_5
REMARK    5  A    between atoms: C_8  and  C_9
REMARK    6  A    between atoms: C_15  and  O_16
REMARK                            x       y       z     vdW  Elec       q    Type
REMARK                         _______ _______ _______ _____ _____    ______ ____
ROOT
ATOM      1  C   UNL     1       4.460   5.331  17.039  0.00  0.00    +0.000 A 
ATOM      2  C   UNL     1       3.295   4.876  17.656  0.00  0.00    +0.000 A 
ATOM      3  C   UNL     1       2.399   5.790  18.197  0.00  0.00    +0.000 A 
ATOM      4  C   UNL     1       2.690   7.149  18.145  0.00  0.00    +0.000 A 
ATOM      5  N   UNL     1       3.792   7.612  17.494  0.00  0.00    +0.000 NA
ATOM      6  C   UNL     1       4.642   6.704  16.968  0.00  0.00    +0.000 A 
ENDROOT
BRANCH   4   7
ATOM      7  C   UNL     1       1.873   8.182  18.815  0.00  0.00    +0.000 A 
ATOM      8  C   UNL     1       1.385   9.276  18.070  0.00  0.00    +0.000 A 
ATOM      9  C   UNL     1       0.659  10.309  18.671  0.00  0.00    +0.000 A 
ATOM     10  C   UNL     1       0.409  10.265  20.034  0.00  0.00    +0.000 A 
ATOM     11 BR   UNL     1      -0.543  11.673  20.862  0.00  0.00    +0.000 Br
ATOM     12  C   UNL     1       0.868   9.200  20.807  0.00  0.00    +0.000 A 
ATOM     13  C   UNL     1       1.597   8.174  20.199  0.00  0.00    +0.000 A 
BRANCH  13  14
ATOM     14  O   UNL     1       2.069   7.161  20.992  0.00  0.00    +0.000 OA
ATOM     15  H   UNL     1       1.940   7.389  21.925  0.00  0.00    +0.000 HD
ENDBRANCH  13  14
ENDBRANCH   4   7
BRANCH   1  16
ATOM     16  C   UNL     1       5.496   4.377  16.517  0.00  0.00    +0.000 C 
BRANCH  16  17
ATOM     17  C   UNL     1       6.896   4.988  16.542  0.00  0.00    +0.000 C 
BRANCH  17  19
ATOM     18  C   UNL     1       7.746   5.767  18.762  0.00  0.00    +0.000 C 
ATOM     19  C   UNL     1       7.666   4.594  17.798  0.00  0.00    +0.000 C 
ENDBRANCH  17  19
ENDBRANCH  16  17
ENDBRANCH   1  16
TORSDOF 5
ENDMDL
MODEL 6
REMARK VINA RESULT:      -6.3      0.979      1.484
REMARK  Name = 
REMARK  6 active torsions:
REMARK  status: ('A' for Active; 'I' for Inactive)
REMARK    1  A    between atoms: C_1  and  C_2
REMARK    2  A    between atoms: C_2  and  C_3
REMARK    3  A    between atoms: C_3  and  C_4
REMARK    4  A    between atoms: C_4  and  C_5
REMARK    5  A    between atoms: C_8  and  C_9
REMARK    6  A    between atoms: C_15  and  O_16
REMARK                            x       y       z     vdW  Elec       q    Type
REMARK                         _______ _______ _______ _____ _____    ______ ____
ROOT
ATOM      1  C   UNL     1       4.621   4.804  16.989  0.00  0.00    +0.000 A 
ATOM      2  C   UNL     1       3.335   4.446  17.391  0.00  0.00    +0.000 A 
ATOM      3  C   UNL     1       2.469   5.420  17.876  0.00  0.00    +0.000 A 
ATOM      4  C   UNL     1       2.907   6.735  17.983  0.00  0.00    +0.000 A 
ATOM      5  N   UNL     1       4.137   7.110  17.539  0.00  0.00    +0.000 NA
ATOM      6  C   UNL     1       4.957   6.147  17.063  0.00  0.00    +0.000 A 
ENDROOT
BRANCH   4   7
ATOM      7  C   UNL     1       2.112   7.808  18.617  0.00  0.00    +0.000 A 
ATOM      8  C   UNL     1       1.666   8.896  17.838  0.00  0.00    +0.000 A 
ATOM      9  C   UNL     1       0.962   9.964  18.404  0.00  0.00    +0.000 A 
ATOM     10  C   UNL     1       0.694   9.962  19.764  0.00  0.00    +0.000 A 
ATOM     11 BR   UNL     1      -0.227  11.417  20.544  0.00  0.00    +0.000 Br
ATOM     12  C   UNL     1       1.112   8.904  20.569  0.00  0.00    +0.000 A 
ATOM     13  C   UNL     1       1.818   7.842  19.997  0.00  0.00    +0.000 A 
BRANCH  13  14
ATOM     14  O   UNL     1       2.250   6.837  20.820  0.00  0.00    +0.000 OA
ATOM     15  H   UNL     1       1.552   6.171  20.918  0.00  0.00    +0.000 HD
ENDBRANCH  13  14
ENDBRANCH   4   7
BRANCH   1  16
ATOM     16  C   UNL     1       5.617   3.773  16.539  0.00  0.00    +0.000 C 
BRANCH  16  17
ATOM     17  C   UNL     1       6.364   4.214  15.281  0.00  0.00    +0.000 C 
BRANCH  17  19
ATOM     18  C   UNL     1       6.229   3.696  12.837  0.00  0.00    +0.000 C 
ATOM     19  C   UNL     1       5.464   4.200  14.051  0.00  0.00    +0.000 C 
ENDBRANCH  17  19
ENDBRANCH  16  17
ENDBRANCH   1  16
TORSDOF 5
ENDMDL
MODEL 7
REMARK VINA RESULT:      -6.2      3.688      4.044
REMARK  Name = 
REMARK  6 active torsions:
REMARK  status: ('A' for Active; 'I' for Inactive)
REMARK    1  A    between atoms: C_1  and  C_2
REMARK    2  A    between atoms: C_2  and  C_3
REMARK    3  A    between atoms: C_3  and  C_4
REMARK    4  A    between atoms: C_4  and  C_5
REMARK    5  A    between atoms: C_8  and  C_9
REMARK    6  A    between atoms: C_15  and  O_16
REMARK                            x       y       z     vdW  Elec       q    Type
REMARK                         _______ _______ _______ _____ _____    ______ ____
ROOT
ATOM      1  C   UNL     1       6.797   4.946  14.454  0.00  0.00    +0.000 A 
ATOM      2  C   UNL     1       5.624   5.689  14.580  0.00  0.00    +0.000 A 
ATOM      3  C   UNL     1       4.772   5.455  15.653  0.00  0.00    +0.000 A 
ATOM      4  C   UNL     1       5.085   4.459  16.573  0.00  0.00    +0.000 A 
ATOM      5  N   UNL     1       6.255   3.768  16.497  0.00  0.00    +0.000 NA
ATOM      6  C   UNL     1       7.070   4.021  15.450  0.00  0.00    +0.000 A 
ENDROOT
BRANCH   4   7
ATOM      7  C   UNL     1       4.176   4.042  17.660  0.00  0.00    +0.000 A 
ATOM      8  C   UNL     1       2.787   3.983  17.422  0.00  0.00    +0.000 A 
ATOM      9  C   UNL     1       1.882   3.652  18.436  0.00  0.00    +0.000 A 
ATOM     10  C   UNL     1       2.353   3.376  19.710  0.00  0.00    +0.000 A 
ATOM     11 BR   UNL     1       1.135   2.961  21.095  0.00  0.00    +0.000 Br
ATOM     12  C   UNL     1       3.718   3.418  19.987  0.00  0.00    +0.000 A 
ATOM     13  C   UNL     1       4.616   3.753  18.970  0.00  0.00    +0.000 A 
BRANCH  13  14
ATOM     14  O   UNL     1       5.948   3.824  19.283  0.00  0.00    +0.000 OA
ATOM     15  H   UNL     1       6.461   3.297  18.652  0.00  0.00    +0.000 HD
ENDBRANCH  13  14
ENDBRANCH   4   7
BRANCH   1  16
ATOM     16  C   UNL     1       7.703   5.105  13.266  0.00  0.00    +0.000 C 
BRANCH  16  17
ATOM     17  C   UNL     1       7.053   4.596  11.981  0.00  0.00    +0.000 C 
BRANCH  17  19
ATOM     18  C   UNL     1       5.006   3.177  11.744  0.00  0.00    +0.000 C 
ATOM     19  C   UNL     1       6.470   3.198  12.154  0.00  0.00    +0.000 C 
ENDBRANCH  17  19
ENDBRANCH  16  17
ENDBRANCH   1  16
TORSDOF 5
ENDMDL
MODEL 8
REMARK VINA RESULT:      -6.2      3.192      7.801
REMARK  Name = 
REMARK  6 active torsions:
REMARK  status: ('A' for Active; 'I' for Inactive)
REMARK    1  A    between atoms: C_1  and  C_2
REMARK    2  A    between atoms: C_2  and  C_3
REMARK    3  A    between atoms: C_3  and  C_4
REMARK    4  A    between atoms: C_4  and  C_5
REMARK    5  A    between atoms: C_8  and  C_9
REMARK    6  A    between atoms: C_15  and  O_16
REMARK                            x       y       z     vdW  Elec       q    Type
REMARK                         _______ _______ _______ _____ _____    ______ ____
ROOT
ATOM      1  C   UNL     1       0.971   9.413  19.995  0.00  0.00    +0.000 A 
ATOM      2  C   UNL     1       1.158   9.647  18.633  0.00  0.00    +0.000 A 
ATOM      3  C   UNL     1       1.876   8.734  17.869  0.00  0.00    +0.000 A 
ATOM      4  C   UNL     1       2.426   7.612  18.480  0.00  0.00    +0.000 A 
ATOM      5  N   UNL     1       2.202   7.339  19.793  0.00  0.00    +0.000 NA
ATOM      6  C   UNL     1       1.493   8.237  20.512  0.00  0.00    +0.000 A 
ENDROOT
BRANCH   4   7
ATOM      7  C   UNL     1       3.321   6.664  17.783  0.00  0.00    +0.000 A 
ATOM      8  C   UNL     1       4.404   7.157  17.026  0.00  0.00    +0.000 A 
ATOM      9  C   UNL     1       5.242   6.304  16.301  0.00  0.00    +0.000 A 
ATOM     10  C   UNL     1       5.008   4.938  16.319  0.00  0.00    +0.000 A 
ATOM     11 BR   UNL     1       6.115   3.780  15.315  0.00  0.00    +0.000 Br
ATOM     12  C   UNL     1       3.952   4.408  17.059  0.00  0.00    +0.000 A 
ATOM     13  C   UNL     1       3.117   5.268  17.777  0.00  0.00    +0.000 A 
BRANCH  13  14
ATOM     14  O   UNL     1       2.064   4.720  18.462  0.00  0.00    +0.000 OA
ATOM     15  H   UNL     1       2.289   3.821  18.744  0.00  0.00    +0.000 HD
ENDBRANCH  13  14
ENDBRANCH   4   7
BRANCH   1  16
ATOM     16  C   UNL     1       0.276  10.413  20.875  0.00  0.00    +0.000 C 
BRANCH  16  17
ATOM     17  C   UNL     1      -0.673   9.738  21.864  0.00  0.00    +0.000 C 
BRANCH  17  19
ATOM     18  C   UNL     1      -1.924  11.484  23.147  0.00  0.00    +0.000 C 
ATOM     19  C   UNL     1      -0.762  10.504  23.180  0.00  0.00    +0.000 C 
ENDBRANCH  17  19
ENDBRANCH  16  17
ENDBRANCH   1  16
TORSDOF 5
ENDMDL
MODEL 9
REMARK VINA RESULT:      -6.2      3.176      7.620
REMARK  Name = 
REMARK  6 active torsions:
REMARK  status: ('A' for Active; 'I' for Inactive)
REMARK    1  A    between atoms: C_1  and  C_2
REMARK    2  A    between atoms: C_2  and  C_3
REMARK    3  A    between atoms: C_3  and  C_4
REMARK    4  A    between atoms: C_4  and  C_5
REMARK    5  A    between atoms: C_8  and  C_9
REMARK    6  A    between atoms: C_15  and  O_16
REMARK                            x       y       z     vdW  Elec       q    Type
REMARK                         _______ _______ _______ _____ _____    ______ ____
ROOT
ATOM      1  C   UNL     1       1.395   8.145  20.535  0.00  0.00    +0.000 A 
ATOM      2  C   UNL     1       1.569   8.744  19.288  0.00  0.00    +0.000 A 
ATOM      3  C   UNL     1       2.262   8.069  18.290  0.00  0.00    +0.000 A 
ATOM      4  C   UNL     1       2.803   6.815  18.558  0.00  0.00    +0.000 A 
ATOM      5  N   UNL     1       2.590   6.193  19.749  0.00  0.00    +0.000 NA
ATOM      6  C   UNL     1       1.905   6.866  20.699  0.00  0.00    +0.000 A 
ENDROOT
BRANCH   4   7
ATOM      7  C   UNL     1       3.673   6.087  17.612  0.00  0.00    +0.000 A 
ATOM      8  C   UNL     1       4.564   6.807  16.789  0.00  0.00    +0.000 A 
ATOM      9  C   UNL     1       5.364   6.168  15.837  0.00  0.00    +0.000 A 
ATOM     10  C   UNL     1       5.285   4.791  15.691  0.00  0.00    +0.000 A 
ATOM     11 BR   UNL     1       6.339   3.921  14.384  0.00  0.00    +0.000 Br
ATOM     12  C   UNL     1       4.423   4.041  16.488  0.00  0.00    +0.000 A 
ATOM     13  C   UNL     1       3.624   4.688  17.434  0.00  0.00    +0.000 A 
BRANCH  13  14
ATOM     14  O   UNL     1       2.758   3.927  18.175  0.00  0.00    +0.000 OA
ATOM     15  H   UNL     1       2.269   4.493  18.791  0.00  0.00    +0.000 HD
ENDBRANCH  13  14
ENDBRANCH   4   7
BRANCH   1  16
ATOM     16  C   UNL     1       0.727   8.871  21.668  0.00  0.00    +0.000 C 
BRANCH  16  17
ATOM     17  C   UNL     1      -0.284   9.901  21.167  0.00  0.00    +0.000 C 
BRANCH  17  19
ATOM     18  C   UNL     1      -1.346  10.949  23.175  0.00  0.00    +0.000 C 
ATOM     19  C   UNL     1      -0.328  11.136  22.060  0.00  0.00    +0.000 C 
ENDBRANCH  17  19
ENDBRANCH  16  17
ENDBRANCH   1  16
TORSDOF 5
ENDMDL
