MODEL 1
REMARK VINA RESULT:      -8.3      0.000      0.000
REMARK  Name = 
REMARK  5 active torsions:
REMARK  status: ('A' for Active; 'I' for Inactive)
REMARK    1  A    between atoms: C_1  and  C_2
REMARK    2  A    between atoms: N_7  and  C_8
REMARK    3  A    between atoms: C_8  and  C_9
REMARK    4  A    between atoms: N_11  and  C_12
REMARK    5  A    between atoms: C_23  and  C_24
REMARK                            x       y       z     vdW  Elec       q    Type
REMARK                         _______ _______ _______ _____ _____    ______ ____
ROOT
ATOM      1  C   UNL     1       2.099   5.666  20.329  0.00  0.00    +0.000 C 
ATOM      2  O   UNL     1       0.956   5.218  20.433  0.00  0.00    +0.000 OA
ATOM      3  N   UNL     1       2.434   6.997  20.148  0.00  0.00    +0.000 N 
ATOM      4  H   UNL     1       3.399   7.180  19.888  0.00  0.00    +0.000 HD
ENDROOT
BRANCH   3   5
ATOM      5  C   UNL     1       1.531   8.077  20.229  0.00  0.00    +0.000 A 
ATOM      6  C   UNL     1       1.292   8.912  19.136  0.00  0.00    +0.000 A 
ATOM      7  C   UNL     1       0.441  10.010  19.227  0.00  0.00    +0.000 A 
ATOM      8  C   UNL     1      -0.191  10.295  20.430  0.00  0.00    +0.000 A 
ATOM      9  C   UNL     1       0.010   9.448  21.546  0.00  0.00    +0.000 A 
ATOM     10  C   UNL     1       0.845   8.319  21.423  0.00  0.00    +0.000 A 
ATOM     11  C   UNL     1      -0.726   9.717  22.847  0.00  0.00    +0.000 C 
ATOM     12  C   UNL     1      -0.928  11.216  23.081  0.00  0.00    +0.000 C 
ATOM     13  C   UNL     1      -1.415  11.872  21.844  0.00  0.00    +0.000 A 
ATOM     14  N   UNL     1      -2.159  12.945  21.732  0.00  0.00    +0.000 NA
ATOM     15  N   UNL     1      -2.263  13.234  20.398  0.00  0.00    +0.000 NA
ATOM     16  C   UNL     1      -1.577  12.336  19.714  0.00  0.00    +0.000 A 
ATOM     17  C   UNL     1      -1.501  12.304  18.236  0.00  0.00    +0.000 C 
ATOM     18  N   UNL     1      -1.017  11.434  20.600  0.00  0.00    +0.000 N 
ENDBRANCH   3   5
BRANCH   1  19
ATOM     19  C   UNL     1       3.270   4.691  20.313  0.00  0.00    +0.000 C 
BRANCH  19  26
ATOM     20  C   UNL     1       7.305   4.705  16.020  0.00  0.00    +0.000 C 
ATOM     21  C   UNL     1       5.957   5.369  16.126  0.00  0.00    +0.000 C 
ATOM     22  O   UNL     1       5.516   6.025  15.183  0.00  0.00    +0.000 OA
ATOM     23  N   UNL     1       5.248   5.169  17.296  0.00  0.00    +0.000 N 
ATOM     24  C   UNL     1       3.883   5.684  17.407  0.00  0.00    +0.000 C 
ATOM     25  C   UNL     1       2.920   4.571  17.869  0.00  0.00    +0.000 C 
ATOM     26  N   UNL     1       3.327   3.838  19.102  0.00  0.00    +0.000 NA
ATOM     27  C   UNL     1       4.728   3.365  18.916  0.00  0.00    +0.000 C 
ATOM     28  C   UNL     1       5.732   4.455  18.479  0.00  0.00    +0.000 C 
ENDBRANCH  19  26
ENDBRANCH   1  19
TORSDOF 3
ENDMDL
MODEL 2
REMARK VINA RESULT:      -8.2      0.491      2.020
REMARK  Name = 
REMARK  5 active torsions:
REMARK  status: ('A' for Active; 'I' for Inactive)
REMARK    1  A    between atoms: C_1  and  C_2
REMARK    2  A    between atoms: N_7  and  C_8
REMARK    3  A    between atoms: C_8  and  C_9
REMARK    4  A    between atoms: N_11  and  C_12
REMARK    5  A    between atoms: C_23  and  C_24
REMARK                            x       y       z     vdW  Elec       q    Type
REMARK                         _______ _______ _______ _____ _____    ______ ____
ROOT
ATOM      1  C   UNL     1       2.024   5.802  20.386  0.00  0.00    +0.000 C 
ATOM      2  O   UNL     1       0.875   5.374  20.505  0.00  0.00    +0.000 OA
ATOM      3  N   UNL     1       2.384   7.133  20.260  0.00  0.00    +0.000 N 
ATOM      4  H   UNL     1       3.344   7.308  19.979  0.00  0.00    +0.000 HD
ENDROOT
BRANCH   3   5
ATOM      5  C   UNL     1       1.508   8.226  20.422  0.00  0.00    +0.000 A 
ATOM      6  C   UNL     1       0.992   8.569  21.672  0.00  0.00    +0.000 A 
ATOM      7  C   UNL     1       0.086   9.616  21.828  0.00  0.00    +0.000 A 
ATOM      8  C   UNL     1      -0.325  10.343  20.719  0.00  0.00    +0.000 A 
ATOM      9  C   UNL     1       0.204  10.035  19.443  0.00  0.00    +0.000 A 
ATOM     10  C   UNL     1       1.150   8.998  19.311  0.00  0.00    +0.000 A 
ATOM     11  C   UNL     1      -0.192  10.865  18.235  0.00  0.00    +0.000 C 
ATOM     12  C   UNL     1      -1.638  11.356  18.339  0.00  0.00    +0.000 C 
ATOM     13  C   UNL     1      -1.904  11.902  19.690  0.00  0.00    +0.000 A 
ATOM     14  N   UNL     1      -2.763  12.830  20.039  0.00  0.00    +0.000 NA
ATOM     15  N   UNL     1      -2.730  12.927  21.404  0.00  0.00    +0.000 NA
ATOM     16  C   UNL     1      -1.855  12.055  21.871  0.00  0.00    +0.000 A 
ATOM     17  C   UNL     1      -1.518  11.909  23.305  0.00  0.00    +0.000 C 
ATOM     18  N   UNL     1      -1.292  11.374  20.806  0.00  0.00    +0.000 N 
ENDBRANCH   3   5
BRANCH   1  19
ATOM     19  C   UNL     1       3.171   4.805  20.286  0.00  0.00    +0.000 C 
BRANCH  19  26
ATOM     20  C   UNL     1       7.226   4.586  16.017  0.00  0.00    +0.000 C 
ATOM     21  C   UNL     1       5.946   5.370  16.140  0.00  0.00    +0.000 C 
ATOM     22  O   UNL     1       5.578   6.099  15.219  0.00  0.00    +0.000 OA
ATOM     23  N   UNL     1       5.212   5.198  17.298  0.00  0.00    +0.000 N 
ATOM     24  C   UNL     1       3.901   5.837  17.421  0.00  0.00    +0.000 C 
ATOM     25  C   UNL     1       2.833   4.805  17.838  0.00  0.00    +0.000 C 
ATOM     26  N   UNL     1       3.157   3.993  19.045  0.00  0.00    +0.000 NA
ATOM     27  C   UNL     1       4.508   3.395  18.849  0.00  0.00    +0.000 C 
ATOM     28  C   UNL     1       5.616   4.399  18.457  0.00  0.00    +0.000 C 
ENDBRANCH  19  26
ENDBRANCH   1  19
TORSDOF 3
ENDMDL
MODEL 3
REMARK VINA RESULT:      -8.2      7.518      9.252
REMARK  Name = 
REMARK  5 active torsions:
REMARK  status: ('A' for Active; 'I' for Inactive)
REMARK    1  A    between atoms: C_1  and  C_2
REMARK    2  A    between atoms: N_7  and  C_8
REMARK    3  A    between atoms: C_8  and  C_9
REMARK    4  A    between atoms: N_11  and  C_12
REMARK    5  A    between atoms: C_23  and  C_24
REMARK                            x       y       z     vdW  Elec       q    Type
REMARK                         _______ _______ _______ _____ _____    ______ ____
ROOT
ATOM      1  C   UNL     1       8.087   8.550  18.049  0.00  0.00    +0.000 C 
ATOM      2  O   UNL     1       7.649   9.232  17.122  0.00  0.00    +0.000 OA
ATOM      3  N   UNL     1       8.996   8.970  19.005  0.00  0.00    +0.000 N 
ATOM      4  H   UNL     1       9.402   8.240  19.583  0.00  0.00    +0.000 HD
ENDROOT
BRANCH   3   5
ATOM      5  C   UNL     1       9.436  10.299  19.174  0.00  0.00    +0.000 A 
ATOM      6  C   UNL     1       9.144  11.023  20.331  0.00  0.00    +0.000 A 
ATOM      7  C   UNL     1       9.532  12.352  20.480  0.00  0.00    +0.000 A 
ATOM      8  C   UNL     1      10.223  12.987  19.457  0.00  0.00    +0.000 A 
ATOM      9  C   UNL     1      10.557  12.269  18.285  0.00  0.00    +0.000 A 
ATOM     10  C   UNL     1      10.191  10.912  18.170  0.00  0.00    +0.000 A 
ATOM     11  C   UNL     1      11.368  12.938  17.188  0.00  0.00    +0.000 C 
ATOM     12  C   UNL     1      11.041  14.429  17.076  0.00  0.00    +0.000 C 
ATOM     13  C   UNL     1      11.016  15.055  18.419  0.00  0.00    +0.000 A 
ATOM     14  N   UNL     1      11.277  16.299  18.741  0.00  0.00    +0.000 NA
ATOM     15  N   UNL     1      11.020  16.438  20.079  0.00  0.00    +0.000 NA
ATOM     16  C   UNL     1      10.601  15.280  20.554  0.00  0.00    +0.000 A 
ATOM     17  C   UNL     1      10.272  15.040  21.977  0.00  0.00    +0.000 C 
ATOM     18  N   UNL     1      10.586  14.355  19.526  0.00  0.00    +0.000 N 
ENDBRANCH   3   5
BRANCH   1  19
ATOM     19  C   UNL     1       7.676   7.086  18.141  0.00  0.00    +0.000 C 
BRANCH  19  26
ATOM     20  C   UNL     1       2.445   4.415  17.671  0.00  0.00    +0.000 C 
ATOM     21  C   UNL     1       3.842   3.863  17.779  0.00  0.00    +0.000 C 
ATOM     22  O   UNL     1       4.032   2.648  17.736  0.00  0.00    +0.000 OA
ATOM     23  N   UNL     1       4.873   4.778  17.887  0.00  0.00    +0.000 N 
ATOM     24  C   UNL     1       6.258   4.307  17.870  0.00  0.00    +0.000 C 
ATOM     25  C   UNL     1       7.081   5.083  16.821  0.00  0.00    +0.000 C 
ATOM     26  N   UNL     1       7.013   6.569  16.919  0.00  0.00    +0.000 NA
ATOM     27  C   UNL     1       5.577   6.964  16.949  0.00  0.00    +0.000 C 
ATOM     28  C   UNL     1       4.720   6.230  18.006  0.00  0.00    +0.000 C 
ENDBRANCH  19  26
ENDBRANCH   1  19
TORSDOF 3
ENDMDL
MODEL 4
REMARK VINA RESULT:      -8.1      2.823      9.193
REMARK  Name = 
REMARK  5 active torsions:
REMARK  status: ('A' for Active; 'I' for Inactive)
REMARK    1  A    between atoms: C_1  and  C_2
REMARK    2  A    between atoms: N_7  and  C_8
REMARK    3  A    between atoms: C_8  and  C_9
REMARK    4  A    between atoms: N_11  and  C_12
REMARK    5  A    between atoms: C_23  and  C_24
REMARK                            x       y       z     vdW  Elec       q    Type
REMARK                         _______ _______ _______ _____ _____    ______ ____
ROOT
ATOM      1  C   UNL     1       0.750  10.071  18.803  0.00  0.00    +0.000 C 
ATOM      2  O   UNL     1       0.090   9.632  17.861  0.00  0.00    +0.000 OA
ATOM      3  N   UNL     1       1.607   9.335  19.604  0.00  0.00    +0.000 N 
ATOM      4  H   UNL     1       1.927   9.794  20.452  0.00  0.00    +0.000 HD
ENDROOT
BRANCH   3   5
ATOM      5  C   UNL     1       1.995   8.000  19.362  0.00  0.00    +0.000 A 
ATOM      6  C   UNL     1       2.688   7.641  18.205  0.00  0.00    +0.000 A 
ATOM      7  C   UNL     1       3.026   6.317  17.938  0.00  0.00    +0.000 A 
ATOM      8  C   UNL     1       2.669   5.319  18.834  0.00  0.00    +0.000 A 
ATOM      9  C   UNL     1       1.990   5.658  20.028  0.00  0.00    +0.000 A 
ATOM     10  C   UNL     1       1.691   7.009  20.300  0.00  0.00    +0.000 A 
ATOM     11  C   UNL     1       1.651   4.581  21.043  0.00  0.00    +0.000 C 
ATOM     12  C   UNL     1       1.331   3.247  20.363  0.00  0.00    +0.000 C 
ATOM     13  C   UNL     1       2.338   2.944  19.319  0.00  0.00    +0.000 A 
ATOM     14  N   UNL     1       2.732   1.771  18.885  0.00  0.00    +0.000 NA
ATOM     15  N   UNL     1       3.596   1.988  17.845  0.00  0.00    +0.000 NA
ATOM     16  C   UNL     1       3.714   3.289  17.656  0.00  0.00    +0.000 A 
ATOM     17  C   UNL     1       4.606   3.899  16.643  0.00  0.00    +0.000 C 
ATOM     18  N   UNL     1       2.929   3.949  18.583  0.00  0.00    +0.000 N 
ENDBRANCH   3   5
BRANCH   1  19
ATOM     19  C   UNL     1       0.577  11.530  19.204  0.00  0.00    +0.000 C 
BRANCH  19  26
ATOM     20  C   UNL     1      -1.184  16.077  22.511  0.00  0.00    +0.000 C 
ATOM     21  C   UNL     1      -0.876  14.646  22.863  0.00  0.00    +0.000 C 
ATOM     22  O   UNL     1      -1.023  14.249  24.019  0.00  0.00    +0.000 OA
ATOM     23  N   UNL     1      -0.470  13.818  21.834  0.00  0.00    +0.000 N 
ATOM     24  C   UNL     1      -0.277  12.391  22.091  0.00  0.00    +0.000 C 
ATOM     25  C   UNL     1      -1.054  11.545  21.061  0.00  0.00    +0.000 C 
ATOM     26  N   UNL     1      -0.799  11.878  19.631  0.00  0.00    +0.000 NA
ATOM     27  C   UNL     1      -0.997  13.345  19.457  0.00  0.00    +0.000 C 
ATOM     28  C   UNL     1      -0.215  14.232  20.452  0.00  0.00    +0.000 C 
ENDBRANCH  19  26
ENDBRANCH   1  19
TORSDOF 3
ENDMDL
MODEL 5
REMARK VINA RESULT:      -8.1      3.149      9.241
REMARK  Name = 
REMARK  5 active torsions:
REMARK  status: ('A' for Active; 'I' for Inactive)
REMARK    1  A    between atoms: C_1  and  C_2
REMARK    2  A    between atoms: N_7  and  C_8
REMARK    3  A    between atoms: C_8  and  C_9
REMARK    4  A    between atoms: N_11  and  C_12
REMARK    5  A    between atoms: C_23  and  C_24
REMARK                            x       y       z     vdW  Elec       q    Type
REMARK                         _______ _______ _______ _____ _____    ______ ____
ROOT
ATOM      1  C   UNL     1       0.777   9.971  19.180  0.00  0.00    +0.000 C 
ATOM      2  O   UNL     1       0.354   9.696  18.057  0.00  0.00    +0.000 OA
ATOM      3  N   UNL     1       1.428   9.099  20.037  0.00  0.00    +0.000 N 
ATOM      4  H   UNL     1       1.541   9.419  20.994  0.00  0.00    +0.000 HD
ENDROOT
BRANCH   3   5
ATOM      5  C   UNL     1       1.868   7.805  19.692  0.00  0.00    +0.000 A 
ATOM      6  C   UNL     1       2.534   7.555  18.491  0.00  0.00    +0.000 A 
ATOM      7  C   UNL     1       2.923   6.270  18.124  0.00  0.00    +0.000 A 
ATOM      8  C   UNL     1       2.645   5.199  18.962  0.00  0.00    +0.000 A 
ATOM      9  C   UNL     1       1.996   5.426  20.198  0.00  0.00    +0.000 A 
ATOM     10  C   UNL     1       1.645   6.740  20.571  0.00  0.00    +0.000 A 
ATOM     11  C   UNL     1       1.745   4.269  21.150  0.00  0.00    +0.000 C 
ATOM     12  C   UNL     1       1.462   2.970  20.393  0.00  0.00    +0.000 C 
ATOM     13  C   UNL     1       2.443   2.785  19.297  0.00  0.00    +0.000 A 
ATOM     14  N   UNL     1       2.874   1.663  18.773  0.00  0.00    +0.000 NA
ATOM     15  N   UNL     1       3.688   1.989  17.721  0.00  0.00    +0.000 NA
ATOM     16  C   UNL     1       3.739   3.304  17.616  0.00  0.00    +0.000 A 
ATOM     17  C   UNL     1       4.563   4.022  16.617  0.00  0.00    +0.000 C 
ATOM     18  N   UNL     1       2.959   3.863  18.612  0.00  0.00    +0.000 N 
ENDBRANCH   3   5
BRANCH   1  19
ATOM     19  C   UNL     1       0.508  11.360  19.745  0.00  0.00    +0.000 C 
BRANCH  19  26
ATOM     20  C   UNL     1      -0.910  16.994  18.765  0.00  0.00    +0.000 C 
ATOM     21  C   UNL     1      -1.053  16.126  19.988  0.00  0.00    +0.000 C 
ATOM     22  O   UNL     1      -1.582  16.573  21.005  0.00  0.00    +0.000 OA
ATOM     23  N   UNL     1      -0.605  14.822  19.889  0.00  0.00    +0.000 N 
ATOM     24  C   UNL     1      -0.830  13.898  21.000  0.00  0.00    +0.000 C 
ATOM     25  C   UNL     1      -1.493  12.599  20.498  0.00  0.00    +0.000 C 
ATOM     26  N   UNL     1      -0.808  11.923  19.360  0.00  0.00    +0.000 NA
ATOM     27  C   UNL     1      -0.600  12.932  18.283  0.00  0.00    +0.000 C 
ATOM     28  C   UNL     1       0.088  14.239  18.737  0.00  0.00    +0.000 C 
ENDBRANCH  19  26
ENDBRANCH   1  19
TORSDOF 3
ENDMDL
MODEL 6
REMARK VINA RESULT:      -8.0      3.645      8.789
REMARK  Name = 
REMARK  5 active torsions:
REMARK  status: ('A' for Active; 'I' for Inactive)
REMARK    1  A    between atoms: C_1  and  C_2
REMARK    2  A    between atoms: N_7  and  C_8
REMARK    3  A    between atoms: C_8  and  C_9
REMARK    4  A    between atoms: N_11  and  C_12
REMARK    5  A    between atoms: C_23  and  C_24
REMARK                            x       y       z     vdW  Elec       q    Type
REMARK                         _______ _______ _______ _____ _____    ______ ____
ROOT
ATOM      1  C   UNL     1       0.682  10.050  19.018  0.00  0.00    +0.000 C 
ATOM      2  O   UNL     1       0.087   9.663  18.011  0.00  0.00    +0.000 OA
ATOM      3  N   UNL     1       1.500   9.275  19.823  0.00  0.00    +0.000 N 
ATOM      4  H   UNL     1       1.760   9.684  20.716  0.00  0.00    +0.000 HD
ENDROOT
BRANCH   3   5
ATOM      5  C   UNL     1       1.924   7.964  19.522  0.00  0.00    +0.000 A 
ATOM      6  C   UNL     1       2.585   7.667  18.329  0.00  0.00    +0.000 A 
ATOM      7  C   UNL     1       2.958   6.365  18.005  0.00  0.00    +0.000 A 
ATOM      8  C   UNL     1       2.669   5.326  18.880  0.00  0.00    +0.000 A 
ATOM      9  C   UNL     1       2.025   5.603  20.109  0.00  0.00    +0.000 A 
ATOM     10  C   UNL     1       1.690   6.933  20.437  0.00  0.00    +0.000 A 
ATOM     11  C   UNL     1       1.761   4.482  21.099  0.00  0.00    +0.000 C 
ATOM     12  C   UNL     1       1.461   3.161  20.386  0.00  0.00    +0.000 C 
ATOM     13  C   UNL     1       2.439   2.927  19.297  0.00  0.00    +0.000 A 
ATOM     14  N   UNL     1       2.855   1.783  18.810  0.00  0.00    +0.000 NA
ATOM     15  N   UNL     1       3.671   2.064  17.747  0.00  0.00    +0.000 NA
ATOM     16  C   UNL     1       3.738   3.374  17.597  0.00  0.00    +0.000 A 
ATOM     17  C   UNL     1       4.569   4.048  16.573  0.00  0.00    +0.000 C 
ATOM     18  N   UNL     1       2.966   3.975  18.574  0.00  0.00    +0.000 N 
ENDBRANCH   3   5
BRANCH   1  19
ATOM     19  C   UNL     1       0.461  11.478  19.498  0.00  0.00    +0.000 C 
BRANCH  19  26
ATOM     20  C   UNL     1       3.730  16.365  19.875  0.00  0.00    +0.000 C 
ATOM     21  C   UNL     1       2.252  16.136  20.051  0.00  0.00    +0.000 C 
ATOM     22  O   UNL     1       1.503  17.085  20.282  0.00  0.00    +0.000 OA
ATOM     23  N   UNL     1       1.794  14.841  19.901  0.00  0.00    +0.000 N 
ATOM     24  C   UNL     1       0.355  14.577  19.937  0.00  0.00    +0.000 C 
ATOM     25  C   UNL     1      -0.076  13.756  18.703  0.00  0.00    +0.000 C 
ATOM     26  N   UNL     1       0.700  12.507  18.458  0.00  0.00    +0.000 NA
ATOM     27  C   UNL     1       2.148  12.857  18.455  0.00  0.00    +0.000 C 
ATOM     28  C   UNL     1       2.629  13.657  19.687  0.00  0.00    +0.000 C 
ENDBRANCH  19  26
ENDBRANCH   1  19
TORSDOF 3
ENDMDL
MODEL 7
REMARK VINA RESULT:      -8.0      3.498      8.821
REMARK  Name = 
REMARK  5 active torsions:
REMARK  status: ('A' for Active; 'I' for Inactive)
REMARK    1  A    between atoms: C_1  and  C_2
REMARK    2  A    between atoms: N_7  and  C_8
REMARK    3  A    between atoms: C_8  and  C_9
REMARK    4  A    between atoms: N_11  and  C_12
REMARK    5  A    between atoms: C_23  and  C_24
REMARK                            x       y       z     vdW  Elec       q    Type
REMARK                         _______ _______ _______ _____ _____    ______ ____
ROOT
ATOM      1  C   UNL     1       0.986  10.309  20.633  0.00  0.00    +0.000 C 
ATOM      2  O   UNL     1       1.459  10.136  21.757  0.00  0.00    +0.000 OA
ATOM      3  N   UNL     1       1.081   9.427  19.570  0.00  0.00    +0.000 N 
ATOM      4  H   UNL     1       0.810   9.794  18.662  0.00  0.00    +0.000 HD
ENDROOT
BRANCH   3   5
ATOM      5  C   UNL     1       1.584   8.112  19.652  0.00  0.00    +0.000 A 
ATOM      6  C   UNL     1       1.143   7.222  20.633  0.00  0.00    +0.000 A 
ATOM      7  C   UNL     1       1.674   5.940  20.750  0.00  0.00    +0.000 A 
ATOM      8  C   UNL     1       2.671   5.525  19.878  0.00  0.00    +0.000 A 
ATOM      9  C   UNL     1       3.117   6.396  18.857  0.00  0.00    +0.000 A 
ATOM     10  C   UNL     1       2.539   7.675  18.729  0.00  0.00    +0.000 A 
ATOM     11  C   UNL     1       4.162   5.926  17.860  0.00  0.00    +0.000 C 
ATOM     12  C   UNL     1       5.165   4.967  18.505  0.00  0.00    +0.000 C 
ATOM     13  C   UNL     1       4.457   3.950  19.319  0.00  0.00    +0.000 A 
ATOM     14  N   UNL     1       4.834   2.725  19.598  0.00  0.00    +0.000 NA
ATOM     15  N   UNL     1       3.915   2.203  20.468  0.00  0.00    +0.000 NA
ATOM     16  C   UNL     1       2.993   3.115  20.711  0.00  0.00    +0.000 A 
ATOM     17  C   UNL     1       1.811   2.888  21.573  0.00  0.00    +0.000 C 
ATOM     18  N   UNL     1       3.294   4.257  19.990  0.00  0.00    +0.000 N 
ENDBRANCH   3   5
BRANCH   1  19
ATOM     19  C   UNL     1       0.298  11.631  20.322  0.00  0.00    +0.000 C 
BRANCH  19  26
ATOM     20  C   UNL     1       3.048  16.418  18.264  0.00  0.00    +0.000 C 
ATOM     21  C   UNL     1       1.598  16.156  18.575  0.00  0.00    +0.000 C 
ATOM     22  O   UNL     1       0.753  17.025  18.363  0.00  0.00    +0.000 OA
ATOM     23  N   UNL     1       1.276  14.903  19.063  0.00  0.00    +0.000 N 
ATOM     24  C   UNL     1      -0.128  14.549  19.266  0.00  0.00    +0.000 C 
ATOM     25  C   UNL     1      -0.454  13.209  18.574  0.00  0.00    +0.000 C 
ATOM     26  N   UNL     1       0.448  12.072  18.914  0.00  0.00    +0.000 NA
ATOM     27  C   UNL     1       1.853  12.519  18.699  0.00  0.00    +0.000 C 
ATOM     28  C   UNL     1       2.231  13.844  19.398  0.00  0.00    +0.000 C 
ENDBRANCH  19  26
ENDBRANCH   1  19
TORSDOF 3
ENDMDL
MODEL 8
REMARK VINA RESULT:      -8.0      2.493      8.966
REMARK  Name = 
REMARK  5 active torsions:
REMARK  status: ('A' for Active; 'I' for Inactive)
REMARK    1  A    between atoms: C_1  and  C_2
REMARK    2  A    between atoms: N_7  and  C_8
REMARK    3  A    between atoms: C_8  and  C_9
REMARK    4  A    between atoms: N_11  and  C_12
REMARK    5  A    between atoms: C_23  and  C_24
REMARK                            x       y       z     vdW  Elec       q    Type
REMARK                         _______ _______ _______ _____ _____    ______ ____
ROOT
ATOM      1  C   UNL     1       1.189  10.000  18.520  0.00  0.00    +0.000 C 
ATOM      2  O   UNL     1       0.598   9.593  17.519  0.00  0.00    +0.000 OA
ATOM      3  N   UNL     1       1.912   9.221  19.407  0.00  0.00    +0.000 N 
ATOM      4  H   UNL     1       2.175   9.670  20.279  0.00  0.00    +0.000 HD
ENDROOT
BRANCH   3   5
ATOM      5  C   UNL     1       2.234   7.862  19.213  0.00  0.00    +0.000 A 
ATOM      6  C   UNL     1       2.942   7.433  18.089  0.00  0.00    +0.000 A 
ATOM      7  C   UNL     1       3.216   6.086  17.868  0.00  0.00    +0.000 A 
ATOM      8  C   UNL     1       2.778   5.135  18.779  0.00  0.00    +0.000 A 
ATOM      9  C   UNL     1       2.084   5.544  19.941  0.00  0.00    +0.000 A 
ATOM     10  C   UNL     1       1.850   6.916  20.168  0.00  0.00    +0.000 A 
ATOM     11  C   UNL     1       1.656   4.515  20.973  0.00  0.00    +0.000 C 
ATOM     12  C   UNL     1       1.285   3.182  20.320  0.00  0.00    +0.000 C 
ATOM     13  C   UNL     1       2.306   2.796  19.317  0.00  0.00    +0.000 A 
ATOM     14  N   UNL     1       2.649   1.591  18.928  0.00  0.00    +0.000 NA
ATOM     15  N   UNL     1       3.554   1.732  17.910  0.00  0.00    +0.000 NA
ATOM     16  C   UNL     1       3.749   3.019  17.690  0.00  0.00    +0.000 A 
ATOM     17  C   UNL     1       4.702   3.553  16.690  0.00  0.00    +0.000 C 
ATOM     18  N   UNL     1       2.972   3.746  18.574  0.00  0.00    +0.000 N 
ENDBRANCH   3   5
BRANCH   1  19
ATOM     19  C   UNL     1       1.072  11.473  18.892  0.00  0.00    +0.000 C 
BRANCH  19  26
ATOM     20  C   UNL     1      -1.567  14.030  23.497  0.00  0.00    +0.000 C 
ATOM     21  C   UNL     1      -1.548  12.600  23.025  0.00  0.00    +0.000 C 
ATOM     22  O   UNL     1      -2.198  11.743  23.622  0.00  0.00    +0.000 OA
ATOM     23  N   UNL     1      -0.810  12.323  21.889  0.00  0.00    +0.000 N 
ATOM     24  C   UNL     1      -0.853  10.980  21.312  0.00  0.00    +0.000 C 
ATOM     25  C   UNL     1      -1.184  11.047  19.807  0.00  0.00    +0.000 C 
ATOM     26  N   UNL     1      -0.325  11.958  18.999  0.00  0.00    +0.000 NA
ATOM     27  C   UNL     1      -0.319  13.294  19.660  0.00  0.00    +0.000 C 
ATOM     28  C   UNL     1       0.036  13.275  21.164  0.00  0.00    +0.000 C 
ENDBRANCH  19  26
ENDBRANCH   1  19
TORSDOF 3
ENDMDL
MODEL 9
REMARK VINA RESULT:      -8.0      3.323      8.975
REMARK  Name = 
REMARK  5 active torsions:
REMARK  status: ('A' for Active; 'I' for Inactive)
REMARK    1  A    between atoms: C_1  and  C_2
REMARK    2  A    between atoms: N_7  and  C_8
REMARK    3  A    between atoms: C_8  and  C_9
REMARK    4  A    between atoms: N_11  and  C_12
REMARK    5  A    between atoms: C_23  and  C_24
REMARK                            x       y       z     vdW  Elec       q    Type
REMARK                         _______ _______ _______ _____ _____    ______ ____
ROOT
ATOM      1  C   UNL     1       0.771  10.428  21.058  0.00  0.00    +0.000 C 
ATOM      2  O   UNL     1       1.188  10.133  22.178  0.00  0.00    +0.000 OA
ATOM      3  N   UNL     1       0.947   9.683  19.905  0.00  0.00    +0.000 N 
ATOM      4  H   UNL     1       0.714  10.150  19.034  0.00  0.00    +0.000 HD
ENDROOT
BRANCH   3   5
ATOM      5  C   UNL     1       1.484   8.380  19.858  0.00  0.00    +0.000 A 
ATOM      6  C   UNL     1       1.194   7.436  20.845  0.00  0.00    +0.000 A 
ATOM      7  C   UNL     1       1.764   6.165  20.830  0.00  0.00    +0.000 A 
ATOM      8  C   UNL     1       2.646   5.816  19.817  0.00  0.00    +0.000 A 
ATOM      9  C   UNL     1       2.936   6.743  18.789  0.00  0.00    +0.000 A 
ATOM     10  C   UNL     1       2.319   8.011  18.799  0.00  0.00    +0.000 A 
ATOM     11  C   UNL     1       3.851   6.347  17.644  0.00  0.00    +0.000 C 
ATOM     12  C   UNL     1       4.950   5.387  18.106  0.00  0.00    +0.000 C 
ATOM     13  C   UNL     1       4.377   4.317  18.956  0.00  0.00    +0.000 A 
ATOM     14  N   UNL     1       4.813   3.092  19.125  0.00  0.00    +0.000 NA
ATOM     15  N   UNL     1       4.027   2.506  20.081  0.00  0.00    +0.000 NA
ATOM     16  C   UNL     1       3.125   3.381  20.485  0.00  0.00    +0.000 A 
ATOM     17  C   UNL     1       2.071   3.083  21.481  0.00  0.00    +0.000 C 
ATOM     18  N   UNL     1       3.305   4.562  19.787  0.00  0.00    +0.000 N 
ENDBRANCH   3   5
BRANCH   1  19
ATOM     19  C   UNL     1       0.060  11.762  20.868  0.00  0.00    +0.000 C 
BRANCH  19  26
ATOM     20  C   UNL     1       0.427  17.252  18.762  0.00  0.00    +0.000 C 
ATOM     21  C   UNL     1       1.349  16.069  18.632  0.00  0.00    +0.000 C 
ATOM     22  O   UNL     1       2.414  16.179  18.024  0.00  0.00    +0.000 OA
ATOM     23  N   UNL     1       0.960  14.897  19.252  0.00  0.00    +0.000 N 
ATOM     24  C   UNL     1       1.870  13.752  19.266  0.00  0.00    +0.000 C 
ATOM     25  C   UNL     1       2.049  13.220  20.703  0.00  0.00    +0.000 C 
ATOM     26  N   UNL     1       0.789  12.920  21.440  0.00  0.00    +0.000 NA
ATOM     27  C   UNL     1      -0.087  14.123  21.363  0.00  0.00    +0.000 C 
ATOM     28  C   UNL     1      -0.316  14.674  19.937  0.00  0.00    +0.000 C 
ENDBRANCH  19  26
ENDBRANCH   1  19
TORSDOF 3
ENDMDL
