MODEL 1
REMARK VINA RESULT:      -7.9      0.000      0.000
REMARK  Name = 
REMARK  5 active torsions:
REMARK  status: ('A' for Active; 'I' for Inactive)
REMARK    1  A    between atoms: C_1  and  C_2
REMARK    2  A    between atoms: C_2  and  C_3
REMARK    3  A    between atoms: C_3  and  C_4
REMARK    4  A    between atoms: C_16  and  C_17
REMARK    5  A    between atoms: C_17  and  C_19
REMARK                            x       y       z     vdW  Elec       q    Type
REMARK                         _______ _______ _______ _____ _____    ______ ____
ROOT
ATOM      1  C   UNL     1       5.564   4.355  18.268  0.00  0.00    +0.000 C 
ATOM      2  C   UNL     1       4.094   4.463  18.518  0.00  0.00    +0.000 A 
ATOM      3  C   UNL     1       3.545   5.306  17.563  0.00  0.00    +0.000 A 
ATOM      4  C   UNL     1       2.222   5.686  17.596  0.00  0.00    +0.000 A 
ATOM      5  C   UNL     1       1.416   5.170  18.613  0.00  0.00    +0.000 A 
ATOM      6  C   UNL     1       1.939   4.281  19.579  0.00  0.00    +0.000 A 
ATOM      7  C   UNL     1       1.124   3.752  20.595  0.00  0.00    +0.000 A 
ATOM      8  C   UNL     1       1.642   2.872  21.546  0.00  0.00    +0.000 A 
ATOM      9  C   UNL     1       2.981   2.502  21.497  0.00  0.00    +0.000 A 
ATOM     10  C   UNL     1       3.809   3.017  20.499  0.00  0.00    +0.000 A 
ATOM     11  C   UNL     1       3.307   3.912  19.535  0.00  0.00    +0.000 A 
ATOM     12  O   UNL     1       4.440   5.748  16.625  0.00  0.00    +0.000 OA
ATOM     13  C   UNL     1       5.627   4.954  16.843  0.00  0.00    +0.000 C 
ENDROOT
BRANCH  13  14
ATOM     14  C   UNL     1       5.784   3.870  15.759  0.00  0.00    +0.000 C 
ATOM     15  O   UNL     1       5.467   2.695  15.953  0.00  0.00    +0.000 OA
BRANCH  14  16
ATOM     16  C   UNL     1       6.416   4.220  14.448  0.00  0.00    +0.000 A 
ATOM     17  C   UNL     1       5.969   3.543  13.302  0.00  0.00    +0.000 A 
ATOM     18  C   UNL     1       6.506   3.835  12.047  0.00  0.00    +0.000 A 
ATOM     19  C   UNL     1       7.496   4.806  11.926  0.00  0.00    +0.000 A 
ATOM     20  C   UNL     1       7.963   5.469  13.059  0.00  0.00    +0.000 A 
ATOM     21  C   UNL     1       7.432   5.174  14.319  0.00  0.00    +0.000 A 
ENDBRANCH  14  16
ENDBRANCH  13  14
BRANCH   1  22
ATOM     22  C   UNL     1       6.415   5.121  19.301  0.00  0.00    +0.000 C 
BRANCH  22  24
ATOM     23  C   UNL     1       7.921   6.962  18.458  0.00  0.00    +0.000 C 
ATOM     24  C   UNL     1       7.833   5.496  18.855  0.00  0.00    +0.000 C 
ENDBRANCH  22  24
ENDBRANCH   1  22
TORSDOF 4
ENDMDL
MODEL 2
REMARK VINA RESULT:      -7.8      2.179      3.858
REMARK  Name = 
REMARK  5 active torsions:
REMARK  status: ('A' for Active; 'I' for Inactive)
REMARK    1  A    between atoms: C_1  and  C_2
REMARK    2  A    between atoms: C_2  and  C_3
REMARK    3  A    between atoms: C_3  and  C_4
REMARK    4  A    between atoms: C_16  and  C_17
REMARK    5  A    between atoms: C_17  and  C_19
REMARK                            x       y       z     vdW  Elec       q    Type
REMARK                         _______ _______ _______ _____ _____    ______ ____
ROOT
ATOM      1  C   UNL     1       4.118   5.685  17.504  0.00  0.00    +0.000 C 
ATOM      2  C   UNL     1       3.502   4.406  17.973  0.00  0.00    +0.000 A 
ATOM      3  C   UNL     1       3.575   3.478  16.945  0.00  0.00    +0.000 A 
ATOM      4  C   UNL     1       2.992   2.233  17.040  0.00  0.00    +0.000 A 
ATOM      5  C   UNL     1       2.340   1.903  18.230  0.00  0.00    +0.000 A 
ATOM      6  C   UNL     1       2.281   2.815  19.308  0.00  0.00    +0.000 A 
ATOM      7  C   UNL     1       1.635   2.477  20.510  0.00  0.00    +0.000 A 
ATOM      8  C   UNL     1       1.580   3.377  21.573  0.00  0.00    +0.000 A 
ATOM      9  C   UNL     1       2.172   4.630  21.457  0.00  0.00    +0.000 A 
ATOM     10  C   UNL     1       2.816   4.988  20.272  0.00  0.00    +0.000 A 
ATOM     11  C   UNL     1       2.875   4.095  19.185  0.00  0.00    +0.000 A 
ATOM     12  O   UNL     1       4.234   3.926  15.832  0.00  0.00    +0.000 OA
ATOM     13  C   UNL     1       4.845   5.170  16.239  0.00  0.00    +0.000 C 
ENDROOT
BRANCH  13  14
ATOM     14  C   UNL     1       6.361   5.005  16.462  0.00  0.00    +0.000 C 
ATOM     15  O   UNL     1       6.991   4.045  16.014  0.00  0.00    +0.000 OA
BRANCH  14  16
ATOM     16  C   UNL     1       7.095   5.992  17.315  0.00  0.00    +0.000 A 
ATOM     17  C   UNL     1       7.200   7.312  16.851  0.00  0.00    +0.000 A 
ATOM     18  C   UNL     1       7.858   8.283  17.608  0.00  0.00    +0.000 A 
ATOM     19  C   UNL     1       8.418   7.943  18.836  0.00  0.00    +0.000 A 
ATOM     20  C   UNL     1       8.338   6.631  19.298  0.00  0.00    +0.000 A 
ATOM     21  C   UNL     1       7.685   5.654  18.539  0.00  0.00    +0.000 A 
ENDBRANCH  14  16
ENDBRANCH  13  14
BRANCH   1  22
ATOM     22  C   UNL     1       3.082   6.790  17.218  0.00  0.00    +0.000 C 
BRANCH  22  24
ATOM     23  C   UNL     1       1.872   8.881  17.946  0.00  0.00    +0.000 C 
ATOM     24  C   UNL     1       3.038   7.945  18.226  0.00  0.00    +0.000 C 
ENDBRANCH  22  24
ENDBRANCH   1  22
TORSDOF 4
ENDMDL
MODEL 3
REMARK VINA RESULT:      -7.8      2.268      4.007
REMARK  Name = 
REMARK  5 active torsions:
REMARK  status: ('A' for Active; 'I' for Inactive)
REMARK    1  A    between atoms: C_1  and  C_2
REMARK    2  A    between atoms: C_2  and  C_3
REMARK    3  A    between atoms: C_3  and  C_4
REMARK    4  A    between atoms: C_16  and  C_17
REMARK    5  A    between atoms: C_17  and  C_19
REMARK                            x       y       z     vdW  Elec       q    Type
REMARK                         _______ _______ _______ _____ _____    ______ ____
ROOT
ATOM      1  C   UNL     1       4.279   5.881  17.565  0.00  0.00    +0.000 C 
ATOM      2  C   UNL     1       3.710   4.557  17.960  0.00  0.00    +0.000 A 
ATOM      3  C   UNL     1       3.922   3.658  16.925  0.00  0.00    +0.000 A 
ATOM      4  C   UNL     1       3.413   2.379  16.951  0.00  0.00    +0.000 A 
ATOM      5  C   UNL     1       2.692   1.982  18.079  0.00  0.00    +0.000 A 
ATOM      6  C   UNL     1       2.490   2.864  19.165  0.00  0.00    +0.000 A 
ATOM      7  C   UNL     1       1.773   2.459  20.304  0.00  0.00    +0.000 A 
ATOM      8  C   UNL     1       1.578   3.331  21.376  0.00  0.00    +0.000 A 
ATOM      9  C   UNL     1       2.097   4.619  21.330  0.00  0.00    +0.000 A 
ATOM     10  C   UNL     1       2.809   5.044  20.207  0.00  0.00    +0.000 A 
ATOM     11  C   UNL     1       3.010   4.181  19.112  0.00  0.00    +0.000 A 
ATOM     12  O   UNL     1       4.638   4.171  15.877  0.00  0.00    +0.000 OA
ATOM     13  C   UNL     1       5.135   5.441  16.353  0.00  0.00    +0.000 C 
ENDROOT
BRANCH  13  14
ATOM     14  C   UNL     1       6.636   5.364  16.694  0.00  0.00    +0.000 C 
ATOM     15  O   UNL     1       7.316   4.364  16.454  0.00  0.00    +0.000 OA
BRANCH  14  16
ATOM     16  C   UNL     1       7.290   6.501  17.415  0.00  0.00    +0.000 A 
ATOM     17  C   UNL     1       7.905   6.231  18.648  0.00  0.00    +0.000 A 
ATOM     18  C   UNL     1       8.547   7.244  19.362  0.00  0.00    +0.000 A 
ATOM     19  C   UNL     1       8.580   8.538  18.850  0.00  0.00    +0.000 A 
ATOM     20  C   UNL     1       7.955   8.823  17.637  0.00  0.00    +0.000 A 
ATOM     21  C   UNL     1       7.305   7.812  16.923  0.00  0.00    +0.000 A 
ENDBRANCH  14  16
ENDBRANCH  13  14
BRANCH   1  22
ATOM     22  C   UNL     1       3.202   6.927  17.216  0.00  0.00    +0.000 C 
BRANCH  22  24
ATOM     23  C   UNL     1       1.940   9.013  17.866  0.00  0.00    +0.000 C 
ATOM     24  C   UNL     1       2.734   7.819  18.372  0.00  0.00    +0.000 C 
ENDBRANCH  22  24
ENDBRANCH   1  22
TORSDOF 4
ENDMDL
MODEL 4
REMARK VINA RESULT:      -7.4      1.348      1.728
REMARK  Name = 
REMARK  5 active torsions:
REMARK  status: ('A' for Active; 'I' for Inactive)
REMARK    1  A    between atoms: C_1  and  C_2
REMARK    2  A    between atoms: C_2  and  C_3
REMARK    3  A    between atoms: C_3  and  C_4
REMARK    4  A    between atoms: C_16  and  C_17
REMARK    5  A    between atoms: C_17  and  C_19
REMARK                            x       y       z     vdW  Elec       q    Type
REMARK                         _______ _______ _______ _____ _____    ______ ____
ROOT
ATOM      1  C   UNL     1       5.679   4.952  18.135  0.00  0.00    +0.000 C 
ATOM      2  C   UNL     1       4.493   5.857  18.220  0.00  0.00    +0.000 A 
ATOM      3  C   UNL     1       4.579   6.794  17.201  0.00  0.00    +0.000 A 
ATOM      4  C   UNL     1       3.682   7.833  17.084  0.00  0.00    +0.000 A 
ATOM      5  C   UNL     1       2.641   7.908  18.012  0.00  0.00    +0.000 A 
ATOM      6  C   UNL     1       2.507   6.947  19.040  0.00  0.00    +0.000 A 
ATOM      7  C   UNL     1       1.452   7.018  19.966  0.00  0.00    +0.000 A 
ATOM      8  C   UNL     1       1.320   6.067  20.978  0.00  0.00    +0.000 A 
ATOM      9  C   UNL     1       2.237   5.027  21.080  0.00  0.00    +0.000 A 
ATOM     10  C   UNL     1       3.295   4.939  20.174  0.00  0.00    +0.000 A 
ATOM     11  C   UNL     1       3.448   5.894  19.150  0.00  0.00    +0.000 A 
ATOM     12  O   UNL     1       5.646   6.614  16.363  0.00  0.00    +0.000 OA
ATOM     13  C   UNL     1       6.182   5.320  16.718  0.00  0.00    +0.000 C 
ENDROOT
BRANCH  13  14
ATOM     14  C   UNL     1       5.813   4.252  15.671  0.00  0.00    +0.000 C 
ATOM     15  O   UNL     1       5.110   3.277  15.944  0.00  0.00    +0.000 OA
BRANCH  14  16
ATOM     16  C   UNL     1       6.383   4.340  14.290  0.00  0.00    +0.000 A 
ATOM     17  C   UNL     1       5.839   3.508  13.299  0.00  0.00    +0.000 A 
ATOM     18  C   UNL     1       6.316   3.554  11.988  0.00  0.00    +0.000 A 
ATOM     19  C   UNL     1       7.342   4.434  11.655  0.00  0.00    +0.000 A 
ATOM     20  C   UNL     1       7.904   5.250  12.634  0.00  0.00    +0.000 A 
ATOM     21  C   UNL     1       7.434   5.201  13.950  0.00  0.00    +0.000 A 
ENDBRANCH  14  16
ENDBRANCH  13  14
BRANCH   1  22
ATOM     22  C   UNL     1       6.718   5.203  19.246  0.00  0.00    +0.000 C 
BRANCH  22  24
ATOM     23  C   UNL     1       8.146   7.205  18.680  0.00  0.00    +0.000 C 
ATOM     24  C   UNL     1       8.096   5.688  18.778  0.00  0.00    +0.000 C 
ENDBRANCH  22  24
ENDBRANCH   1  22
TORSDOF 4
ENDMDL
MODEL 5
REMARK VINA RESULT:      -7.3      2.521      4.239
REMARK  Name = 
REMARK  5 active torsions:
REMARK  status: ('A' for Active; 'I' for Inactive)
REMARK    1  A    between atoms: C_1  and  C_2
REMARK    2  A    between atoms: C_2  and  C_3
REMARK    3  A    between atoms: C_3  and  C_4
REMARK    4  A    between atoms: C_16  and  C_17
REMARK    5  A    between atoms: C_17  and  C_19
REMARK                            x       y       z     vdW  Elec       q    Type
REMARK                         _______ _______ _______ _____ _____    ______ ____
ROOT
ATOM      1  C   UNL     1       4.320   6.120  17.757  0.00  0.00    +0.000 C 
ATOM      2  C   UNL     1       3.768   4.749  17.982  0.00  0.00    +0.000 A 
ATOM      3  C   UNL     1       4.269   3.905  17.002  0.00  0.00    +0.000 A 
ATOM      4  C   UNL     1       3.856   2.596  16.883  0.00  0.00    +0.000 A 
ATOM      5  C   UNL     1       2.929   2.114  17.808  0.00  0.00    +0.000 A 
ATOM      6  C   UNL     1       2.428   2.941  18.840  0.00  0.00    +0.000 A 
ATOM      7  C   UNL     1       1.503   2.450  19.778  0.00  0.00    +0.000 A 
ATOM      8  C   UNL     1       1.012   3.266  20.797  0.00  0.00    +0.000 A 
ATOM      9  C   UNL     1       1.439   4.585  20.899  0.00  0.00    +0.000 A 
ATOM     10  C   UNL     1       2.354   5.095  19.977  0.00  0.00    +0.000 A 
ATOM     11  C   UNL     1       2.855   4.288  18.937  0.00  0.00    +0.000 A 
ATOM     12  O   UNL     1       5.165   4.500  16.155  0.00  0.00    +0.000 OA
ATOM     13  C   UNL     1       5.454   5.779  16.761  0.00  0.00    +0.000 C 
ENDROOT
BRANCH  13  14
ATOM     14  C   UNL     1       6.842   5.782  17.431  0.00  0.00    +0.000 C 
ATOM     15  O   UNL     1       7.432   4.742  17.728  0.00  0.00    +0.000 OA
BRANCH  14  16
ATOM     16  C   UNL     1       7.475   7.083  17.816  0.00  0.00    +0.000 A 
ATOM     17  C   UNL     1       7.132   8.226  17.076  0.00  0.00    +0.000 A 
ATOM     18  C   UNL     1       7.675   9.471  17.395  0.00  0.00    +0.000 A 
ATOM     19  C   UNL     1       8.567   9.587  18.457  0.00  0.00    +0.000 A 
ATOM     20  C   UNL     1       8.931   8.456  19.186  0.00  0.00    +0.000 A 
ATOM     21  C   UNL     1       8.394   7.205  18.865  0.00  0.00    +0.000 A 
ENDBRANCH  14  16
ENDBRANCH  13  14
BRANCH   1  22
ATOM     22  C   UNL     1       3.280   7.110  17.196  0.00  0.00    +0.000 C 
BRANCH  22  24
ATOM     23  C   UNL     1       1.538   8.858  17.725  0.00  0.00    +0.000 C 
ATOM     24  C   UNL     1       2.876   8.258  18.129  0.00  0.00    +0.000 C 
ENDBRANCH  22  24
ENDBRANCH   1  22
TORSDOF 4
ENDMDL
MODEL 6
REMARK VINA RESULT:      -7.1      1.636      1.833
REMARK  Name = 
REMARK  5 active torsions:
REMARK  status: ('A' for Active; 'I' for Inactive)
REMARK    1  A    between atoms: C_1  and  C_2
REMARK    2  A    between atoms: C_2  and  C_3
REMARK    3  A    between atoms: C_3  and  C_4
REMARK    4  A    between atoms: C_16  and  C_17
REMARK    5  A    between atoms: C_17  and  C_19
REMARK                            x       y       z     vdW  Elec       q    Type
REMARK                         _______ _______ _______ _____ _____    ______ ____
ROOT
ATOM      1  C   UNL     1       5.393   4.699  17.119  0.00  0.00    +0.000 C 
ATOM      2  C   UNL     1       4.115   4.985  17.838  0.00  0.00    +0.000 A 
ATOM      3  C   UNL     1       4.003   6.357  18.010  0.00  0.00    +0.000 A 
ATOM      4  C   UNL     1       2.978   6.922  18.736  0.00  0.00    +0.000 A 
ATOM      5  C   UNL     1       2.014   6.072  19.281  0.00  0.00    +0.000 A 
ATOM      6  C   UNL     1       2.082   4.673  19.093  0.00  0.00    +0.000 A 
ATOM      7  C   UNL     1       1.104   3.820  19.632  0.00  0.00    +0.000 A 
ATOM      8  C   UNL     1       1.172   2.440  19.442  0.00  0.00    +0.000 A 
ATOM      9  C   UNL     1       2.216   1.888  18.708  0.00  0.00    +0.000 A 
ATOM     10  C   UNL     1       3.200   2.716  18.166  0.00  0.00    +0.000 A 
ATOM     11  C   UNL     1       3.152   4.111  18.353  0.00  0.00    +0.000 A 
ATOM     12  O   UNL     1       5.013   7.078  17.433  0.00  0.00    +0.000 OA
ATOM     13  C   UNL     1       5.732   6.124  16.620  0.00  0.00    +0.000 C 
ENDROOT
BRANCH  13  14
ATOM     14  C   UNL     1       5.415   6.311  15.123  0.00  0.00    +0.000 C 
ATOM     15  O   UNL     1       4.712   7.234  14.709  0.00  0.00    +0.000 OA
BRANCH  14  16
ATOM     16  C   UNL     1       5.902   5.300  14.132  0.00  0.00    +0.000 A 
ATOM     17  C   UNL     1       5.004   4.305  13.714  0.00  0.00    +0.000 A 
ATOM     18  C   UNL     1       5.392   3.343  12.779  0.00  0.00    +0.000 A 
ATOM     19  C   UNL     1       6.681   3.367  12.254  0.00  0.00    +0.000 A 
ATOM     20  C   UNL     1       7.587   4.338  12.677  0.00  0.00    +0.000 A 
ATOM     21  C   UNL     1       7.204   5.298  13.619  0.00  0.00    +0.000 A 
ENDBRANCH  14  16
ENDBRANCH  13  14
BRANCH   1  22
ATOM     22  C   UNL     1       6.479   4.086  18.026  0.00  0.00    +0.000 C 
BRANCH  22  24
ATOM     23  C   UNL     1       7.830   5.735  19.376  0.00  0.00    +0.000 C 
ATOM     24  C   UNL     1       7.792   4.871  18.124  0.00  0.00    +0.000 C 
ENDBRANCH  22  24
ENDBRANCH   1  22
TORSDOF 4
ENDMDL
MODEL 7
REMARK VINA RESULT:      -7.1      2.176      6.164
REMARK  Name = 
REMARK  5 active torsions:
REMARK  status: ('A' for Active; 'I' for Inactive)
REMARK    1  A    between atoms: C_1  and  C_2
REMARK    2  A    between atoms: C_2  and  C_3
REMARK    3  A    between atoms: C_3  and  C_4
REMARK    4  A    between atoms: C_16  and  C_17
REMARK    5  A    between atoms: C_17  and  C_19
REMARK                            x       y       z     vdW  Elec       q    Type
REMARK                         _______ _______ _______ _____ _____    ______ ____
ROOT
ATOM      1  C   UNL     1       3.328   6.366  17.911  0.00  0.00    +0.000 C 
ATOM      2  C   UNL     1       4.726   5.852  17.788  0.00  0.00    +0.000 A 
ATOM      3  C   UNL     1       5.284   5.784  19.056  0.00  0.00    +0.000 A 
ATOM      4  C   UNL     1       6.604   5.445  19.258  0.00  0.00    +0.000 A 
ATOM      5  C   UNL     1       7.379   5.134  18.140  0.00  0.00    +0.000 A 
ATOM      6  C   UNL     1       6.829   5.160  16.838  0.00  0.00    +0.000 A 
ATOM      7  C   UNL     1       7.608   4.834  15.714  0.00  0.00    +0.000 A 
ATOM      8  C   UNL     1       7.062   4.858  14.431  0.00  0.00    +0.000 A 
ATOM      9  C   UNL     1       5.728   5.204  14.248  0.00  0.00    +0.000 A 
ATOM     10  C   UNL     1       4.937   5.534  15.349  0.00  0.00    +0.000 A 
ATOM     11  C   UNL     1       5.472   5.523  16.651  0.00  0.00    +0.000 A 
ATOM     12  O   UNL     1       4.422   6.119  20.066  0.00  0.00    +0.000 OA
ATOM     13  C   UNL     1       3.124   6.196  19.435  0.00  0.00    +0.000 C 
ENDROOT
BRANCH  13  14
ATOM     14  C   UNL     1       2.260   4.966  19.776  0.00  0.00    +0.000 C 
ATOM     15  O   UNL     1       1.245   5.047  20.471  0.00  0.00    +0.000 OA
BRANCH  14  16
ATOM     16  C   UNL     1       2.695   3.607  19.324  0.00  0.00    +0.000 A 
ATOM     17  C   UNL     1       2.130   3.095  18.146  0.00  0.00    +0.000 A 
ATOM     18  C   UNL     1       2.505   1.840  17.662  0.00  0.00    +0.000 A 
ATOM     19  C   UNL     1       3.450   1.086  18.352  0.00  0.00    +0.000 A 
ATOM     20  C   UNL     1       4.003   1.576  19.534  0.00  0.00    +0.000 A 
ATOM     21  C   UNL     1       3.623   2.829  20.025  0.00  0.00    +0.000 A 
ENDBRANCH  14  16
ENDBRANCH  13  14
BRANCH   1  22
ATOM     22  C   UNL     1       3.169   7.820  17.422  0.00  0.00    +0.000 C 
BRANCH  22  24
ATOM     23  C   UNL     1       2.026   9.995  17.996  0.00  0.00    +0.000 C 
ATOM     24  C   UNL     1       1.840   8.502  17.772  0.00  0.00    +0.000 C 
ENDBRANCH  22  24
ENDBRANCH   1  22
TORSDOF 4
ENDMDL
MODEL 8
REMARK VINA RESULT:      -7.0      6.294      8.615
REMARK  Name = 
REMARK  5 active torsions:
REMARK  status: ('A' for Active; 'I' for Inactive)
REMARK    1  A    between atoms: C_1  and  C_2
REMARK    2  A    between atoms: C_2  and  C_3
REMARK    3  A    between atoms: C_3  and  C_4
REMARK    4  A    between atoms: C_16  and  C_17
REMARK    5  A    between atoms: C_17  and  C_19
REMARK                            x       y       z     vdW  Elec       q    Type
REMARK                         _______ _______ _______ _____ _____    ______ ____
ROOT
ATOM      1  C   UNL     1       0.345  11.222  19.419  0.00  0.00    +0.000 C 
ATOM      2  C   UNL     1      -1.023  11.023  18.853  0.00  0.00    +0.000 A 
ATOM      3  C   UNL     1      -0.936  10.138  17.788  0.00  0.00    +0.000 A 
ATOM      4  C   UNL     1      -2.022   9.839  16.995  0.00  0.00    +0.000 A 
ATOM      5  C   UNL     1      -3.247  10.430  17.309  0.00  0.00    +0.000 A 
ATOM      6  C   UNL     1      -3.374  11.308  18.410  0.00  0.00    +0.000 A 
ATOM      7  C   UNL     1      -4.611  11.893  18.732  0.00  0.00    +0.000 A 
ATOM      8  C   UNL     1      -4.735  12.756  19.820  0.00  0.00    +0.000 A 
ATOM      9  C   UNL     1      -3.627  13.047  20.608  0.00  0.00    +0.000 A 
ATOM     10  C   UNL     1      -2.388  12.481  20.305  0.00  0.00    +0.000 A 
ATOM     11  C   UNL     1      -2.242  11.612  19.206  0.00  0.00    +0.000 A 
ATOM     12  O   UNL     1       0.319   9.633  17.582  0.00  0.00    +0.000 OA
ATOM     13  C   UNL     1       1.078  10.039  18.742  0.00  0.00    +0.000 C 
ENDROOT
BRANCH  13  14
ATOM     14  C   UNL     1       1.302   8.859  19.708  0.00  0.00    +0.000 C 
ATOM     15  O   UNL     1       0.868   8.861  20.861  0.00  0.00    +0.000 OA
BRANCH  14  16
ATOM     16  C   UNL     1       2.141   7.697  19.276  0.00  0.00    +0.000 A 
ATOM     17  C   UNL     1       2.151   6.555  20.091  0.00  0.00    +0.000 A 
ATOM     18  C   UNL     1       2.900   5.432  19.736  0.00  0.00    +0.000 A 
ATOM     19  C   UNL     1       3.646   5.440  18.561  0.00  0.00    +0.000 A 
ATOM     20  C   UNL     1       3.660   6.576  17.753  0.00  0.00    +0.000 A 
ATOM     21  C   UNL     1       2.916   7.706  18.110  0.00  0.00    +0.000 A 
ENDBRANCH  14  16
ENDBRANCH  13  14
BRANCH   1  22
ATOM     22  C   UNL     1       0.949  12.600  19.082  0.00  0.00    +0.000 C 
BRANCH  22  24
ATOM     23  C   UNL     1       2.896  13.955  18.222  0.00  0.00    +0.000 C 
ATOM     24  C   UNL     1       2.245  12.581  18.262  0.00  0.00    +0.000 C 
ENDBRANCH  22  24
ENDBRANCH   1  22
TORSDOF 4
ENDMDL
MODEL 9
REMARK VINA RESULT:      -7.0      8.680     12.301
REMARK  Name = 
REMARK  5 active torsions:
REMARK  status: ('A' for Active; 'I' for Inactive)
REMARK    1  A    between atoms: C_1  and  C_2
REMARK    2  A    between atoms: C_2  and  C_3
REMARK    3  A    between atoms: C_3  and  C_4
REMARK    4  A    between atoms: C_16  and  C_17
REMARK    5  A    between atoms: C_17  and  C_19
REMARK                            x       y       z     vdW  Elec       q    Type
REMARK                         _______ _______ _______ _____ _____    ______ ____
ROOT
ATOM      1  C   UNL     1      -1.151  12.844  20.227  0.00  0.00    +0.000 C 
ATOM      2  C   UNL     1      -1.052  11.669  19.310  0.00  0.00    +0.000 A 
ATOM      3  C   UNL     1       0.136  11.003  19.573  0.00  0.00    +0.000 A 
ATOM      4  C   UNL     1       0.560   9.935  18.813  0.00  0.00    +0.000 A 
ATOM      5  C   UNL     1      -0.262   9.504  17.770  0.00  0.00    +0.000 A 
ATOM      6  C   UNL     1      -1.495  10.140  17.501  0.00  0.00    +0.000 A 
ATOM      7  C   UNL     1      -2.328   9.697  16.458  0.00  0.00    +0.000 A 
ATOM      8  C   UNL     1      -3.545  10.325  16.197  0.00  0.00    +0.000 A 
ATOM      9  C   UNL     1      -3.955  11.402  16.974  0.00  0.00    +0.000 A 
ATOM     10  C   UNL     1      -3.143  11.861  18.012  0.00  0.00    +0.000 A 
ATOM     11  C   UNL     1      -1.907  11.245  18.286  0.00  0.00    +0.000 A 
ATOM     12  O   UNL     1       0.853  11.526  20.615  0.00  0.00    +0.000 OA
ATOM     13  C   UNL     1      -0.040  12.475  21.240  0.00  0.00    +0.000 C 
ENDROOT
BRANCH  13  14
ATOM     14  C   UNL     1      -0.613  11.923  22.559  0.00  0.00    +0.000 C 
ATOM     15  O   UNL     1      -0.247  10.847  23.037  0.00  0.00    +0.000 OA
BRANCH  14  16
ATOM     16  C   UNL     1      -1.708  12.665  23.259  0.00  0.00    +0.000 A 
ATOM     17  C   UNL     1      -1.413  13.934  23.782  0.00  0.00    +0.000 A 
ATOM     18  C   UNL     1      -2.395  14.683  24.431  0.00  0.00    +0.000 A 
ATOM     19  C   UNL     1      -3.683  14.172  24.564  0.00  0.00    +0.000 A 
ATOM     20  C   UNL     1      -3.983  12.905  24.067  0.00  0.00    +0.000 A 
ATOM     21  C   UNL     1      -2.999  12.148  23.422  0.00  0.00    +0.000 A 
ENDBRANCH  14  16
ENDBRANCH  13  14
BRANCH   1  22
ATOM     22  C   UNL     1      -0.918  14.192  19.516  0.00  0.00    +0.000 C 
BRANCH  22  24
ATOM     23  C   UNL     1      -2.623  15.572  20.763  0.00  0.00    +0.000 C 
ATOM     24  C   UNL     1      -1.161  15.448  20.363  0.00  0.00    +0.000 C 
ENDBRANCH  22  24
ENDBRANCH   1  22
TORSDOF 4
ENDMDL
