MODEL 1
REMARK VINA RESULT:      -6.5      0.000      0.000
REMARK  Name = 
REMARK  2 active torsions:
REMARK  status: ('A' for Active; 'I' for Inactive)
REMARK    1  A    between atoms: N_1  and  C_2
REMARK    2  A    between atoms: C_9  and  O_10
REMARK                            x       y       z     vdW  Elec       q    Type
REMARK                         _______ _______ _______ _____ _____    ______ ____
ROOT
ATOM      1  C   UNL     1       3.653   2.865  19.755  0.00  0.00    +0.000 C 
ATOM      2  C   UNL     1       2.738   2.724  21.001  0.00  0.00    +0.000 C 
ATOM      3  C   UNL     1       1.404   3.457  20.751  0.00  0.00    +0.000 C 
ATOM      4  C   UNL     1       0.697   2.840  19.525  0.00  0.00    +0.000 C 
ATOM      5  C   UNL     1       1.599   2.983  18.278  0.00  0.00    +0.000 C 
ATOM      6  C   UNL     1       2.937   2.251  18.524  0.00  0.00    +0.000 C 
ATOM      7  C   UNL     1       1.875   4.479  18.008  0.00  0.00    +0.000 C 
ATOM      8  C   UNL     1       2.581   5.110  19.236  0.00  0.00    +0.000 C 
ATOM      9  C   UNL     1       1.681   4.955  20.490  0.00  0.00    +0.000 C 
ATOM     10  C   UNL     1       3.918   4.369  19.483  0.00  0.00    +0.000 C 
ENDROOT
BRANCH   1  11
ATOM     11  N   UNL     1       4.927   2.174  19.980  0.00  0.00    +0.000 NA
ATOM     12  H   UNL     1       5.564   2.318  19.163  0.00  0.00    +0.000 HD
ATOM     13  H   UNL     1       4.765   1.147  20.089  0.00  0.00    +0.000 HD
ENDBRANCH   1  11
BRANCH   8  14
ATOM     14  O   UNL     1       2.857   6.469  18.999  0.00  0.00    +0.000 OA
ATOM     15  H   UNL     1       3.757   6.664  19.375  0.00  0.00    +0.000 HD
ENDBRANCH   8  14
TORSDOF 2
ENDMDL
MODEL 2
REMARK VINA RESULT:      -6.4      1.515      2.725
REMARK  Name = 
REMARK  2 active torsions:
REMARK  status: ('A' for Active; 'I' for Inactive)
REMARK    1  A    between atoms: N_1  and  C_2
REMARK    2  A    between atoms: C_9  and  O_10
REMARK                            x       y       z     vdW  Elec       q    Type
REMARK                         _______ _______ _______ _____ _____    ______ ____
ROOT
ATOM      1  C   UNL     1       3.868   3.252  19.351  0.00  0.00    +0.000 C 
ATOM      2  C   UNL     1       3.266   2.695  18.033  0.00  0.00    +0.000 C 
ATOM      3  C   UNL     1       1.803   3.167  17.891  0.00  0.00    +0.000 C 
ATOM      4  C   UNL     1       1.759   4.711  17.862  0.00  0.00    +0.000 C 
ATOM      5  C   UNL     1       2.352   5.272  19.174  0.00  0.00    +0.000 C 
ATOM      6  C   UNL     1       3.816   4.802  19.321  0.00  0.00    +0.000 C 
ATOM      7  C   UNL     1       1.525   4.761  20.375  0.00  0.00    +0.000 C 
ATOM      8  C   UNL     1       1.559   3.212  20.411  0.00  0.00    +0.000 C 
ATOM      9  C   UNL     1       0.976   2.648  19.088  0.00  0.00    +0.000 C 
ATOM     10  C   UNL     1       3.028   2.744  20.552  0.00  0.00    +0.000 C 
ENDROOT
BRANCH   1  11
ATOM     11  N   UNL     1       5.258   2.809  19.501  0.00  0.00    +0.000 NA
ATOM     12  H   UNL     1       5.291   1.776  19.667  0.00  0.00    +0.000 HD
ATOM     13  H   UNL     1       5.702   3.285  20.319  0.00  0.00    +0.000 HD
ENDBRANCH   1  11
BRANCH   8  14
ATOM     14  O   UNL     1       0.826   2.730  21.511  0.00  0.00    +0.000 OA
ATOM     15  H   UNL     1       1.065   1.773  21.637  0.00  0.00    +0.000 HD
ENDBRANCH   8  14
TORSDOF 2
ENDMDL
MODEL 3
REMARK VINA RESULT:      -6.4      1.488      2.589
REMARK  Name = 
REMARK  2 active torsions:
REMARK  status: ('A' for Active; 'I' for Inactive)
REMARK    1  A    between atoms: N_1  and  C_2
REMARK    2  A    between atoms: C_9  and  O_10
REMARK                            x       y       z     vdW  Elec       q    Type
REMARK                         _______ _______ _______ _____ _____    ______ ____
ROOT
ATOM      1  C   UNL     1       4.027   2.459  19.607  0.00  0.00    +0.000 C 
ATOM      2  C   UNL     1       3.572   1.546  18.437  0.00  0.00    +0.000 C 
ATOM      3  C   UNL     1       2.399   2.211  17.686  0.00  0.00    +0.000 C 
ATOM      4  C   UNL     1       2.854   3.575  17.123  0.00  0.00    +0.000 C 
ATOM      5  C   UNL     1       3.302   4.493  18.283  0.00  0.00    +0.000 C 
ATOM      6  C   UNL     1       4.476   3.831  19.038  0.00  0.00    +0.000 C 
ATOM      7  C   UNL     1       2.123   4.710  19.256  0.00  0.00    +0.000 C 
ATOM      8  C   UNL     1       1.656   3.346  19.824  0.00  0.00    +0.000 C 
ATOM      9  C   UNL     1       1.217   2.420  18.659  0.00  0.00    +0.000 C 
ATOM     10  C   UNL     1       2.836   2.683  20.575  0.00  0.00    +0.000 C 
ENDROOT
BRANCH   1  11
ATOM     11  N   UNL     1       5.141   1.838  20.332  0.00  0.00    +0.000 NA
ATOM     12  H   UNL     1       5.054   0.796  20.301  0.00  0.00    +0.000 HD
ATOM     13  H   UNL     1       5.129   2.137  21.334  0.00  0.00    +0.000 HD
ENDBRANCH   1  11
BRANCH   8  14
ATOM     14  O   UNL     1       0.593   3.527  20.729  0.00  0.00    +0.000 OA
ATOM     15  H   UNL     1       0.815   4.309  21.302  0.00  0.00    +0.000 HD
ENDBRANCH   8  14
TORSDOF 2
ENDMDL
MODEL 4
REMARK VINA RESULT:      -6.4      1.990      3.218
REMARK  Name = 
REMARK  2 active torsions:
REMARK  status: ('A' for Active; 'I' for Inactive)
REMARK    1  A    between atoms: N_1  and  C_2
REMARK    2  A    between atoms: C_9  and  O_10
REMARK                            x       y       z     vdW  Elec       q    Type
REMARK                         _______ _______ _______ _____ _____    ______ ____
ROOT
ATOM      1  C   UNL     1       2.633   5.071  19.131  0.00  0.00    +0.000 C 
ATOM      2  C   UNL     1       1.905   4.411  17.930  0.00  0.00    +0.000 C 
ATOM      3  C   UNL     1       1.637   2.923  18.238  0.00  0.00    +0.000 C 
ATOM      4  C   UNL     1       0.753   2.807  19.499  0.00  0.00    +0.000 C 
ATOM      5  C   UNL     1       1.474   3.456  20.702  0.00  0.00    +0.000 C 
ATOM      6  C   UNL     1       1.744   4.946  20.397  0.00  0.00    +0.000 C 
ATOM      7  C   UNL     1       2.816   2.732  20.952  0.00  0.00    +0.000 C 
ATOM      8  C   UNL     1       3.710   2.839  19.691  0.00  0.00    +0.000 C 
ATOM      9  C   UNL     1       2.981   2.198  18.480  0.00  0.00    +0.000 C 
ATOM     10  C   UNL     1       3.973   4.333  19.385  0.00  0.00    +0.000 C 
ENDROOT
BRANCH   1  11
ATOM     11  N   UNL     1       2.895   6.486  18.851  0.00  0.00    +0.000 NA
ATOM     12  H   UNL     1       2.024   6.952  18.504  0.00  0.00    +0.000 HD
ATOM     13  H   UNL     1       3.629   6.577  18.112  0.00  0.00    +0.000 HD
ENDBRANCH   1  11
BRANCH   8  14
ATOM     14  O   UNL     1       4.946   2.201  19.909  0.00  0.00    +0.000 OA
ATOM     15  H   UNL     1       5.495   2.317  19.089  0.00  0.00    +0.000 HD
ENDBRANCH   8  14
TORSDOF 2
ENDMDL
MODEL 5
REMARK VINA RESULT:      -6.4      1.894      2.762
REMARK  Name = 
REMARK  2 active torsions:
REMARK  status: ('A' for Active; 'I' for Inactive)
REMARK    1  A    between atoms: N_1  and  C_2
REMARK    2  A    between atoms: C_9  and  O_10
REMARK                            x       y       z     vdW  Elec       q    Type
REMARK                         _______ _______ _______ _____ _____    ______ ____
ROOT
ATOM      1  C   UNL     1       1.757   3.535  20.125  0.00  0.00    +0.000 C 
ATOM      2  C   UNL     1       1.809   5.055  20.434  0.00  0.00    +0.000 C 
ATOM      3  C   UNL     1       2.713   5.765  19.405  0.00  0.00    +0.000 C 
ATOM      4  C   UNL     1       2.146   5.550  17.984  0.00  0.00    +0.000 C 
ATOM      5  C   UNL     1       2.098   4.039  17.666  0.00  0.00    +0.000 C 
ATOM      6  C   UNL     1       1.194   3.325  18.695  0.00  0.00    +0.000 C 
ATOM      7  C   UNL     1       3.524   3.449  17.740  0.00  0.00    +0.000 C 
ATOM      8  C   UNL     1       4.105   3.663  19.161  0.00  0.00    +0.000 C 
ATOM      9  C   UNL     1       4.141   5.180  19.485  0.00  0.00    +0.000 C 
ATOM     10  C   UNL     1       3.193   2.951  20.189  0.00  0.00    +0.000 C 
ENDROOT
BRANCH   1  11
ATOM     11  N   UNL     1       0.902   2.848  21.098  0.00  0.00    +0.000 NA
ATOM     12  H   UNL     1       0.394   2.058  20.636  0.00  0.00    +0.000 HD
ATOM     13  H   UNL     1       0.192   3.510  21.485  0.00  0.00    +0.000 HD
ENDBRANCH   1  11
BRANCH   8  14
ATOM     14  O   UNL     1       5.398   3.114  19.251  0.00  0.00    +0.000 OA
ATOM     15  H   UNL     1       6.047   3.831  19.020  0.00  0.00    +0.000 HD
ENDBRANCH   8  14
TORSDOF 2
ENDMDL
MODEL 6
REMARK VINA RESULT:      -6.3      2.236      3.263
REMARK  Name = 
REMARK  2 active torsions:
REMARK  status: ('A' for Active; 'I' for Inactive)
REMARK    1  A    between atoms: N_1  and  C_2
REMARK    2  A    between atoms: C_9  and  O_10
REMARK                            x       y       z     vdW  Elec       q    Type
REMARK                         _______ _______ _______ _____ _____    ______ ____
ROOT
ATOM      1  C   UNL     1       1.797   3.373  19.786  0.00  0.00    +0.000 C 
ATOM      2  C   UNL     1       2.305   4.721  19.209  0.00  0.00    +0.000 C 
ATOM      3  C   UNL     1       3.475   4.463  18.236  0.00  0.00    +0.000 C 
ATOM      4  C   UNL     1       2.994   3.559  17.079  0.00  0.00    +0.000 C 
ATOM      5  C   UNL     1       2.493   2.211  17.646  0.00  0.00    +0.000 C 
ATOM      6  C   UNL     1       1.322   2.466  18.621  0.00  0.00    +0.000 C 
ATOM      7  C   UNL     1       3.644   1.507  18.399  0.00  0.00    +0.000 C 
ATOM      8  C   UNL     1       4.137   2.408  19.560  0.00  0.00    +0.000 C 
ATOM      9  C   UNL     1       4.628   3.766  18.993  0.00  0.00    +0.000 C 
ATOM     10  C   UNL     1       2.959   2.666  20.531  0.00  0.00    +0.000 C 
ENDROOT
BRANCH   1  11
ATOM     11  N   UNL     1       0.686   3.604  20.714  0.00  0.00    +0.000 NA
ATOM     12  H   UNL     1       1.004   3.459  21.700  0.00  0.00    +0.000 HD
ATOM     13  H   UNL     1      -0.091   2.932  20.520  0.00  0.00    +0.000 HD
ENDBRANCH   1  11
BRANCH   8  14
ATOM     14  O   UNL     1       5.173   1.773  20.269  0.00  0.00    +0.000 OA
ATOM     15  H   UNL     1       5.887   1.540  19.617  0.00  0.00    +0.000 HD
ENDBRANCH   8  14
TORSDOF 2
ENDMDL
MODEL 7
REMARK VINA RESULT:      -6.3      1.627      2.850
REMARK  Name = 
REMARK  2 active torsions:
REMARK  status: ('A' for Active; 'I' for Inactive)
REMARK    1  A    between atoms: N_1  and  C_2
REMARK    2  A    between atoms: C_9  and  O_10
REMARK                            x       y       z     vdW  Elec       q    Type
REMARK                         _______ _______ _______ _____ _____    ______ ____
ROOT
ATOM      1  C   UNL     1       3.634   2.689  19.761  0.00  0.00    +0.000 C 
ATOM      2  C   UNL     1       3.888   4.020  19.005  0.00  0.00    +0.000 C 
ATOM      3  C   UNL     1       2.575   4.827  18.917  0.00  0.00    +0.000 C 
ATOM      4  C   UNL     1       2.063   5.136  20.341  0.00  0.00    +0.000 C 
ATOM      5  C   UNL     1       1.802   3.815  21.098  0.00  0.00    +0.000 C 
ATOM      6  C   UNL     1       3.114   3.004  21.187  0.00  0.00    +0.000 C 
ATOM      7  C   UNL     1       0.738   2.988  20.342  0.00  0.00    +0.000 C 
ATOM      8  C   UNL     1       1.240   2.675  18.910  0.00  0.00    +0.000 C 
ATOM      9  C   UNL     1       1.515   4.002  18.153  0.00  0.00    +0.000 C 
ATOM     10  C   UNL     1       2.558   1.868  19.004  0.00  0.00    +0.000 C 
ENDROOT
BRANCH   1  11
ATOM     11  N   UNL     1       4.874   1.911  19.849  0.00  0.00    +0.000 NA
ATOM     12  H   UNL     1       5.599   2.315  19.212  0.00  0.00    +0.000 HD
ATOM     13  H   UNL     1       4.700   0.922  19.559  0.00  0.00    +0.000 HD
ENDBRANCH   1  11
BRANCH   8  14
ATOM     14  O   UNL     1       0.290   1.905  18.213  0.00  0.00    +0.000 OA
ATOM     15  H   UNL     1       0.742   1.511  17.420  0.00  0.00    +0.000 HD
ENDBRANCH   8  14
TORSDOF 2
ENDMDL
MODEL 8
REMARK VINA RESULT:      -6.1      1.588      2.467
REMARK  Name = 
REMARK  2 active torsions:
REMARK  status: ('A' for Active; 'I' for Inactive)
REMARK    1  A    between atoms: N_1  and  C_2
REMARK    2  A    between atoms: C_9  and  O_10
REMARK                            x       y       z     vdW  Elec       q    Type
REMARK                         _______ _______ _______ _____ _____    ______ ____
ROOT
ATOM      1  C   UNL     1       3.407   2.228  18.745  0.00  0.00    +0.000 C 
ATOM      2  C   UNL     1       2.009   2.126  18.078  0.00  0.00    +0.000 C 
ATOM      3  C   UNL     1       1.176   3.378  18.423  0.00  0.00    +0.000 C 
ATOM      4  C   UNL     1       1.899   4.640  17.905  0.00  0.00    +0.000 C 
ATOM      5  C   UNL     1       3.290   4.752  18.570  0.00  0.00    +0.000 C 
ATOM      6  C   UNL     1       4.127   3.500  18.226  0.00  0.00    +0.000 C 
ATOM      7  C   UNL     1       3.123   4.854  20.102  0.00  0.00    +0.000 C 
ATOM      8  C   UNL     1       2.394   3.593  20.633  0.00  0.00    +0.000 C 
ATOM      9  C   UNL     1       1.003   3.473  19.956  0.00  0.00    +0.000 C 
ATOM     10  C   UNL     1       3.233   2.341  20.281  0.00  0.00    +0.000 C 
ENDROOT
BRANCH   1  11
ATOM     11  N   UNL     1       4.209   1.043  18.426  0.00  0.00    +0.000 NA
ATOM     12  H   UNL     1       3.741   0.182  18.791  0.00  0.00    +0.000 HD
ATOM     13  H   UNL     1       5.152   1.115  18.872  0.00  0.00    +0.000 HD
ENDBRANCH   1  11
BRANCH   8  14
ATOM     14  O   UNL     1       2.251   3.661  22.032  0.00  0.00    +0.000 OA
ATOM     15  H   UNL     1       2.458   4.592  22.312  0.00  0.00    +0.000 HD
ENDBRANCH   8  14
TORSDOF 2
ENDMDL
MODEL 9
REMARK VINA RESULT:      -6.1      2.077      2.929
REMARK  Name = 
REMARK  2 active torsions:
REMARK  status: ('A' for Active; 'I' for Inactive)
REMARK    1  A    between atoms: N_1  and  C_2
REMARK    2  A    between atoms: C_9  and  O_10
REMARK                            x       y       z     vdW  Elec       q    Type
REMARK                         _______ _______ _______ _____ _____    ______ ____
ROOT
ATOM      1  C   UNL     1       1.302   2.639  18.924  0.00  0.00    +0.000 C 
ATOM      2  C   UNL     1       0.821   2.882  20.379  0.00  0.00    +0.000 C 
ATOM      3  C   UNL     1       1.850   3.754  21.129  0.00  0.00    +0.000 C 
ATOM      4  C   UNL     1       2.001   5.111  20.407  0.00  0.00    +0.000 C 
ATOM      5  C   UNL     1       2.487   4.878  18.958  0.00  0.00    +0.000 C 
ATOM      6  C   UNL     1       1.459   4.005  18.204  0.00  0.00    +0.000 C 
ATOM      7  C   UNL     1       3.854   4.158  18.981  0.00  0.00    +0.000 C 
ATOM      8  C   UNL     1       3.715   2.796  19.707  0.00  0.00    +0.000 C 
ATOM      9  C   UNL     1       3.215   3.028  21.158  0.00  0.00    +0.000 C 
ATOM     10  C   UNL     1       2.680   1.927  18.953  0.00  0.00    +0.000 C 
ENDROOT
BRANCH   1  11
ATOM     11  N   UNL     1       0.334   1.810  18.200  0.00  0.00    +0.000 NA
ATOM     12  H   UNL     1      -0.201   1.212  18.872  0.00  0.00    +0.000 HD
ATOM     13  H   UNL     1       0.830   1.180  17.528  0.00  0.00    +0.000 HD
ENDBRANCH   1  11
BRANCH   8  14
ATOM     14  O   UNL     1       4.948   2.118  19.719  0.00  0.00    +0.000 OA
ATOM     15  H   UNL     1       5.039   1.672  20.603  0.00  0.00    +0.000 HD
ENDBRANCH   8  14
TORSDOF 2
ENDMDL
