MODEL 1
REMARK VINA RESULT:      -7.8      0.000      0.000
REMARK  Name = 
REMARK  4 active torsions:
REMARK  status: ('A' for Active; 'I' for Inactive)
REMARK    1  A    between atoms: C_2  and  C_3
REMARK    2  A    between atoms: C_5  and  C_6
REMARK    3  A    between atoms: C_6  and  N_7
REMARK    4  A    between atoms: C_11  and  C_12
REMARK                            x       y       z     vdW  Elec       q    Type
REMARK                         _______ _______ _______ _____ _____    ______ ____
ROOT
ATOM      1  N   UNL     1       2.717   4.663  18.705  0.00  0.00    +0.000 N 
ATOM      2  N   UNL     1       1.454   4.201  18.750  0.00  0.00    +0.000 NA
ATOM      3  N   UNL     1       1.355   3.359  17.736  0.00  0.00    +0.000 NA
ATOM      4  N   UNL     1       2.534   3.288  17.043  0.00  0.00    +0.000 NA
ATOM      5  C   UNL     1       3.395   4.081  17.658  0.00  0.00    +0.000 A 
ENDROOT
BRANCH   5   6
ATOM      6  C   UNL     1       4.780   4.305  17.253  0.00  0.00    +0.000 A 
ATOM      7  C   UNL     1       5.101   4.288  15.893  0.00  0.00    +0.000 A 
ATOM      8  C   UNL     1       6.420   4.484  15.518  0.00  0.00    +0.000 A 
ATOM      9  N   UNL     1       7.424   4.690  16.395  0.00  0.00    +0.000 NA
ATOM     10  C   UNL     1       7.101   4.675  17.701  0.00  0.00    +0.000 A 
ATOM     11  C   UNL     1       5.814   4.485  18.174  0.00  0.00    +0.000 A 
ENDBRANCH   5   6
BRANCH   1  12
ATOM     12  C   UNL     1       3.127   5.706  19.624  0.00  0.00    +0.000 C 
BRANCH  12  15
ATOM     13  C   UNL     1       1.123   8.984  20.046  0.00  0.00    +0.000 A 
ATOM     14  C   UNL     1       1.735   7.759  20.354  0.00  0.00    +0.000 A 
ATOM     15  C   UNL     1       2.476   7.056  19.384  0.00  0.00    +0.000 A 
ATOM     16  C   UNL     1       2.600   7.623  18.102  0.00  0.00    +0.000 A 
ATOM     17  C   UNL     1       1.995   8.844  17.796  0.00  0.00    +0.000 A 
ATOM     18  C   UNL     1       1.258   9.513  18.767  0.00  0.00    +0.000 A 
ATOM     19  F   UNL     1       0.674  10.676  18.445  0.00  0.00    +0.000 F 
BRANCH  13  21
ATOM     20  N   UNL     1      -0.243  10.245  21.850  0.00  0.00    +0.000 NA
ATOM     21  C   UNL     1       0.355   9.676  21.035  0.00  0.00    +0.000 C 
ENDBRANCH  13  21
ENDBRANCH  12  15
ENDBRANCH   1  12
TORSDOF 4
ENDMDL
MODEL 2
REMARK VINA RESULT:      -7.8      3.967      4.759
REMARK  Name = 
REMARK  4 active torsions:
REMARK  status: ('A' for Active; 'I' for Inactive)
REMARK    1  A    between atoms: C_2  and  C_3
REMARK    2  A    between atoms: C_5  and  C_6
REMARK    3  A    between atoms: C_6  and  N_7
REMARK    4  A    between atoms: C_11  and  C_12
REMARK                            x       y       z     vdW  Elec       q    Type
REMARK                         _______ _______ _______ _____ _____    ______ ____
ROOT
ATOM      1  N   UNL     1       5.972   5.627  18.452  0.00  0.00    +0.000 N 
ATOM      2  N   UNL     1       6.512   5.706  19.683  0.00  0.00    +0.000 NA
ATOM      3  N   UNL     1       7.653   5.044  19.605  0.00  0.00    +0.000 NA
ATOM      4  N   UNL     1       7.840   4.538  18.345  0.00  0.00    +0.000 NA
ATOM      5  C   UNL     1       6.805   4.921  17.616  0.00  0.00    +0.000 A 
ENDROOT
BRANCH   5   6
ATOM      6  C   UNL     1       6.598   4.601  16.206  0.00  0.00    +0.000 A 
ATOM      7  C   UNL     1       7.399   5.222  15.244  0.00  0.00    +0.000 A 
ATOM      8  C   UNL     1       7.185   4.926  13.908  0.00  0.00    +0.000 A 
ATOM      9  N   UNL     1       6.239   4.067  13.474  0.00  0.00    +0.000 NA
ATOM     10  C   UNL     1       5.459   3.500  14.413  0.00  0.00    +0.000 A 
ATOM     11  C   UNL     1       5.594   3.734  15.771  0.00  0.00    +0.000 A 
ENDBRANCH   5   6
BRANCH   1  12
ATOM     12  C   UNL     1       4.645   6.162  18.222  0.00  0.00    +0.000 C 
BRANCH  12  15
ATOM     13  C   UNL     1       2.231   3.681  19.942  0.00  0.00    +0.000 A 
ATOM     14  C   UNL     1       3.272   4.605  19.764  0.00  0.00    +0.000 A 
ATOM     15  C   UNL     1       3.511   5.192  18.507  0.00  0.00    +0.000 A 
ATOM     16  C   UNL     1       2.668   4.841  17.437  0.00  0.00    +0.000 A 
ATOM     17  C   UNL     1       1.628   3.926  17.615  0.00  0.00    +0.000 A 
ATOM     18  C   UNL     1       1.420   3.349  18.862  0.00  0.00    +0.000 A 
ATOM     19  F   UNL     1       0.424   2.462  19.003  0.00  0.00    +0.000 F 
BRANCH  13  21
ATOM     20  N   UNL     1       1.854   2.604  22.268  0.00  0.00    +0.000 NA
ATOM     21  C   UNL     1       2.013   3.075  21.220  0.00  0.00    +0.000 C 
ENDBRANCH  13  21
ENDBRANCH  12  15
ENDBRANCH   1  12
TORSDOF 4
ENDMDL
MODEL 3
REMARK VINA RESULT:      -7.7      0.070      1.026
REMARK  Name = 
REMARK  4 active torsions:
REMARK  status: ('A' for Active; 'I' for Inactive)
REMARK    1  A    between atoms: C_2  and  C_3
REMARK    2  A    between atoms: C_5  and  C_6
REMARK    3  A    between atoms: C_6  and  N_7
REMARK    4  A    between atoms: C_11  and  C_12
REMARK                            x       y       z     vdW  Elec       q    Type
REMARK                         _______ _______ _______ _____ _____    ______ ____
ROOT
ATOM      1  N   UNL     1       2.744   4.612  18.682  0.00  0.00    +0.000 N 
ATOM      2  N   UNL     1       1.478   4.160  18.766  0.00  0.00    +0.000 NA
ATOM      3  N   UNL     1       1.346   3.309  17.763  0.00  0.00    +0.000 NA
ATOM      4  N   UNL     1       2.506   3.222  17.040  0.00  0.00    +0.000 NA
ATOM      5  C   UNL     1       3.388   4.015  17.624  0.00  0.00    +0.000 A 
ENDROOT
BRANCH   5   6
ATOM      6  C   UNL     1       4.764   4.224  17.179  0.00  0.00    +0.000 A 
ATOM      7  C   UNL     1       5.765   4.415  18.134  0.00  0.00    +0.000 A 
ATOM      8  C   UNL     1       7.064   4.629  17.704  0.00  0.00    +0.000 A 
ATOM      9  N   UNL     1       7.425   4.668  16.404  0.00  0.00    +0.000 NA
ATOM     10  C   UNL     1       6.442   4.510  15.497  0.00  0.00    +0.000 A 
ATOM     11  C   UNL     1       5.116   4.293  15.829  0.00  0.00    +0.000 A 
ENDBRANCH   5   6
BRANCH   1  12
ATOM     12  C   UNL     1       3.185   5.661  19.580  0.00  0.00    +0.000 C 
BRANCH  12  15
ATOM     13  C   UNL     1       1.157   8.917  20.047  0.00  0.00    +0.000 A 
ATOM     14  C   UNL     1       1.780   7.694  20.339  0.00  0.00    +0.000 A 
ATOM     15  C   UNL     1       2.522   7.008  19.358  0.00  0.00    +0.000 A 
ATOM     16  C   UNL     1       2.635   7.589  18.081  0.00  0.00    +0.000 A 
ATOM     17  C   UNL     1       2.019   8.809  17.792  0.00  0.00    +0.000 A 
ATOM     18  C   UNL     1       1.281   9.461  18.774  0.00  0.00    +0.000 A 
ATOM     19  F   UNL     1       0.687  10.623  18.467  0.00  0.00    +0.000 F 
BRANCH  13  21
ATOM     20  N   UNL     1      -0.247  10.157  21.837  0.00  0.00    +0.000 NA
ATOM     21  C   UNL     1       0.388   9.592  21.047  0.00  0.00    +0.000 C 
ENDBRANCH  13  21
ENDBRANCH  12  15
ENDBRANCH   1  12
TORSDOF 4
ENDMDL
MODEL 4
REMARK VINA RESULT:      -7.7      2.489      5.904
REMARK  Name = 
REMARK  4 active torsions:
REMARK  status: ('A' for Active; 'I' for Inactive)
REMARK    1  A    between atoms: C_2  and  C_3
REMARK    2  A    between atoms: C_5  and  C_6
REMARK    3  A    between atoms: C_6  and  N_7
REMARK    4  A    between atoms: C_11  and  C_12
REMARK                            x       y       z     vdW  Elec       q    Type
REMARK                         _______ _______ _______ _____ _____    ______ ____
ROOT
ATOM      1  N   UNL     1       3.342   3.104  18.643  0.00  0.00    +0.000 N 
ATOM      2  N   UNL     1       3.039   1.900  18.123  0.00  0.00    +0.000 NA
ATOM      3  N   UNL     1       1.767   1.984  17.770  0.00  0.00    +0.000 NA
ATOM      4  N   UNL     1       1.258   3.220  18.068  0.00  0.00    +0.000 NA
ATOM      5  C   UNL     1       2.244   3.930  18.590  0.00  0.00    +0.000 A 
ENDROOT
BRANCH   5   6
ATOM      6  C   UNL     1       2.140   5.313  19.050  0.00  0.00    +0.000 A 
ATOM      7  C   UNL     1       2.458   6.348  18.169  0.00  0.00    +0.000 A 
ATOM      8  C   UNL     1       2.373   7.655  18.618  0.00  0.00    +0.000 A 
ATOM      9  N   UNL     1       1.999   7.993  19.870  0.00  0.00    +0.000 NA
ATOM     10  C   UNL     1       1.723   6.982  20.714  0.00  0.00    +0.000 A 
ATOM     11  C   UNL     1       1.781   5.645  20.359  0.00  0.00    +0.000 A 
ENDBRANCH   5   6
BRANCH   1  12
ATOM     12  C   UNL     1       4.647   3.314  19.237  0.00  0.00    +0.000 C 
BRANCH  12  15
ATOM     13  C   UNL     1       6.625   5.230  16.526  0.00  0.00    +0.000 A 
ATOM     14  C   UNL     1       5.767   4.294  17.123  0.00  0.00    +0.000 A 
ATOM     15  C   UNL     1       5.523   4.318  18.510  0.00  0.00    +0.000 A 
ATOM     16  C   UNL     1       6.149   5.316  19.279  0.00  0.00    +0.000 A 
ATOM     17  C   UNL     1       6.999   6.251  18.684  0.00  0.00    +0.000 A 
ATOM     18  C   UNL     1       7.235   6.199  17.315  0.00  0.00    +0.000 A 
ATOM     19  F   UNL     1       8.067   7.098  16.770  0.00  0.00    +0.000 F 
BRANCH  13  21
ATOM     20  N   UNL     1       7.114   5.124  13.984  0.00  0.00    +0.000 NA
ATOM     21  C   UNL     1       6.881   5.180  15.119  0.00  0.00    +0.000 C 
ENDBRANCH  13  21
ENDBRANCH  12  15
ENDBRANCH   1  12
TORSDOF 4
ENDMDL
MODEL 5
REMARK VINA RESULT:      -7.7      3.240      4.826
REMARK  Name = 
REMARK  4 active torsions:
REMARK  status: ('A' for Active; 'I' for Inactive)
REMARK    1  A    between atoms: C_2  and  C_3
REMARK    2  A    between atoms: C_5  and  C_6
REMARK    3  A    between atoms: C_6  and  N_7
REMARK    4  A    between atoms: C_11  and  C_12
REMARK                            x       y       z     vdW  Elec       q    Type
REMARK                         _______ _______ _______ _____ _____    ______ ____
ROOT
ATOM      1  N   UNL     1       6.107   5.360  17.082  0.00  0.00    +0.000 N 
ATOM      2  N   UNL     1       6.538   5.299  18.356  0.00  0.00    +0.000 NA
ATOM      3  N   UNL     1       7.686   4.647  18.303  0.00  0.00    +0.000 NA
ATOM      4  N   UNL     1       7.984   4.285  17.016  0.00  0.00    +0.000 NA
ATOM      5  C   UNL     1       7.014   4.749  16.247  0.00  0.00    +0.000 A 
ENDROOT
BRANCH   5   6
ATOM      6  C   UNL     1       6.932   4.590  14.798  0.00  0.00    +0.000 A 
ATOM      7  C   UNL     1       6.024   3.672  14.265  0.00  0.00    +0.000 A 
ATOM      8  C   UNL     1       5.965   3.515  12.890  0.00  0.00    +0.000 A 
ATOM      9  N   UNL     1       6.741   4.201  12.025  0.00  0.00    +0.000 NA
ATOM     10  C   UNL     1       7.629   5.061  12.557  0.00  0.00    +0.000 A 
ATOM     11  C   UNL     1       7.764   5.285  13.916  0.00  0.00    +0.000 A 
ENDBRANCH   5   6
BRANCH   1  12
ATOM     12  C   UNL     1       4.800   5.920  16.799  0.00  0.00    +0.000 C 
BRANCH  12  15
ATOM     13  C   UNL     1       1.921   4.145  18.669  0.00  0.00    +0.000 A 
ATOM     14  C   UNL     1       2.931   4.393  17.727  0.00  0.00    +0.000 A 
ATOM     15  C   UNL     1       3.722   5.557  17.803  0.00  0.00    +0.000 A 
ATOM     16  C   UNL     1       3.482   6.456  18.859  0.00  0.00    +0.000 A 
ATOM     17  C   UNL     1       2.480   6.207  19.799  0.00  0.00    +0.000 A 
ATOM     18  C   UNL     1       1.704   5.058  19.695  0.00  0.00    +0.000 A 
ATOM     19  F   UNL     1       0.738   4.849  20.602  0.00  0.00    +0.000 F 
BRANCH  13  21
ATOM     20  N   UNL     1       0.444   2.023  18.511  0.00  0.00    +0.000 NA
ATOM     21  C   UNL     1       1.111   2.971  18.566  0.00  0.00    +0.000 C 
ENDBRANCH  13  21
ENDBRANCH  12  15
ENDBRANCH   1  12
TORSDOF 4
ENDMDL
MODEL 6
REMARK VINA RESULT:      -7.7      3.959      4.749
REMARK  Name = 
REMARK  4 active torsions:
REMARK  status: ('A' for Active; 'I' for Inactive)
REMARK    1  A    between atoms: C_2  and  C_3
REMARK    2  A    between atoms: C_5  and  C_6
REMARK    3  A    between atoms: C_6  and  N_7
REMARK    4  A    between atoms: C_11  and  C_12
REMARK                            x       y       z     vdW  Elec       q    Type
REMARK                         _______ _______ _______ _____ _____    ______ ____
ROOT
ATOM      1  N   UNL     1       5.827   5.569  18.430  0.00  0.00    +0.000 N 
ATOM      2  N   UNL     1       6.321   5.608  19.682  0.00  0.00    +0.000 NA
ATOM      3  N   UNL     1       7.484   4.984  19.616  0.00  0.00    +0.000 NA
ATOM      4  N   UNL     1       7.730   4.541  18.343  0.00  0.00    +0.000 NA
ATOM      5  C   UNL     1       6.710   4.925  17.594  0.00  0.00    +0.000 A 
ENDROOT
BRANCH   5   6
ATOM      6  C   UNL     1       6.563   4.663  16.165  0.00  0.00    +0.000 A 
ATOM      7  C   UNL     1       5.580   3.769  15.736  0.00  0.00    +0.000 A 
ATOM      8  C   UNL     1       5.458   3.513  14.380  0.00  0.00    +0.000 A 
ATOM      9  N   UNL     1       6.241   4.080  13.439  0.00  0.00    +0.000 NA
ATOM     10  C   UNL     1       7.201   4.918  13.873  0.00  0.00    +0.000 A 
ATOM     11  C   UNL     1       7.402   5.234  15.205  0.00  0.00    +0.000 A 
ENDBRANCH   5   6
BRANCH   1  12
ATOM     12  C   UNL     1       4.492   6.074  18.176  0.00  0.00    +0.000 C 
BRANCH  12  15
ATOM     13  C   UNL     1       2.105   3.616  19.964  0.00  0.00    +0.000 A 
ATOM     14  C   UNL     1       3.132   4.550  19.762  0.00  0.00    +0.000 A 
ATOM     15  C   UNL     1       3.373   5.096  18.486  0.00  0.00    +0.000 A 
ATOM     16  C   UNL     1       2.546   4.691  17.422  0.00  0.00    +0.000 A 
ATOM     17  C   UNL     1       1.520   3.765  17.624  0.00  0.00    +0.000 A 
ATOM     18  C   UNL     1       1.310   3.231  18.891  0.00  0.00    +0.000 A 
ATOM     19  F   UNL     1       0.329   2.332  19.056  0.00  0.00    +0.000 F 
BRANCH  13  21
ATOM     20  N   UNL     1       1.682   2.588  22.304  0.00  0.00    +0.000 NA
ATOM     21  C   UNL     1       1.886   3.053  21.261  0.00  0.00    +0.000 C 
ENDBRANCH  13  21
ENDBRANCH  12  15
ENDBRANCH   1  12
TORSDOF 4
ENDMDL
MODEL 7
REMARK VINA RESULT:      -7.5      3.167      4.812
REMARK  Name = 
REMARK  4 active torsions:
REMARK  status: ('A' for Active; 'I' for Inactive)
REMARK    1  A    between atoms: C_2  and  C_3
REMARK    2  A    between atoms: C_5  and  C_6
REMARK    3  A    between atoms: C_6  and  N_7
REMARK    4  A    between atoms: C_11  and  C_12
REMARK                            x       y       z     vdW  Elec       q    Type
REMARK                         _______ _______ _______ _____ _____    ______ ____
ROOT
ATOM      1  N   UNL     1       6.156   5.407  17.073  0.00  0.00    +0.000 N 
ATOM      2  N   UNL     1       6.600   5.378  18.343  0.00  0.00    +0.000 NA
ATOM      3  N   UNL     1       7.730   4.693  18.301  0.00  0.00    +0.000 NA
ATOM      4  N   UNL     1       8.003   4.279  17.024  0.00  0.00    +0.000 NA
ATOM      5  C   UNL     1       7.036   4.744  16.250  0.00  0.00    +0.000 A 
ENDROOT
BRANCH   5   6
ATOM      6  C   UNL     1       6.933   4.537  14.808  0.00  0.00    +0.000 A 
ATOM      7  C   UNL     1       7.767   5.264  13.956  0.00  0.00    +0.000 A 
ATOM      8  C   UNL     1       7.651   5.075  12.589  0.00  0.00    +0.000 A 
ATOM      9  N   UNL     1       6.770   4.223  12.024  0.00  0.00    +0.000 NA
ATOM     10  C   UNL     1       5.955   3.552  12.859  0.00  0.00    +0.000 A 
ATOM     11  C   UNL     1       5.993   3.675  14.237  0.00  0.00    +0.000 A 
ENDBRANCH   5   6
BRANCH   1  12
ATOM     12  C   UNL     1       4.862   5.993  16.785  0.00  0.00    +0.000 C 
BRANCH  12  15
ATOM     13  C   UNL     1       2.012   4.236  18.715  0.00  0.00    +0.000 A 
ATOM     14  C   UNL     1       3.035   4.459  17.781  0.00  0.00    +0.000 A 
ATOM     15  C   UNL     1       3.774   5.657  17.789  0.00  0.00    +0.000 A 
ATOM     16  C   UNL     1       3.472   6.619  18.771  0.00  0.00    +0.000 A 
ATOM     17  C   UNL     1       2.457   6.395  19.705  0.00  0.00    +0.000 A 
ATOM     18  C   UNL     1       1.732   5.210  19.667  0.00  0.00    +0.000 A 
ATOM     19  F   UNL     1       0.753   5.025  20.565  0.00  0.00    +0.000 F 
BRANCH  13  21
ATOM     20  N   UNL     1       0.664   2.025  18.655  0.00  0.00    +0.000 NA
ATOM     21  C   UNL     1       1.253   3.023  18.680  0.00  0.00    +0.000 C 
ENDBRANCH  13  21
ENDBRANCH  12  15
ENDBRANCH   1  12
TORSDOF 4
ENDMDL
MODEL 8
REMARK VINA RESULT:      -7.5      2.886      4.210
REMARK  Name = 
REMARK  4 active torsions:
REMARK  status: ('A' for Active; 'I' for Inactive)
REMARK    1  A    between atoms: C_2  and  C_3
REMARK    2  A    between atoms: C_5  and  C_6
REMARK    3  A    between atoms: C_6  and  N_7
REMARK    4  A    between atoms: C_11  and  C_12
REMARK                            x       y       z     vdW  Elec       q    Type
REMARK                         _______ _______ _______ _____ _____    ______ ____
ROOT
ATOM      1  N   UNL     1       6.105   5.437  16.996  0.00  0.00    +0.000 N 
ATOM      2  N   UNL     1       6.538   5.433  18.271  0.00  0.00    +0.000 NA
ATOM      3  N   UNL     1       7.668   4.749  18.251  0.00  0.00    +0.000 NA
ATOM      4  N   UNL     1       7.953   4.310  16.985  0.00  0.00    +0.000 NA
ATOM      5  C   UNL     1       6.993   4.758  16.194  0.00  0.00    +0.000 A 
ENDROOT
BRANCH   5   6
ATOM      6  C   UNL     1       6.902   4.523  14.756  0.00  0.00    +0.000 A 
ATOM      7  C   UNL     1       7.756   5.220  13.898  0.00  0.00    +0.000 A 
ATOM      8  C   UNL     1       7.652   5.004  12.534  0.00  0.00    +0.000 A 
ATOM      9  N   UNL     1       6.765   4.153  11.977  0.00  0.00    +0.000 NA
ATOM     10  C   UNL     1       5.932   3.511  12.816  0.00  0.00    +0.000 A 
ATOM     11  C   UNL     1       5.957   3.662  14.192  0.00  0.00    +0.000 A 
ENDBRANCH   5   6
BRANCH   1  12
ATOM     12  C   UNL     1       4.813   6.016  16.685  0.00  0.00    +0.000 C 
BRANCH  12  15
ATOM     13  C   UNL     1       2.233   6.311  19.547  0.00  0.00    +0.000 A 
ATOM     14  C   UNL     1       3.210   6.669  18.606  0.00  0.00    +0.000 A 
ATOM     15  C   UNL     1       3.723   5.721  17.700  0.00  0.00    +0.000 A 
ATOM     16  C   UNL     1       3.218   4.408  17.752  0.00  0.00    +0.000 A 
ATOM     17  C   UNL     1       2.242   4.053  18.686  0.00  0.00    +0.000 A 
ATOM     18  C   UNL     1       1.760   5.003  19.579  0.00  0.00    +0.000 A 
ATOM     19  F   UNL     1       0.834   4.633  20.475  0.00  0.00    +0.000 F 
BRANCH  13  21
ATOM     20  N   UNL     1       1.312   8.071  21.210  0.00  0.00    +0.000 NA
ATOM     21  C   UNL     1       1.736   7.279  20.476  0.00  0.00    +0.000 C 
ENDBRANCH  13  21
ENDBRANCH  12  15
ENDBRANCH   1  12
TORSDOF 4
ENDMDL
MODEL 9
REMARK VINA RESULT:      -7.5      2.898      4.205
REMARK  Name = 
REMARK  4 active torsions:
REMARK  status: ('A' for Active; 'I' for Inactive)
REMARK    1  A    between atoms: C_2  and  C_3
REMARK    2  A    between atoms: C_5  and  C_6
REMARK    3  A    between atoms: C_6  and  N_7
REMARK    4  A    between atoms: C_11  and  C_12
REMARK                            x       y       z     vdW  Elec       q    Type
REMARK                         _______ _______ _______ _____ _____    ______ ____
ROOT
ATOM      1  N   UNL     1       6.142   5.499  16.972  0.00  0.00    +0.000 N 
ATOM      2  N   UNL     1       6.585   5.472  18.242  0.00  0.00    +0.000 NA
ATOM      3  N   UNL     1       7.699   4.761  18.207  0.00  0.00    +0.000 NA
ATOM      4  N   UNL     1       7.962   4.328  16.934  0.00  0.00    +0.000 NA
ATOM      5  C   UNL     1       7.007   4.807  16.156  0.00  0.00    +0.000 A 
ENDROOT
BRANCH   5   6
ATOM      6  C   UNL     1       6.899   4.589  14.715  0.00  0.00    +0.000 A 
ATOM      7  C   UNL     1       5.947   3.686  14.234  0.00  0.00    +0.000 A 
ATOM      8  C   UNL     1       5.863   3.472  12.869  0.00  0.00    +0.000 A 
ATOM      9  N   UNL     1       6.654   4.088  11.965  0.00  0.00    +0.000 NA
ATOM     10  C   UNL     1       7.583   4.933  12.449  0.00  0.00    +0.000 A 
ATOM     11  C   UNL     1       7.746   5.210  13.795  0.00  0.00    +0.000 A 
ENDBRANCH   5   6
BRANCH   1  12
ATOM     12  C   UNL     1       4.862   6.112  16.677  0.00  0.00    +0.000 C 
BRANCH  12  15
ATOM     13  C   UNL     1       2.248   6.330  19.516  0.00  0.00    +0.000 A 
ATOM     14  C   UNL     1       3.236   6.713  18.596  0.00  0.00    +0.000 A 
ATOM     15  C   UNL     1       3.760   5.790  17.671  0.00  0.00    +0.000 A 
ATOM     16  C   UNL     1       3.253   4.477  17.681  0.00  0.00    +0.000 A 
ATOM     17  C   UNL     1       2.266   4.097  18.593  0.00  0.00    +0.000 A 
ATOM     18  C   UNL     1       1.774   5.023  19.506  0.00  0.00    +0.000 A 
ATOM     19  F   UNL     1       0.837   4.630  20.380  0.00  0.00    +0.000 F 
BRANCH  13  21
ATOM     20  N   UNL     1       1.325   8.057  21.212  0.00  0.00    +0.000 NA
ATOM     21  C   UNL     1       1.741   7.273  20.465  0.00  0.00    +0.000 C 
ENDBRANCH  13  21
ENDBRANCH  12  15
ENDBRANCH   1  12
TORSDOF 4
ENDMDL
