MODEL 1
REMARK VINA RESULT:      -6.6      0.000      0.000
REMARK  Name = 
REMARK  14 active torsions:
REMARK  status: ('A' for Active; 'I' for Inactive)
REMARK    1  A    between atoms: C_1  and  C_2
REMARK    2  A    between atoms: C_2  and  O_3
REMARK    3  A    between atoms: O_3  and  C_4
REMARK    4  A    between atoms: C_4  and  C_5
REMARK    5  A    between atoms: C_5  and  C_6
REMARK    6  A    between atoms: C_6  and  C_7
REMARK    7  A    between atoms: N_9  and  C_10
REMARK    8  A    between atoms: N_9  and  C_11
REMARK    9  A    between atoms: C_11  and  C_12
REMARK   10  A    between atoms: C_12  and  N_13
REMARK   11  A    between atoms: N_13  and  C_14
REMARK   12  A    between atoms: C_15  and  C_17
REMARK   13  A    between atoms: C_20  and  C_21
REMARK   14  A    between atoms: C_21  and  C_22
REMARK                            x       y       z     vdW  Elec       q    Type
REMARK                         _______ _______ _______ _____ _____    ______ ____
ROOT
ATOM      1  C   UNL     1       4.151   2.787  18.669  0.00  0.00    +0.000 C 
ENDROOT
BRANCH   1   4
ATOM      2  C   UNL     1       5.288   4.250  17.100  0.00  0.00    +0.000 C 
ATOM      3  O   UNL     1       6.230   4.234  17.912  0.00  0.00    +0.000 OA
ATOM      4  N   UNL     1       4.073   3.638  17.469  0.00  0.00    +0.000 N 
ATOM      5  C   UNL     1       2.866   3.591  16.665  0.00  0.00    +0.000 C 
BRANCH   2   6
ATOM      6  C   UNL     1       5.497   4.924  15.688  0.00  0.00    +0.000 C 
ATOM      7  C   UNL     1       5.011   4.206  14.387  0.00  0.00    +0.000 C 
ATOM      8  C   UNL     1       6.435   3.755  14.072  0.00  0.00    +0.000 C 
ATOM      9  C   UNL     1       6.967   4.688  15.153  0.00  0.00    +0.000 C 
BRANCH   6  10
ATOM     10  C   UNL     1       5.237   6.451  15.715  0.00  0.00    +0.000 C 
BRANCH  10  11
ATOM     11  C   UNL     1       5.844   7.113  16.944  0.00  0.00    +0.000 C 
BRANCH  11  12
ATOM     12  O   UNL     1       7.201   7.476  16.702  0.00  0.00    +0.000 OA
BRANCH  12  14
ATOM     13  C   UNL     1       8.120   6.726  18.793  0.00  0.00    +0.000 C 
ATOM     14  C   UNL     1       7.817   7.921  17.914  0.00  0.00    +0.000 C 
ENDBRANCH  12  14
ENDBRANCH  11  12
ENDBRANCH  10  11
ENDBRANCH   6  10
ENDBRANCH   2   6
ENDBRANCH   1   4
BRANCH   1  15
ATOM     15  C   UNL     1       3.467   3.271  19.958  0.00  0.00    +0.000 C 
BRANCH  15  16
ATOM     16  N   UNL     1       2.452   4.306  19.700  0.00  0.00    +0.000 N 
ATOM     17  C   UNL     1       1.067   3.920  19.922  0.00  0.00    +0.000 C 
ATOM     18  C   UNL     1       2.896   5.630  19.681  0.00  0.00    +0.000 C 
ATOM     19  O   UNL     1       4.099   5.891  19.751  0.00  0.00    +0.000 OA
BRANCH  18  20
ATOM     20  C   UNL     1       1.864   6.749  19.475  0.00  0.00    +0.000 C 
ATOM     21  C   UNL     1       1.754   7.633  20.733  0.00  0.00    +0.000 C 
ATOM     22  C   UNL     1       0.954   8.917  20.498  0.00  0.00    +0.000 C 
ATOM     23  C   UNL     1       1.540   9.716  19.325  0.00  0.00    +0.000 C 
ATOM     24  C   UNL     1       1.491   8.841  18.064  0.00  0.00    +0.000 C 
ATOM     25  C   UNL     1       2.300   7.563  18.249  0.00  0.00    +0.000 C 
BRANCH  23  26
ATOM     26  C   UNL     1       0.820  11.050  19.066  0.00  0.00    +0.000 C 
ATOM     27  C   UNL     1      -0.563  11.132  19.697  0.00  0.00    +0.000 C 
ENDBRANCH  23  26
ENDBRANCH  18  20
ENDBRANCH  15  16
ENDBRANCH   1  15
TORSDOF 10
ENDMDL
MODEL 2
REMARK VINA RESULT:      -6.6      2.151      4.272
REMARK  Name = 
REMARK  14 active torsions:
REMARK  status: ('A' for Active; 'I' for Inactive)
REMARK    1  A    between atoms: C_1  and  C_2
REMARK    2  A    between atoms: C_2  and  O_3
REMARK    3  A    between atoms: O_3  and  C_4
REMARK    4  A    between atoms: C_4  and  C_5
REMARK    5  A    between atoms: C_5  and  C_6
REMARK    6  A    between atoms: C_6  and  C_7
REMARK    7  A    between atoms: N_9  and  C_10
REMARK    8  A    between atoms: N_9  and  C_11
REMARK    9  A    between atoms: C_11  and  C_12
REMARK   10  A    between atoms: C_12  and  N_13
REMARK   11  A    between atoms: N_13  and  C_14
REMARK   12  A    between atoms: C_15  and  C_17
REMARK   13  A    between atoms: C_20  and  C_21
REMARK   14  A    between atoms: C_21  and  C_22
REMARK                            x       y       z     vdW  Elec       q    Type
REMARK                         _______ _______ _______ _____ _____    ______ ____
ROOT
ATOM      1  C   UNL     1       2.744   6.141  18.104  0.00  0.00    +0.000 C 
ENDROOT
BRANCH   1   4
ATOM      2  C   UNL     1       4.971   6.114  17.138  0.00  0.00    +0.000 C 
ATOM      3  O   UNL     1       4.573   7.054  16.427  0.00  0.00    +0.000 OA
ATOM      4  N   UNL     1       4.037   5.450  17.960  0.00  0.00    +0.000 N 
ATOM      5  C   UNL     1       4.317   4.318  18.823  0.00  0.00    +0.000 C 
BRANCH   2   6
ATOM      6  C   UNL     1       6.500   5.721  17.114  0.00  0.00    +0.000 C 
ATOM      7  C   UNL     1       7.165   5.050  18.358  0.00  0.00    +0.000 C 
ATOM      8  C   UNL     1       7.800   6.377  18.768  0.00  0.00    +0.000 C 
ATOM      9  C   UNL     1       7.418   6.974  17.419  0.00  0.00    +0.000 C 
BRANCH   6  10
ATOM     10  C   UNL     1       6.939   5.128  15.751  0.00  0.00    +0.000 C 
BRANCH  10  11
ATOM     11  C   UNL     1       6.159   3.870  15.398  0.00  0.00    +0.000 C 
BRANCH  11  12
ATOM     12  O   UNL     1       6.390   3.499  14.041  0.00  0.00    +0.000 OA
BRANCH  12  14
ATOM     13  C   UNL     1       5.320   3.168  11.914  0.00  0.00    +0.000 C 
ATOM     14  C   UNL     1       5.307   3.939  13.217  0.00  0.00    +0.000 C 
ENDBRANCH  12  14
ENDBRANCH  11  12
ENDBRANCH  10  11
ENDBRANCH   6  10
ENDBRANCH   2   6
ENDBRANCH   1   4
BRANCH   1  15
ATOM     15  C   UNL     1       2.480   6.943  19.388  0.00  0.00    +0.000 C 
BRANCH  15  16
ATOM     16  N   UNL     1       1.976   8.298  19.109  0.00  0.00    +0.000 N 
ATOM     17  C   UNL     1       1.894   8.680  17.708  0.00  0.00    +0.000 C 
ATOM     18  C   UNL     1       1.248   8.920  20.127  0.00  0.00    +0.000 C 
ATOM     19  O   UNL     1       1.152   8.399  21.240  0.00  0.00    +0.000 OA
BRANCH  18  20
ATOM     20  C   UNL     1       0.652  10.310  19.861  0.00  0.00    +0.000 C 
ATOM     21  C   UNL     1      -0.843  10.206  19.499  0.00  0.00    +0.000 C 
ATOM     22  C   UNL     1      -1.557  11.560  19.493  0.00  0.00    +0.000 C 
ATOM     23  C   UNL     1      -1.375  12.278  20.838  0.00  0.00    +0.000 C 
ATOM     24  C   UNL     1       0.127  12.488  21.080  0.00  0.00    +0.000 C 
ATOM     25  C   UNL     1       0.869  11.158  21.121  0.00  0.00    +0.000 C 
BRANCH  23  26
ATOM     26  C   UNL     1      -2.113  13.624  20.924  0.00  0.00    +0.000 C 
ATOM     27  C   UNL     1      -1.233  14.827  20.613  0.00  0.00    +0.000 C 
ENDBRANCH  23  26
ENDBRANCH  18  20
ENDBRANCH  15  16
ENDBRANCH   1  15
TORSDOF 10
ENDMDL
MODEL 3
REMARK VINA RESULT:      -6.3      3.941      6.681
REMARK  Name = 
REMARK  14 active torsions:
REMARK  status: ('A' for Active; 'I' for Inactive)
REMARK    1  A    between atoms: C_1  and  C_2
REMARK    2  A    between atoms: C_2  and  O_3
REMARK    3  A    between atoms: O_3  and  C_4
REMARK    4  A    between atoms: C_4  and  C_5
REMARK    5  A    between atoms: C_5  and  C_6
REMARK    6  A    between atoms: C_6  and  C_7
REMARK    7  A    between atoms: N_9  and  C_10
REMARK    8  A    between atoms: N_9  and  C_11
REMARK    9  A    between atoms: C_11  and  C_12
REMARK   10  A    between atoms: C_12  and  N_13
REMARK   11  A    between atoms: N_13  and  C_14
REMARK   12  A    between atoms: C_15  and  C_17
REMARK   13  A    between atoms: C_20  and  C_21
REMARK   14  A    between atoms: C_21  and  C_22
REMARK                            x       y       z     vdW  Elec       q    Type
REMARK                         _______ _______ _______ _____ _____    ______ ____
ROOT
ATOM      1  C   UNL     1       1.507   9.157  19.932  0.00  0.00    +0.000 C 
ENDROOT
BRANCH   1   4
ATOM      2  C   UNL     1       2.483   7.429  18.533  0.00  0.00    +0.000 C 
ATOM      3  O   UNL     1       2.581   8.317  17.667  0.00  0.00    +0.000 OA
ATOM      4  N   UNL     1       1.788   7.726  19.723  0.00  0.00    +0.000 N 
ATOM      5  C   UNL     1       1.550   6.807  20.820  0.00  0.00    +0.000 C 
BRANCH   2   6
ATOM      6  C   UNL     1       3.160   6.025  18.280  0.00  0.00    +0.000 C 
ATOM      7  C   UNL     1       4.331   5.535  19.192  0.00  0.00    +0.000 C 
ATOM      8  C   UNL     1       5.355   5.908  18.124  0.00  0.00    +0.000 C 
ATOM      9  C   UNL     1       4.229   6.106  17.116  0.00  0.00    +0.000 C 
BRANCH   6  10
ATOM     10  C   UNL     1       2.131   4.928  17.909  0.00  0.00    +0.000 C 
BRANCH  10  11
ATOM     11  C   UNL     1       2.221   3.723  18.833  0.00  0.00    +0.000 C 
BRANCH  11  12
ATOM     12  O   UNL     1       1.013   3.565  19.574  0.00  0.00    +0.000 OA
BRANCH  12  14
ATOM     13  C   UNL     1       2.315   3.177  21.557  0.00  0.00    +0.000 C 
ATOM     14  C   UNL     1       1.214   2.655  20.659  0.00  0.00    +0.000 C 
ENDBRANCH  12  14
ENDBRANCH  11  12
ENDBRANCH  10  11
ENDBRANCH   6  10
ENDBRANCH   2   6
ENDBRANCH   1   4
BRANCH   1  15
ATOM     15  C   UNL     1       0.883   9.595  21.267  0.00  0.00    +0.000 C 
BRANCH  15  16
ATOM     16  N   UNL     1       0.062  10.810  21.130  0.00  0.00    +0.000 N 
ATOM     17  C   UNL     1      -0.313  11.186  19.776  0.00  0.00    +0.000 C 
ATOM     18  C   UNL     1      -0.618  11.240  22.272  0.00  0.00    +0.000 C 
ATOM     19  O   UNL     1      -0.428  10.693  23.360  0.00  0.00    +0.000 OA
BRANCH  18  20
ATOM     20  C   UNL     1      -1.535  12.468  22.163  0.00  0.00    +0.000 C 
ATOM     21  C   UNL     1      -2.787  12.298  23.046  0.00  0.00    +0.000 C 
ATOM     22  C   UNL     1      -3.596  13.589  23.197  0.00  0.00    +0.000 C 
ATOM     23  C   UNL     1      -2.712  14.727  23.725  0.00  0.00    +0.000 C 
ATOM     24  C   UNL     1      -1.562  14.954  22.733  0.00  0.00    +0.000 C 
ATOM     25  C   UNL     1      -0.714  13.697  22.577  0.00  0.00    +0.000 C 
BRANCH  23  26
ATOM     26  C   UNL     1      -3.473  16.044  23.954  0.00  0.00    +0.000 C 
ATOM     27  C   UNL     1      -4.944  15.850  24.295  0.00  0.00    +0.000 C 
ENDBRANCH  23  26
ENDBRANCH  18  20
ENDBRANCH  15  16
ENDBRANCH   1  15
TORSDOF 10
ENDMDL
MODEL 4
REMARK VINA RESULT:      -6.3      3.551      6.025
REMARK  Name = 
REMARK  14 active torsions:
REMARK  status: ('A' for Active; 'I' for Inactive)
REMARK    1  A    between atoms: C_1  and  C_2
REMARK    2  A    between atoms: C_2  and  O_3
REMARK    3  A    between atoms: O_3  and  C_4
REMARK    4  A    between atoms: C_4  and  C_5
REMARK    5  A    between atoms: C_5  and  C_6
REMARK    6  A    between atoms: C_6  and  C_7
REMARK    7  A    between atoms: N_9  and  C_10
REMARK    8  A    between atoms: N_9  and  C_11
REMARK    9  A    between atoms: C_11  and  C_12
REMARK   10  A    between atoms: C_12  and  N_13
REMARK   11  A    between atoms: N_13  and  C_14
REMARK   12  A    between atoms: C_15  and  C_17
REMARK   13  A    between atoms: C_20  and  C_21
REMARK   14  A    between atoms: C_21  and  C_22
REMARK                            x       y       z     vdW  Elec       q    Type
REMARK                         _______ _______ _______ _____ _____    ______ ____
ROOT
ATOM      1  C   UNL     1       1.794   8.282  19.717  0.00  0.00    +0.000 C 
ENDROOT
BRANCH   1   4
ATOM      2  C   UNL     1       3.172   6.770  18.410  0.00  0.00    +0.000 C 
ATOM      3  O   UNL     1       3.272   7.709  17.600  0.00  0.00    +0.000 OA
ATOM      4  N   UNL     1       2.287   6.911  19.498  0.00  0.00    +0.000 N 
ATOM      5  C   UNL     1       2.021   5.910  20.515  0.00  0.00    +0.000 C 
BRANCH   2   6
ATOM      6  C   UNL     1       4.055   5.477  18.205  0.00  0.00    +0.000 C 
ATOM      7  C   UNL     1       4.698   4.754  19.433  0.00  0.00    +0.000 C 
ATOM      8  C   UNL     1       6.054   5.388  19.130  0.00  0.00    +0.000 C 
ATOM      9  C   UNL     1       5.531   5.853  17.776  0.00  0.00    +0.000 C 
BRANCH   6  10
ATOM     10  C   UNL     1       3.473   4.524  17.131  0.00  0.00    +0.000 C 
BRANCH  10  11
ATOM     11  C   UNL     1       2.250   3.773  17.636  0.00  0.00    +0.000 C 
BRANCH  11  12
ATOM     12  O   UNL     1       2.583   2.425  17.957  0.00  0.00    +0.000 OA
BRANCH  12  14
ATOM     13  C   UNL     1       0.725   2.848  19.422  0.00  0.00    +0.000 C 
ATOM     14  C   UNL     1       1.502   1.800  18.654  0.00  0.00    +0.000 C 
ENDBRANCH  12  14
ENDBRANCH  11  12
ENDBRANCH  10  11
ENDBRANCH   6  10
ENDBRANCH   2   6
ENDBRANCH   1   4
BRANCH   1  15
ATOM     15  C   UNL     1       1.067   8.599  21.033  0.00  0.00    +0.000 C 
BRANCH  15  16
ATOM     16  N   UNL     1       0.221   9.800  20.932  0.00  0.00    +0.000 N 
ATOM     17  C   UNL     1      -0.476   9.993  19.668  0.00  0.00    +0.000 C 
ATOM     18  C   UNL     1      -0.170  10.398  22.132  0.00  0.00    +0.000 C 
ATOM     19  O   UNL     1       0.285  10.003  23.208  0.00  0.00    +0.000 OA
BRANCH  18  20
ATOM     20  C   UNL     1      -1.102  11.617  22.078  0.00  0.00    +0.000 C 
ATOM     21  C   UNL     1      -2.089  11.607  23.263  0.00  0.00    +0.000 C 
ATOM     22  C   UNL     1      -2.853  12.925  23.420  0.00  0.00    +0.000 C 
ATOM     23  C   UNL     1      -1.880  14.107  23.536  0.00  0.00    +0.000 C 
ATOM     24  C   UNL     1      -1.021  14.160  22.265  0.00  0.00    +0.000 C 
ATOM     25  C   UNL     1      -0.222  12.874  22.087  0.00  0.00    +0.000 C 
BRANCH  23  26
ATOM     26  C   UNL     1      -2.578  15.460  23.753  0.00  0.00    +0.000 C 
ATOM     27  C   UNL     1      -3.277  15.580  25.101  0.00  0.00    +0.000 C 
ENDBRANCH  23  26
ENDBRANCH  18  20
ENDBRANCH  15  16
ENDBRANCH   1  15
TORSDOF 10
ENDMDL
MODEL 5
REMARK VINA RESULT:      -6.2      3.224      5.368
REMARK  Name = 
REMARK  14 active torsions:
REMARK  status: ('A' for Active; 'I' for Inactive)
REMARK    1  A    between atoms: C_1  and  C_2
REMARK    2  A    between atoms: C_2  and  O_3
REMARK    3  A    between atoms: O_3  and  C_4
REMARK    4  A    between atoms: C_4  and  C_5
REMARK    5  A    between atoms: C_5  and  C_6
REMARK    6  A    between atoms: C_6  and  C_7
REMARK    7  A    between atoms: N_9  and  C_10
REMARK    8  A    between atoms: N_9  and  C_11
REMARK    9  A    between atoms: C_11  and  C_12
REMARK   10  A    between atoms: C_12  and  N_13
REMARK   11  A    between atoms: N_13  and  C_14
REMARK   12  A    between atoms: C_15  and  C_17
REMARK   13  A    between atoms: C_20  and  C_21
REMARK   14  A    between atoms: C_21  and  C_22
REMARK                            x       y       z     vdW  Elec       q    Type
REMARK                         _______ _______ _______ _____ _____    ______ ____
ROOT
ATOM      1  C   UNL     1       1.221   7.417  20.663  0.00  0.00    +0.000 C 
ENDROOT
BRANCH   1   4
ATOM      2  C   UNL     1       2.480   5.529  19.800  0.00  0.00    +0.000 C 
ATOM      3  O   UNL     1       2.251   4.993  20.899  0.00  0.00    +0.000 OA
ATOM      4  N   UNL     1       2.109   6.877  19.619  0.00  0.00    +0.000 N 
ATOM      5  C   UNL     1       2.328   7.666  18.421  0.00  0.00    +0.000 C 
BRANCH   2   6
ATOM      6  C   UNL     1       3.144   4.676  18.649  0.00  0.00    +0.000 C 
ATOM      7  C   UNL     1       2.271   4.090  17.492  0.00  0.00    +0.000 C 
ATOM      8  C   UNL     1       2.289   2.709  18.144  0.00  0.00    +0.000 C 
ATOM      9  C   UNL     1       3.374   3.179  19.105  0.00  0.00    +0.000 C 
BRANCH   6  10
ATOM     10  C   UNL     1       4.509   5.253  18.196  0.00  0.00    +0.000 C 
BRANCH  10  11
ATOM     11  C   UNL     1       5.641   4.252  18.377  0.00  0.00    +0.000 C 
BRANCH  11  12
ATOM     12  O   UNL     1       6.796   4.660  17.647  0.00  0.00    +0.000 OA
BRANCH  12  14
ATOM     13  C   UNL     1       7.867   5.699  19.531  0.00  0.00    +0.000 C 
ATOM     14  C   UNL     1       7.285   5.906  18.149  0.00  0.00    +0.000 C 
ENDBRANCH  12  14
ENDBRANCH  11  12
ENDBRANCH  10  11
ENDBRANCH   6  10
ENDBRANCH   2   6
ENDBRANCH   1   4
BRANCH   1  15
ATOM     15  C   UNL     1       1.629   8.718  21.373  0.00  0.00    +0.000 C 
BRANCH  15  16
ATOM     16  N   UNL     1       0.644   9.795  21.181  0.00  0.00    +0.000 N 
ATOM     17  C   UNL     1       0.089   9.931  19.843  0.00  0.00    +0.000 C 
ATOM     18  C   UNL     1       0.028  10.296  22.331  0.00  0.00    +0.000 C 
ATOM     19  O   UNL     1       0.397   9.933  23.449  0.00  0.00    +0.000 OA
BRANCH  18  20
ATOM     20  C   UNL     1      -1.050  11.378  22.175  0.00  0.00    +0.000 C 
ATOM     21  C   UNL     1      -2.073  11.304  23.327  0.00  0.00    +0.000 C 
ATOM     22  C   UNL     1      -3.006  12.516  23.382  0.00  0.00    +0.000 C 
ATOM     23  C   UNL     1      -2.199  13.820  23.459  0.00  0.00    +0.000 C 
ATOM     24  C   UNL     1      -1.305  13.916  22.215  0.00  0.00    +0.000 C 
ATOM     25  C   UNL     1      -0.341  12.738  22.139  0.00  0.00    +0.000 C 
BRANCH  23  26
ATOM     26  C   UNL     1      -3.073  15.080  23.574  0.00  0.00    +0.000 C 
ATOM     27  C   UNL     1      -3.437  15.699  22.232  0.00  0.00    +0.000 C 
ENDBRANCH  23  26
ENDBRANCH  18  20
ENDBRANCH  15  16
ENDBRANCH   1  15
TORSDOF 10
ENDMDL
MODEL 6
REMARK VINA RESULT:      -6.1      1.329      2.800
REMARK  Name = 
REMARK  14 active torsions:
REMARK  status: ('A' for Active; 'I' for Inactive)
REMARK    1  A    between atoms: C_1  and  C_2
REMARK    2  A    between atoms: C_2  and  O_3
REMARK    3  A    between atoms: O_3  and  C_4
REMARK    4  A    between atoms: C_4  and  C_5
REMARK    5  A    between atoms: C_5  and  C_6
REMARK    6  A    between atoms: C_6  and  C_7
REMARK    7  A    between atoms: N_9  and  C_10
REMARK    8  A    between atoms: N_9  and  C_11
REMARK    9  A    between atoms: C_11  and  C_12
REMARK   10  A    between atoms: C_12  and  N_13
REMARK   11  A    between atoms: N_13  and  C_14
REMARK   12  A    between atoms: C_15  and  C_17
REMARK   13  A    between atoms: C_20  and  C_21
REMARK   14  A    between atoms: C_21  and  C_22
REMARK                            x       y       z     vdW  Elec       q    Type
REMARK                         _______ _______ _______ _____ _____    ______ ____
ROOT
ATOM      1  C   UNL     1       4.416   2.942  19.425  0.00  0.00    +0.000 C 
ENDROOT
BRANCH   1   4
ATOM      2  C   UNL     1       5.844   4.697  18.548  0.00  0.00    +0.000 C 
ATOM      3  O   UNL     1       6.070   4.981  19.737  0.00  0.00    +0.000 OA
ATOM      4  N   UNL     1       4.862   3.728  18.262  0.00  0.00    +0.000 N 
ATOM      5  C   UNL     1       4.448   3.300  16.938  0.00  0.00    +0.000 C 
BRANCH   2   6
ATOM      6  C   UNL     1       6.682   5.409  17.413  0.00  0.00    +0.000 C 
ATOM      7  C   UNL     1       7.762   6.477  17.777  0.00  0.00    +0.000 C 
ATOM      8  C   UNL     1       6.810   7.608  17.396  0.00  0.00    +0.000 C 
ATOM      9  C   UNL     1       5.866   6.596  16.758  0.00  0.00    +0.000 C 
BRANCH   6  10
ATOM     10  C   UNL     1       7.097   4.433  16.282  0.00  0.00    +0.000 C 
BRANCH  10  11
ATOM     11  C   UNL     1       7.026   5.085  14.910  0.00  0.00    +0.000 C 
BRANCH  11  12
ATOM     12  O   UNL     1       5.890   4.616  14.187  0.00  0.00    +0.000 OA
BRANCH  12  14
ATOM     13  C   UNL     1       7.049   4.222  12.118  0.00  0.00    +0.000 C 
ATOM     14  C   UNL     1       6.279   3.597  13.262  0.00  0.00    +0.000 C 
ENDBRANCH  12  14
ENDBRANCH  11  12
ENDBRANCH  10  11
ENDBRANCH   6  10
ENDBRANCH   2   6
ENDBRANCH   1   4
BRANCH   1  15
ATOM     15  C   UNL     1       2.942   3.033  19.851  0.00  0.00    +0.000 C 
BRANCH  15  16
ATOM     16  N   UNL     1       2.268   4.216  19.289  0.00  0.00    +0.000 N 
ATOM     17  C   UNL     1       1.279   3.962  18.252  0.00  0.00    +0.000 C 
ATOM     18  C   UNL     1       2.311   5.385  20.052  0.00  0.00    +0.000 C 
ATOM     19  O   UNL     1       2.991   5.442  21.078  0.00  0.00    +0.000 OA
BRANCH  18  20
ATOM     20  C   UNL     1       1.571   6.628  19.534  0.00  0.00    +0.000 C 
ATOM     21  C   UNL     1       1.396   7.670  20.658  0.00  0.00    +0.000 C 
ATOM     22  C   UNL     1       0.917   9.031  20.146  0.00  0.00    +0.000 C 
ATOM     23  C   UNL     1       1.858   9.564  19.056  0.00  0.00    +0.000 C 
ATOM     24  C   UNL     1       1.883   8.559  17.896  0.00  0.00    +0.000 C 
ATOM     25  C   UNL     1       2.381   7.195  18.361  0.00  0.00    +0.000 C 
BRANCH  23  26
ATOM     26  C   UNL     1       1.471  10.957  18.533  0.00  0.00    +0.000 C 
ATOM     27  C   UNL     1       0.104  11.431  19.008  0.00  0.00    +0.000 C 
ENDBRANCH  23  26
ENDBRANCH  18  20
ENDBRANCH  15  16
ENDBRANCH   1  15
TORSDOF 10
ENDMDL
MODEL 7
REMARK VINA RESULT:      -6.1      2.763      4.912
REMARK  Name = 
REMARK  14 active torsions:
REMARK  status: ('A' for Active; 'I' for Inactive)
REMARK    1  A    between atoms: C_1  and  C_2
REMARK    2  A    between atoms: C_2  and  O_3
REMARK    3  A    between atoms: O_3  and  C_4
REMARK    4  A    between atoms: C_4  and  C_5
REMARK    5  A    between atoms: C_5  and  C_6
REMARK    6  A    between atoms: C_6  and  C_7
REMARK    7  A    between atoms: N_9  and  C_10
REMARK    8  A    between atoms: N_9  and  C_11
REMARK    9  A    between atoms: C_11  and  C_12
REMARK   10  A    between atoms: C_12  and  N_13
REMARK   11  A    between atoms: N_13  and  C_14
REMARK   12  A    between atoms: C_15  and  C_17
REMARK   13  A    between atoms: C_20  and  C_21
REMARK   14  A    between atoms: C_21  and  C_22
REMARK                            x       y       z     vdW  Elec       q    Type
REMARK                         _______ _______ _______ _____ _____    ______ ____
ROOT
ATOM      1  C   UNL     1       2.622   7.660  18.356  0.00  0.00    +0.000 C 
ENDROOT
BRANCH   1   4
ATOM      2  C   UNL     1       4.344   6.066  17.737  0.00  0.00    +0.000 C 
ATOM      3  O   UNL     1       5.085   7.057  17.607  0.00  0.00    +0.000 OA
ATOM      4  N   UNL     1       2.973   6.279  17.985  0.00  0.00    +0.000 N 
ATOM      5  C   UNL     1       1.964   5.246  18.129  0.00  0.00    +0.000 C 
BRANCH   2   6
ATOM      6  C   UNL     1       4.970   4.619  17.648  0.00  0.00    +0.000 C 
ATOM      7  C   UNL     1       6.390   4.406  17.030  0.00  0.00    +0.000 C 
ATOM      8  C   UNL     1       5.775   3.917  15.721  0.00  0.00    +0.000 C 
ATOM      9  C   UNL     1       4.412   3.829  16.396  0.00  0.00    +0.000 C 
BRANCH   6  10
ATOM     10  C   UNL     1       4.685   3.771  18.913  0.00  0.00    +0.000 C 
BRANCH  10  11
ATOM     11  C   UNL     1       4.038   2.437  18.574  0.00  0.00    +0.000 C 
BRANCH  11  12
ATOM     12  O   UNL     1       2.891   2.211  19.390  0.00  0.00    +0.000 OA
BRANCH  12  14
ATOM     13  C   UNL     1       1.768   3.023  21.354  0.00  0.00    +0.000 C 
ATOM     14  C   UNL     1       3.104   2.741  20.701  0.00  0.00    +0.000 C 
ENDBRANCH  12  14
ENDBRANCH  11  12
ENDBRANCH  10  11
ENDBRANCH   6  10
ENDBRANCH   2   6
ENDBRANCH   1   4
BRANCH   1  15
ATOM     15  C   UNL     1       2.003   7.914  19.740  0.00  0.00    +0.000 C 
BRANCH  15  16
ATOM     16  N   UNL     1       1.217   9.158  19.784  0.00  0.00    +0.000 N 
ATOM     17  C   UNL     1       0.629   9.594  18.527  0.00  0.00    +0.000 C 
ATOM     18  C   UNL     1       0.759   9.568  21.039  0.00  0.00    +0.000 C 
ATOM     19  O   UNL     1       1.113   8.977  22.061  0.00  0.00    +0.000 OA
BRANCH  18  20
ATOM     20  C   UNL     1      -0.115  10.828  21.127  0.00  0.00    +0.000 C 
ATOM     21  C   UNL     1      -0.899  10.860  22.454  0.00  0.00    +0.000 C 
ATOM     22  C   UNL     1      -1.569  12.210  22.724  0.00  0.00    +0.000 C 
ATOM     23  C   UNL     1      -0.541  13.348  22.675  0.00  0.00    +0.000 C 
ATOM     24  C   UNL     1       0.106  13.365  21.283  0.00  0.00    +0.000 C 
ATOM     25  C   UNL     1       0.809  12.045  20.987  0.00  0.00    +0.000 C 
BRANCH  23  26
ATOM     26  C   UNL     1      -1.134  14.731  22.993  0.00  0.00    +0.000 C 
ATOM     27  C   UNL     1      -1.795  14.814  24.362  0.00  0.00    +0.000 C 
ENDBRANCH  23  26
ENDBRANCH  18  20
ENDBRANCH  15  16
ENDBRANCH   1  15
TORSDOF 10
ENDMDL
MODEL 8
REMARK VINA RESULT:      -6.1      2.978      5.720
REMARK  Name = 
REMARK  14 active torsions:
REMARK  status: ('A' for Active; 'I' for Inactive)
REMARK    1  A    between atoms: C_1  and  C_2
REMARK    2  A    between atoms: C_2  and  O_3
REMARK    3  A    between atoms: O_3  and  C_4
REMARK    4  A    between atoms: C_4  and  C_5
REMARK    5  A    between atoms: C_5  and  C_6
REMARK    6  A    between atoms: C_6  and  C_7
REMARK    7  A    between atoms: N_9  and  C_10
REMARK    8  A    between atoms: N_9  and  C_11
REMARK    9  A    between atoms: C_11  and  C_12
REMARK   10  A    between atoms: C_12  and  N_13
REMARK   11  A    between atoms: N_13  and  C_14
REMARK   12  A    between atoms: C_15  and  C_17
REMARK   13  A    between atoms: C_20  and  C_21
REMARK   14  A    between atoms: C_21  and  C_22
REMARK                            x       y       z     vdW  Elec       q    Type
REMARK                         _______ _______ _______ _____ _____    ______ ____
ROOT
ATOM      1  C   UNL     1       1.928   8.268  19.610  0.00  0.00    +0.000 C 
ENDROOT
BRANCH   1   4
ATOM      2  C   UNL     1       2.267   5.864  19.615  0.00  0.00    +0.000 C 
ATOM      3  O   UNL     1       1.700   5.880  20.722  0.00  0.00    +0.000 OA
ATOM      4  N   UNL     1       2.578   7.094  19.001  0.00  0.00    +0.000 N 
ATOM      5  C   UNL     1       3.264   7.263  17.734  0.00  0.00    +0.000 C 
BRANCH   2   6
ATOM      6  C   UNL     1       2.588   4.477  18.932  0.00  0.00    +0.000 C 
ATOM      7  C   UNL     1       1.680   3.930  17.783  0.00  0.00    +0.000 C 
ATOM      8  C   UNL     1       0.985   2.975  18.752  0.00  0.00    +0.000 C 
ATOM      9  C   UNL     1       2.049   3.271  19.803  0.00  0.00    +0.000 C 
BRANCH   6  10
ATOM     10  C   UNL     1       4.107   4.263  18.708  0.00  0.00    +0.000 C 
BRANCH  10  11
ATOM     11  C   UNL     1       4.417   3.809  17.290  0.00  0.00    +0.000 C 
BRANCH  11  12
ATOM     12  O   UNL     1       5.612   4.424  16.814  0.00  0.00    +0.000 OA
BRANCH  12  14
ATOM     13  C   UNL     1       6.439   4.859  14.599  0.00  0.00    +0.000 C 
ATOM     14  C   UNL     1       6.043   3.798  15.603  0.00  0.00    +0.000 C 
ENDBRANCH  12  14
ENDBRANCH  11  12
ENDBRANCH  10  11
ENDBRANCH   6  10
ENDBRANCH   2   6
ENDBRANCH   1   4
BRANCH   1  15
ATOM     15  C   UNL     1       1.311   9.328  18.683  0.00  0.00    +0.000 C 
BRANCH  15  16
ATOM     16  N   UNL     1       0.926  10.551  19.408  0.00  0.00    +0.000 N 
ATOM     17  C   UNL     1       1.463  11.801  18.894  0.00  0.00    +0.000 C 
ATOM     18  C   UNL     1      -0.206  10.468  20.222  0.00  0.00    +0.000 C 
ATOM     19  O   UNL     1      -0.767   9.387  20.412  0.00  0.00    +0.000 OA
BRANCH  18  20
ATOM     20  C   UNL     1      -0.681  11.734  20.951  0.00  0.00    +0.000 C 
ATOM     21  C   UNL     1      -1.979  12.277  20.320  0.00  0.00    +0.000 C 
ATOM     22  C   UNL     1      -2.648  13.366  21.163  0.00  0.00    +0.000 C 
ATOM     23  C   UNL     1      -2.910  12.864  22.590  0.00  0.00    +0.000 C 
ATOM     24  C   UNL     1      -1.569  12.474  23.226  0.00  0.00    +0.000 C 
ATOM     25  C   UNL     1      -0.882  11.371  22.429  0.00  0.00    +0.000 C 
BRANCH  23  26
ATOM     26  C   UNL     1      -3.634  13.888  23.481  0.00  0.00    +0.000 C 
ATOM     27  C   UNL     1      -3.548  15.318  22.965  0.00  0.00    +0.000 C 
ENDBRANCH  23  26
ENDBRANCH  18  20
ENDBRANCH  15  16
ENDBRANCH   1  15
TORSDOF 10
ENDMDL
MODEL 9
REMARK VINA RESULT:      -6.1      3.143      5.415
REMARK  Name = 
REMARK  14 active torsions:
REMARK  status: ('A' for Active; 'I' for Inactive)
REMARK    1  A    between atoms: C_1  and  C_2
REMARK    2  A    between atoms: C_2  and  O_3
REMARK    3  A    between atoms: O_3  and  C_4
REMARK    4  A    between atoms: C_4  and  C_5
REMARK    5  A    between atoms: C_5  and  C_6
REMARK    6  A    between atoms: C_6  and  C_7
REMARK    7  A    between atoms: N_9  and  C_10
REMARK    8  A    between atoms: N_9  and  C_11
REMARK    9  A    between atoms: C_11  and  C_12
REMARK   10  A    between atoms: C_12  and  N_13
REMARK   11  A    between atoms: N_13  and  C_14
REMARK   12  A    between atoms: C_15  and  C_17
REMARK   13  A    between atoms: C_20  and  C_21
REMARK   14  A    between atoms: C_21  and  C_22
REMARK                            x       y       z     vdW  Elec       q    Type
REMARK                         _______ _______ _______ _____ _____    ______ ____
ROOT
ATOM      1  C   UNL     1       1.610   7.327  20.372  0.00  0.00    +0.000 C 
ENDROOT
BRANCH   1   4
ATOM      2  C   UNL     1       2.628   5.160  19.974  0.00  0.00    +0.000 C 
ATOM      3  O   UNL     1       2.250   4.874  21.124  0.00  0.00    +0.000 OA
ATOM      4  N   UNL     1       2.474   6.487  19.525  0.00  0.00    +0.000 N 
ATOM      5  C   UNL     1       2.887   7.002  18.233  0.00  0.00    +0.000 C 
BRANCH   2   6
ATOM      6  C   UNL     1       3.233   4.025  19.057  0.00  0.00    +0.000 C 
ATOM      7  C   UNL     1       2.851   3.942  17.543  0.00  0.00    +0.000 C 
ATOM      8  C   UNL     1       1.872   2.805  17.826  0.00  0.00    +0.000 C 
ATOM      9  C   UNL     1       2.443   2.665  19.232  0.00  0.00    +0.000 C 
BRANCH   6  10
ATOM     10  C   UNL     1       4.728   3.753  19.358  0.00  0.00    +0.000 C 
BRANCH  10  11
ATOM     11  C   UNL     1       5.617   4.912  18.934  0.00  0.00    +0.000 C 
BRANCH  11  12
ATOM     12  O   UNL     1       6.883   4.437  18.483  0.00  0.00    +0.000 OA
BRANCH  12  14
ATOM     13  C   UNL     1       6.271   5.926  16.698  0.00  0.00    +0.000 C 
ATOM     14  C   UNL     1       7.029   4.672  17.080  0.00  0.00    +0.000 C 
ENDBRANCH  12  14
ENDBRANCH  11  12
ENDBRANCH  10  11
ENDBRANCH   6  10
ENDBRANCH   2   6
ENDBRANCH   1   4
BRANCH   1  15
ATOM     15  C   UNL     1       1.444   8.811  20.008  0.00  0.00    +0.000 C 
BRANCH  15  16
ATOM     16  N   UNL     1       0.913   9.608  21.127  0.00  0.00    +0.000 N 
ATOM     17  C   UNL     1       1.352   9.221  22.459  0.00  0.00    +0.000 C 
ATOM     18  C   UNL     1       0.402  10.869  20.814  0.00  0.00    +0.000 C 
ATOM     19  O   UNL     1       0.292  11.229  19.640  0.00  0.00    +0.000 OA
BRANCH  18  20
ATOM     20  C   UNL     1      -0.108  11.760  21.956  0.00  0.00    +0.000 C 
ATOM     21  C   UNL     1       0.023  13.252  21.589  0.00  0.00    +0.000 C 
ATOM     22  C   UNL     1      -0.715  14.178  22.560  0.00  0.00    +0.000 C 
ATOM     23  C   UNL     1      -2.193  13.777  22.675  0.00  0.00    +0.000 C 
ATOM     24  C   UNL     1      -2.270  12.331  23.185  0.00  0.00    +0.000 C 
ATOM     25  C   UNL     1      -1.568  11.373  22.229  0.00  0.00    +0.000 C 
BRANCH  23  26
ATOM     26  C   UNL     1      -3.012  14.700  23.593  0.00  0.00    +0.000 C 
ATOM     27  C   UNL     1      -2.409  14.878  24.980  0.00  0.00    +0.000 C 
ENDBRANCH  23  26
ENDBRANCH  18  20
ENDBRANCH  15  16
ENDBRANCH   1  15
TORSDOF 10
ENDMDL
