MODEL 1
REMARK VINA RESULT:      -7.0      0.000      0.000
REMARK  Name = 
REMARK  11 active torsions:
REMARK  status: ('A' for Active; 'I' for Inactive)
REMARK    1  A    between atoms: C_1  and  C_2
REMARK    2  A    between atoms: C_2  and  C_3
REMARK    3  A    between atoms: C_13  and  O_14
REMARK    4  A    between atoms: O_14  and  C_15
REMARK    5  A    between atoms: C_15  and  C_16
REMARK    6  A    between atoms: C_16  and  O_18
REMARK    7  A    between atoms: O_18  and  C_19
REMARK    8  A    between atoms: C_19  and  C_20
REMARK    9  A    between atoms: C_19  and  C_21
REMARK   10  A    between atoms: C_19  and  C_22
REMARK   11  A    between atoms: C_22  and  O_24
REMARK                            x       y       z     vdW  Elec       q    Type
REMARK                         _______ _______ _______ _____ _____    ______ ____
ROOT
ATOM      1  C   UNL     1       5.456   5.800  16.919  0.00  0.00    +0.000 C 
ATOM      2  C   UNL     1       6.973   5.728  16.663  0.00  0.00    +0.000 C 
ATOM      3  C   UNL     1       7.699   6.409  17.810  0.00  0.00    +0.000 C 
ATOM      4  C   UNL     1       7.473   5.492  18.992  0.00  0.00    +0.000 C 
ATOM      5  O   UNL     1       8.393   5.071  19.685  0.00  0.00    +0.000 OA
ATOM      6  C   UNL     1       6.031   5.239  19.350  0.00  0.00    +0.000 C 
ATOM      7  C   UNL     1       5.127   5.604  18.418  0.00  0.00    +0.000 C 
ATOM      8  C   UNL     1       3.862   6.345  18.669  0.00  0.00    +0.000 A 
ATOM      9  C   UNL     1       3.801   7.314  17.660  0.00  0.00    +0.000 A 
ATOM     10  C   UNL     1       2.832   8.296  17.619  0.00  0.00    +0.000 A 
ATOM     11  C   UNL     1       1.811   8.308  18.555  0.00  0.00    +0.000 A 
ATOM     12  C   UNL     1       1.814   7.306  19.575  0.00  0.00    +0.000 A 
ATOM     13 CL   UNL     1       0.530   7.219  20.755  0.00  0.00    +0.000 Cl
ATOM     14  C   UNL     1       2.851   6.320  19.630  0.00  0.00    +0.000 A 
ATOM     15 CL   UNL     1       2.880   5.056  20.819  0.00  0.00    +0.000 Cl
ATOM     16  C   UNL     1       4.923   7.229  16.672  0.00  0.00    +0.000 C 
ENDROOT
BRANCH   1  18
ATOM     17  C   UNL     1       5.507   4.116  14.919  0.00  0.00    +0.000 C 
ATOM     18  C   UNL     1       4.725   4.685  16.097  0.00  0.00    +0.000 C 
ENDBRANCH   1  18
BRANCH  11  19
ATOM     19  O   UNL     1       0.884   9.336  18.436  0.00  0.00    +0.000 OA
BRANCH  19  20
ATOM     20  C   UNL     1       0.959  10.430  19.408  0.00  0.00    +0.000 C 
BRANCH  20  21
ATOM     21  C   UNL     1      -0.330  11.259  19.346  0.00  0.00    +0.000 C 
ATOM     22  O   UNL     1      -0.624  11.988  18.442  0.00  0.00    +0.000 OA
BRANCH  21  23
ATOM     23  O   UNL     1      -1.081  11.037  20.482  0.00  0.00    +0.000 OA
BRANCH  23  24
ATOM     24  C   UNL     1      -1.252  12.123  21.451  0.00  0.00    +0.000 C 
ATOM     25  C   UNL     1      -0.020  13.038  21.468  0.00  0.00    +0.000 C 
ATOM     26  C   UNL     1      -2.575  12.862  21.209  0.00  0.00    +0.000 C 
BRANCH  24  27
ATOM     27  C   UNL     1      -1.354  11.476  22.854  0.00  0.00    +0.000 C 
ATOM     28  O   UNL     1      -0.473  10.799  23.365  0.00  0.00    +0.000 OA
BRANCH  27  29
ATOM     29  O   UNL     1      -2.517  11.716  23.515  0.00  0.00    +0.000 OA
ATOM     30  H   UNL     1      -3.302  11.282  23.129  0.00  0.00    +0.000 HD
ENDBRANCH  27  29
ENDBRANCH  24  27
ENDBRANCH  23  24
ENDBRANCH  21  23
ENDBRANCH  20  21
ENDBRANCH  19  20
ENDBRANCH  11  19
TORSDOF 8
ENDMDL
MODEL 2
REMARK VINA RESULT:      -7.0      2.759      8.394
REMARK  Name = 
REMARK  11 active torsions:
REMARK  status: ('A' for Active; 'I' for Inactive)
REMARK    1  A    between atoms: C_1  and  C_2
REMARK    2  A    between atoms: C_2  and  C_3
REMARK    3  A    between atoms: C_13  and  O_14
REMARK    4  A    between atoms: O_14  and  C_15
REMARK    5  A    between atoms: C_15  and  C_16
REMARK    6  A    between atoms: C_16  and  O_18
REMARK    7  A    between atoms: O_18  and  C_19
REMARK    8  A    between atoms: C_19  and  C_20
REMARK    9  A    between atoms: C_19  and  C_21
REMARK   10  A    between atoms: C_19  and  C_22
REMARK   11  A    between atoms: C_22  and  O_24
REMARK                            x       y       z     vdW  Elec       q    Type
REMARK                         _______ _______ _______ _____ _____    ______ ____
ROOT
ATOM      1  C   UNL     1       1.019  11.914  19.029  0.00  0.00    +0.000 C 
ATOM      2  C   UNL     1       0.121  13.009  18.424  0.00  0.00    +0.000 C 
ATOM      3  C   UNL     1      -1.190  12.385  17.983  0.00  0.00    +0.000 C 
ATOM      4  C   UNL     1      -1.878  12.007  19.278  0.00  0.00    +0.000 C 
ATOM      5  O   UNL     1      -3.025  12.350  19.538  0.00  0.00    +0.000 OA
ATOM      6  C   UNL     1      -1.110  11.064  20.168  0.00  0.00    +0.000 C 
ATOM      7  C   UNL     1       0.194  10.905  19.862  0.00  0.00    +0.000 C 
ATOM      8  C   UNL     1       0.928   9.613  19.800  0.00  0.00    +0.000 A 
ATOM      9  C   UNL     1       1.698   9.687  18.633  0.00  0.00    +0.000 A 
ATOM     10  C   UNL     1       2.430   8.623  18.148  0.00  0.00    +0.000 A 
ATOM     11  C   UNL     1       2.496   7.438  18.863  0.00  0.00    +0.000 A 
ATOM     12  C   UNL     1       1.760   7.340  20.084  0.00  0.00    +0.000 A 
ATOM     13 CL   UNL     1       1.839   5.901  21.070  0.00  0.00    +0.000 Cl
ATOM     14  C   UNL     1       0.968   8.438  20.551  0.00  0.00    +0.000 A 
ATOM     15 CL   UNL     1       0.090   8.390  22.046  0.00  0.00    +0.000 Cl
ATOM     16  C   UNL     1       1.595  11.002  17.924  0.00  0.00    +0.000 C 
ENDROOT
BRANCH   1  18
ATOM     17  C   UNL     1       2.544  13.970  19.567  0.00  0.00    +0.000 C 
ATOM     18  C   UNL     1       2.098  12.566  19.959  0.00  0.00    +0.000 C 
ENDBRANCH   1  18
BRANCH  11  19
ATOM     19  O   UNL     1       3.255   6.423  18.294  0.00  0.00    +0.000 OA
BRANCH  19  20
ATOM     20  C   UNL     1       4.597   6.195  18.837  0.00  0.00    +0.000 C 
BRANCH  20  21
ATOM     21  C   UNL     1       4.839   4.688  18.989  0.00  0.00    +0.000 C 
ATOM     22  O   UNL     1       5.918   4.169  18.955  0.00  0.00    +0.000 OA
BRANCH  21  23
ATOM     23  O   UNL     1       3.635   4.038  19.163  0.00  0.00    +0.000 OA
BRANCH  23  24
ATOM     24  C   UNL     1       3.166   3.108  18.133  0.00  0.00    +0.000 C 
ATOM     25  C   UNL     1       3.749   3.474  16.761  0.00  0.00    +0.000 C 
ATOM     26  C   UNL     1       3.430   1.655  18.554  0.00  0.00    +0.000 C 
BRANCH  24  27
ATOM     27  C   UNL     1       1.630   3.269  18.029  0.00  0.00    +0.000 C 
ATOM     28  O   UNL     1       1.073   4.132  17.366  0.00  0.00    +0.000 OA
BRANCH  27  29
ATOM     29  O   UNL     1       0.907   2.362  18.738  0.00  0.00    +0.000 OA
ATOM     30  H   UNL     1       0.806   2.572  19.686  0.00  0.00    +0.000 HD
ENDBRANCH  27  29
ENDBRANCH  24  27
ENDBRANCH  23  24
ENDBRANCH  21  23
ENDBRANCH  20  21
ENDBRANCH  19  20
ENDBRANCH  11  19
TORSDOF 8
ENDMDL
MODEL 3
REMARK VINA RESULT:      -6.9      2.217      8.782
REMARK  Name = 
REMARK  11 active torsions:
REMARK  status: ('A' for Active; 'I' for Inactive)
REMARK    1  A    between atoms: C_1  and  C_2
REMARK    2  A    between atoms: C_2  and  C_3
REMARK    3  A    between atoms: C_13  and  O_14
REMARK    4  A    between atoms: O_14  and  C_15
REMARK    5  A    between atoms: C_15  and  C_16
REMARK    6  A    between atoms: C_16  and  O_18
REMARK    7  A    between atoms: O_18  and  C_19
REMARK    8  A    between atoms: C_19  and  C_20
REMARK    9  A    between atoms: C_19  and  C_21
REMARK   10  A    between atoms: C_19  and  C_22
REMARK   11  A    between atoms: C_22  and  O_24
REMARK                            x       y       z     vdW  Elec       q    Type
REMARK                         _______ _______ _______ _____ _____    ______ ____
ROOT
ATOM      1  C   UNL     1       0.922  11.966  19.001  0.00  0.00    +0.000 C 
ATOM      2  C   UNL     1      -0.005  13.033  18.389  0.00  0.00    +0.000 C 
ATOM      3  C   UNL     1      -1.305  12.373  17.966  0.00  0.00    +0.000 C 
ATOM      4  C   UNL     1      -1.975  11.997  19.271  0.00  0.00    +0.000 C 
ATOM      5  O   UNL     1      -3.127  12.317  19.536  0.00  0.00    +0.000 OA
ATOM      6  C   UNL     1      -1.179  11.083  20.167  0.00  0.00    +0.000 C 
ATOM      7  C   UNL     1       0.126  10.950  19.854  0.00  0.00    +0.000 C 
ATOM      8  C   UNL     1       0.888   9.674  19.802  0.00  0.00    +0.000 A 
ATOM      9  C   UNL     1       1.648   9.750  18.628  0.00  0.00    +0.000 A 
ATOM     10  C   UNL     1       2.400   8.696  18.151  0.00  0.00    +0.000 A 
ATOM     11  C   UNL     1       2.498   7.522  18.881  0.00  0.00    +0.000 A 
ATOM     12  C   UNL     1       1.773   7.424  20.109  0.00  0.00    +0.000 A 
ATOM     13 CL   UNL     1       1.892   6.000  21.113  0.00  0.00    +0.000 Cl
ATOM     14  C   UNL     1       0.961   8.510  20.568  0.00  0.00    +0.000 A 
ATOM     15 CL   UNL     1       0.095   8.461  22.071  0.00  0.00    +0.000 Cl
ATOM     16  C   UNL     1       1.510  11.052  17.904  0.00  0.00    +0.000 C 
ENDROOT
BRANCH   1  18
ATOM     17  C   UNL     1       1.466  13.741  20.844  0.00  0.00    +0.000 C 
ATOM     18  C   UNL     1       1.993  12.654  19.914  0.00  0.00    +0.000 C 
ENDBRANCH   1  18
BRANCH  11  19
ATOM     19  O   UNL     1       3.276   6.517  18.319  0.00  0.00    +0.000 OA
BRANCH  19  20
ATOM     20  C   UNL     1       2.588   5.311  17.852  0.00  0.00    +0.000 C 
BRANCH  20  21
ATOM     21  C   UNL     1       3.623   4.271  17.405  0.00  0.00    +0.000 C 
ATOM     22  O   UNL     1       3.352   3.181  16.989  0.00  0.00    +0.000 OA
BRANCH  21  23
ATOM     23  O   UNL     1       4.894   4.784  17.559  0.00  0.00    +0.000 OA
BRANCH  23  24
ATOM     24  C   UNL     1       5.696   5.081  16.370  0.00  0.00    +0.000 C 
ATOM     25  C   UNL     1       5.792   3.853  15.455  0.00  0.00    +0.000 C 
ATOM     26  C   UNL     1       5.177   6.344  15.667  0.00  0.00    +0.000 C 
BRANCH  24  27
ATOM     27  C   UNL     1       7.133   5.400  16.850  0.00  0.00    +0.000 C 
ATOM     28  O   UNL     1       7.848   4.610  17.453  0.00  0.00    +0.000 OA
BRANCH  27  29
ATOM     29  O   UNL     1       7.577   6.649  16.549  0.00  0.00    +0.000 OA
ATOM     30  H   UNL     1       7.953   6.743  15.653  0.00  0.00    +0.000 HD
ENDBRANCH  27  29
ENDBRANCH  24  27
ENDBRANCH  23  24
ENDBRANCH  21  23
ENDBRANCH  20  21
ENDBRANCH  19  20
ENDBRANCH  11  19
TORSDOF 8
ENDMDL
MODEL 4
REMARK VINA RESULT:      -6.9      0.883      1.668
REMARK  Name = 
REMARK  11 active torsions:
REMARK  status: ('A' for Active; 'I' for Inactive)
REMARK    1  A    between atoms: C_1  and  C_2
REMARK    2  A    between atoms: C_2  and  C_3
REMARK    3  A    between atoms: C_13  and  O_14
REMARK    4  A    between atoms: O_14  and  C_15
REMARK    5  A    between atoms: C_15  and  C_16
REMARK    6  A    between atoms: C_16  and  O_18
REMARK    7  A    between atoms: O_18  and  C_19
REMARK    8  A    between atoms: C_19  and  C_20
REMARK    9  A    between atoms: C_19  and  C_21
REMARK   10  A    between atoms: C_19  and  C_22
REMARK   11  A    between atoms: C_22  and  O_24
REMARK                            x       y       z     vdW  Elec       q    Type
REMARK                         _______ _______ _______ _____ _____    ______ ____
ROOT
ATOM      1  C   UNL     1       5.424   5.917  16.929  0.00  0.00    +0.000 C 
ATOM      2  C   UNL     1       6.939   5.876  16.652  0.00  0.00    +0.000 C 
ATOM      3  C   UNL     1       7.673   6.498  17.826  0.00  0.00    +0.000 C 
ATOM      4  C   UNL     1       7.471   5.512  18.957  0.00  0.00    +0.000 C 
ATOM      5  O   UNL     1       8.403   5.063  19.613  0.00  0.00    +0.000 OA
ATOM      6  C   UNL     1       6.036   5.225  19.317  0.00  0.00    +0.000 C 
ATOM      7  C   UNL     1       5.116   5.633  18.418  0.00  0.00    +0.000 C 
ATOM      8  C   UNL     1       3.848   6.345  18.726  0.00  0.00    +0.000 A 
ATOM      9  C   UNL     1       3.764   7.369  17.775  0.00  0.00    +0.000 A 
ATOM     10  C   UNL     1       2.786   8.342  17.802  0.00  0.00    +0.000 A 
ATOM     11  C   UNL     1       1.776   8.289  18.749  0.00  0.00    +0.000 A 
ATOM     12  C   UNL     1       1.801   7.231  19.710  0.00  0.00    +0.000 A 
ATOM     13 CL   UNL     1       0.534   7.064  20.899  0.00  0.00    +0.000 Cl
ATOM     14  C   UNL     1       2.849   6.255  19.696  0.00  0.00    +0.000 A 
ATOM     15 CL   UNL     1       2.905   4.926  20.810  0.00  0.00    +0.000 Cl
ATOM     16  C   UNL     1       4.875   7.352  16.771  0.00  0.00    +0.000 C 
ENDROOT
BRANCH   1  18
ATOM     17  C   UNL     1       5.604   3.877  15.303  0.00  0.00    +0.000 C 
ATOM     18  C   UNL     1       4.694   4.843  16.054  0.00  0.00    +0.000 C 
ENDBRANCH   1  18
BRANCH  11  19
ATOM     19  O   UNL     1       0.838   9.313  18.700  0.00  0.00    +0.000 OA
BRANCH  19  20
ATOM     20  C   UNL     1       1.174  10.571  19.370  0.00  0.00    +0.000 C 
BRANCH  20  21
ATOM     21  C   UNL     1       0.604  10.562  20.794  0.00  0.00    +0.000 C 
ATOM     22  O   UNL     1       1.249  10.347  21.781  0.00  0.00    +0.000 OA
BRANCH  21  23
ATOM     23  O   UNL     1      -0.748  10.833  20.756  0.00  0.00    +0.000 OA
BRANCH  23  24
ATOM     24  C   UNL     1      -1.251  12.059  21.380  0.00  0.00    +0.000 C 
ATOM     25  C   UNL     1      -1.800  11.772  22.784  0.00  0.00    +0.000 C 
ATOM     26  C   UNL     1      -0.186  13.164  21.341  0.00  0.00    +0.000 C 
BRANCH  24  27
ATOM     27  C   UNL     1      -2.441  12.558  20.523  0.00  0.00    +0.000 C 
ATOM     28  O   UNL     1      -3.584  12.680  20.939  0.00  0.00    +0.000 OA
BRANCH  27  29
ATOM     29  O   UNL     1      -2.132  12.870  19.237  0.00  0.00    +0.000 OA
ATOM     30  H   UNL     1      -1.264  13.301  19.119  0.00  0.00    +0.000 HD
ENDBRANCH  27  29
ENDBRANCH  24  27
ENDBRANCH  23  24
ENDBRANCH  21  23
ENDBRANCH  20  21
ENDBRANCH  19  20
ENDBRANCH  11  19
TORSDOF 8
ENDMDL
MODEL 5
REMARK VINA RESULT:      -6.9      2.265      9.001
REMARK  Name = 
REMARK  11 active torsions:
REMARK  status: ('A' for Active; 'I' for Inactive)
REMARK    1  A    between atoms: C_1  and  C_2
REMARK    2  A    between atoms: C_2  and  C_3
REMARK    3  A    between atoms: C_13  and  O_14
REMARK    4  A    between atoms: O_14  and  C_15
REMARK    5  A    between atoms: C_15  and  C_16
REMARK    6  A    between atoms: C_16  and  O_18
REMARK    7  A    between atoms: O_18  and  C_19
REMARK    8  A    between atoms: C_19  and  C_20
REMARK    9  A    between atoms: C_19  and  C_21
REMARK   10  A    between atoms: C_19  and  C_22
REMARK   11  A    between atoms: C_22  and  O_24
REMARK                            x       y       z     vdW  Elec       q    Type
REMARK                         _______ _______ _______ _____ _____    ______ ____
ROOT
ATOM      1  C   UNL     1       0.961  12.159  19.093  0.00  0.00    +0.000 C 
ATOM      2  C   UNL     1      -0.038  13.270  18.720  0.00  0.00    +0.000 C 
ATOM      3  C   UNL     1      -1.399  12.646  18.466  0.00  0.00    +0.000 C 
ATOM      4  C   UNL     1      -1.853  12.175  19.831  0.00  0.00    +0.000 C 
ATOM      5  O   UNL     1      -2.943  12.477  20.303  0.00  0.00    +0.000 OA
ATOM      6  C   UNL     1      -0.936  11.195  20.517  0.00  0.00    +0.000 C 
ATOM      7  C   UNL     1       0.300  11.083  19.987  0.00  0.00    +0.000 C 
ATOM      8  C   UNL     1       1.025   9.813  19.719  0.00  0.00    +0.000 A 
ATOM      9  C   UNL     1       1.586   9.975  18.445  0.00  0.00    +0.000 A 
ATOM     10  C   UNL     1       2.236   8.958  17.777  0.00  0.00    +0.000 A 
ATOM     11  C   UNL     1       2.435   7.734  18.393  0.00  0.00    +0.000 A 
ATOM     12  C   UNL     1       1.917   7.545  19.712  0.00  0.00    +0.000 A 
ATOM     13 CL   UNL     1       2.176   6.050  20.575  0.00  0.00    +0.000 Cl
ATOM     14  C   UNL     1       1.204   8.595  20.375  0.00  0.00    +0.000 A 
ATOM     15 CL   UNL     1       0.592   8.436  21.991  0.00  0.00    +0.000 Cl
ATOM     16  C   UNL     1       1.351  11.329  17.851  0.00  0.00    +0.000 C 
ENDROOT
BRANCH   1  18
ATOM     17  C   UNL     1       2.151  14.290  20.033  0.00  0.00    +0.000 C 
ATOM     18  C   UNL     1       2.175  12.775  19.868  0.00  0.00    +0.000 C 
ENDBRANCH   1  18
BRANCH  11  19
ATOM     19  O   UNL     1       3.097   6.771  17.640  0.00  0.00    +0.000 OA
BRANCH  19  20
ATOM     20  C   UNL     1       4.458   6.414  18.046  0.00  0.00    +0.000 C 
BRANCH  20  21
ATOM     21  C   UNL     1       5.435   6.738  16.908  0.00  0.00    +0.000 C 
ATOM     22  O   UNL     1       6.335   7.523  16.992  0.00  0.00    +0.000 OA
BRANCH  21  23
ATOM     23  O   UNL     1       5.111   5.996  15.791  0.00  0.00    +0.000 OA
BRANCH  23  24
ATOM     24  C   UNL     1       5.731   4.683  15.599  0.00  0.00    +0.000 C 
ATOM     25  C   UNL     1       5.293   3.706  16.698  0.00  0.00    +0.000 C 
ATOM     26  C   UNL     1       5.483   4.170  14.173  0.00  0.00    +0.000 C 
BRANCH  24  27
ATOM     27  C   UNL     1       7.261   4.870  15.743  0.00  0.00    +0.000 C 
ATOM     28  O   UNL     1       7.932   4.375  16.639  0.00  0.00    +0.000 OA
BRANCH  27  29
ATOM     29  O   UNL     1       7.841   5.637  14.783  0.00  0.00    +0.000 OA
ATOM     30  H   UNL     1       7.335   5.698  13.950  0.00  0.00    +0.000 HD
ENDBRANCH  27  29
ENDBRANCH  24  27
ENDBRANCH  23  24
ENDBRANCH  21  23
ENDBRANCH  20  21
ENDBRANCH  19  20
ENDBRANCH  11  19
TORSDOF 8
ENDMDL
MODEL 6
REMARK VINA RESULT:      -6.9      1.466      2.052
REMARK  Name = 
REMARK  11 active torsions:
REMARK  status: ('A' for Active; 'I' for Inactive)
REMARK    1  A    between atoms: C_1  and  C_2
REMARK    2  A    between atoms: C_2  and  C_3
REMARK    3  A    between atoms: C_13  and  O_14
REMARK    4  A    between atoms: O_14  and  C_15
REMARK    5  A    between atoms: C_15  and  C_16
REMARK    6  A    between atoms: C_16  and  O_18
REMARK    7  A    between atoms: O_18  and  C_19
REMARK    8  A    between atoms: C_19  and  C_20
REMARK    9  A    between atoms: C_19  and  C_21
REMARK   10  A    between atoms: C_19  and  C_22
REMARK   11  A    between atoms: C_22  and  O_24
REMARK                            x       y       z     vdW  Elec       q    Type
REMARK                         _______ _______ _______ _____ _____    ______ ____
ROOT
ATOM      1  C   UNL     1       5.422   5.877  16.906  0.00  0.00    +0.000 C 
ATOM      2  C   UNL     1       6.935   5.837  16.620  0.00  0.00    +0.000 C 
ATOM      3  C   UNL     1       7.674   6.463  17.789  0.00  0.00    +0.000 C 
ATOM      4  C   UNL     1       7.480   5.481  18.924  0.00  0.00    +0.000 C 
ATOM      5  O   UNL     1       8.416   5.034  19.576  0.00  0.00    +0.000 OA
ATOM      6  C   UNL     1       6.047   5.192  19.292  0.00  0.00    +0.000 C 
ATOM      7  C   UNL     1       5.122   5.596  18.397  0.00  0.00    +0.000 C 
ATOM      8  C   UNL     1       3.854   6.307  18.710  0.00  0.00    +0.000 A 
ATOM      9  C   UNL     1       3.764   7.329  17.757  0.00  0.00    +0.000 A 
ATOM     10  C   UNL     1       2.784   8.301  17.787  0.00  0.00    +0.000 A 
ATOM     11  C   UNL     1       1.780   8.249  18.739  0.00  0.00    +0.000 A 
ATOM     12  C   UNL     1       1.812   7.193  19.703  0.00  0.00    +0.000 A 
ATOM     13 CL   UNL     1       0.551   7.028  20.899  0.00  0.00    +0.000 Cl
ATOM     14  C   UNL     1       2.861   6.219  19.686  0.00  0.00    +0.000 A 
ATOM     15 CL   UNL     1       2.925   4.893  20.803  0.00  0.00    +0.000 Cl
ATOM     16  C   UNL     1       4.869   7.311  16.746  0.00  0.00    +0.000 C 
ENDROOT
BRANCH   1  18
ATOM     17  C   UNL     1       5.407   4.384  14.759  0.00  0.00    +0.000 C 
ATOM     18  C   UNL     1       4.688   4.800  16.037  0.00  0.00    +0.000 C 
ENDBRANCH   1  18
BRANCH  11  19
ATOM     19  O   UNL     1       0.841   9.271  18.693  0.00  0.00    +0.000 OA
BRANCH  19  20
ATOM     20  C   UNL     1       0.775  10.183  19.837  0.00  0.00    +0.000 C 
BRANCH  20  21
ATOM     21  C   UNL     1       1.028  11.620  19.363  0.00  0.00    +0.000 C 
ATOM     22  O   UNL     1       1.729  11.914  18.438  0.00  0.00    +0.000 OA
BRANCH  21  23
ATOM     23  O   UNL     1       0.333  12.503  20.163  0.00  0.00    +0.000 OA
BRANCH  23  24
ATOM     24  C   UNL     1      -0.737  13.313  19.576  0.00  0.00    +0.000 C 
ATOM     25  C   UNL     1      -1.765  13.715  20.642  0.00  0.00    +0.000 C 
ATOM     26  C   UNL     1      -0.153  14.498  18.794  0.00  0.00    +0.000 C 
BRANCH  24  27
ATOM     27  C   UNL     1      -1.477  12.423  18.547  0.00  0.00    +0.000 C 
ATOM     28  O   UNL     1      -2.304  11.571  18.844  0.00  0.00    +0.000 OA
BRANCH  27  29
ATOM     29  O   UNL     1      -1.151  12.652  17.248  0.00  0.00    +0.000 OA
ATOM     30  H   UNL     1      -0.584  13.433  17.102  0.00  0.00    +0.000 HD
ENDBRANCH  27  29
ENDBRANCH  24  27
ENDBRANCH  23  24
ENDBRANCH  21  23
ENDBRANCH  20  21
ENDBRANCH  19  20
ENDBRANCH  11  19
TORSDOF 8
ENDMDL
MODEL 7
REMARK VINA RESULT:      -6.9      1.269      2.337
REMARK  Name = 
REMARK  11 active torsions:
REMARK  status: ('A' for Active; 'I' for Inactive)
REMARK    1  A    between atoms: C_1  and  C_2
REMARK    2  A    between atoms: C_2  and  C_3
REMARK    3  A    between atoms: C_13  and  O_14
REMARK    4  A    between atoms: O_14  and  C_15
REMARK    5  A    between atoms: C_15  and  C_16
REMARK    6  A    between atoms: C_16  and  O_18
REMARK    7  A    between atoms: O_18  and  C_19
REMARK    8  A    between atoms: C_19  and  C_20
REMARK    9  A    between atoms: C_19  and  C_21
REMARK   10  A    between atoms: C_19  and  C_22
REMARK   11  A    between atoms: C_22  and  O_24
REMARK                            x       y       z     vdW  Elec       q    Type
REMARK                         _______ _______ _______ _____ _____    ______ ____
ROOT
ATOM      1  C   UNL     1       5.263   5.691  16.914  0.00  0.00    +0.000 C 
ATOM      2  C   UNL     1       6.763   5.556  16.595  0.00  0.00    +0.000 C 
ATOM      3  C   UNL     1       7.563   6.267  17.672  0.00  0.00    +0.000 C 
ATOM      4  C   UNL     1       7.363   5.416  18.908  0.00  0.00    +0.000 C 
ATOM      5  O   UNL     1       8.300   4.999  19.579  0.00  0.00    +0.000 OA
ATOM      6  C   UNL     1       5.932   5.229  19.341  0.00  0.00    +0.000 C 
ATOM      7  C   UNL     1       4.997   5.579  18.434  0.00  0.00    +0.000 C 
ATOM      8  C   UNL     1       3.769   6.373  18.704  0.00  0.00    +0.000 A 
ATOM      9  C   UNL     1       3.692   7.294  17.651  0.00  0.00    +0.000 A 
ATOM     10  C   UNL     1       2.754   8.305  17.606  0.00  0.00    +0.000 A 
ATOM     11  C   UNL     1       1.778   8.396  18.584  0.00  0.00    +0.000 A 
ATOM     12  C   UNL     1       1.796   7.445  19.652  0.00  0.00    +0.000 A 
ATOM     13 CL   UNL     1       0.566   7.459  20.891  0.00  0.00    +0.000 Cl
ATOM     14  C   UNL     1       2.804   6.429  19.709  0.00  0.00    +0.000 A 
ATOM     15 CL   UNL     1       2.848   5.224  20.957  0.00  0.00    +0.000 Cl
ATOM     16  C   UNL     1       4.764   7.123  16.621  0.00  0.00    +0.000 C 
ENDROOT
BRANCH   1  18
ATOM     17  C   UNL     1       3.965   3.426  17.068  0.00  0.00    +0.000 C 
ATOM     18  C   UNL     1       4.460   4.563  16.182  0.00  0.00    +0.000 C 
ENDBRANCH   1  18
BRANCH  11  19
ATOM     19  O   UNL     1       0.879   9.448  18.456  0.00  0.00    +0.000 OA
BRANCH  19  20
ATOM     20  C   UNL     1       1.152  10.668  19.219  0.00  0.00    +0.000 C 
BRANCH  20  21
ATOM     21  C   UNL     1      -0.037  10.975  20.137  0.00  0.00    +0.000 C 
ATOM     22  O   UNL     1       0.060  11.315  21.281  0.00  0.00    +0.000 OA
BRANCH  21  23
ATOM     23  O   UNL     1      -1.218  10.795  19.445  0.00  0.00    +0.000 OA
BRANCH  23  24
ATOM     24  C   UNL     1      -1.925  11.965  18.919  0.00  0.00    +0.000 C 
ATOM     25  C   UNL     1      -2.894  12.534  19.965  0.00  0.00    +0.000 C 
ATOM     26  C   UNL     1      -0.931  12.996  18.365  0.00  0.00    +0.000 C 
BRANCH  24  27
ATOM     27  C   UNL     1      -2.782  11.486  17.722  0.00  0.00    +0.000 C 
ATOM     28  O   UNL     1      -2.320  11.086  16.662  0.00  0.00    +0.000 OA
BRANCH  27  29
ATOM     29  O   UNL     1      -4.125  11.531  17.921  0.00  0.00    +0.000 OA
ATOM     30  H   UNL     1      -4.566  12.319  17.549  0.00  0.00    +0.000 HD
ENDBRANCH  27  29
ENDBRANCH  24  27
ENDBRANCH  23  24
ENDBRANCH  21  23
ENDBRANCH  20  21
ENDBRANCH  19  20
ENDBRANCH  11  19
TORSDOF 8
ENDMDL
MODEL 8
REMARK VINA RESULT:      -6.8      3.169      8.371
REMARK  Name = 
REMARK  11 active torsions:
REMARK  status: ('A' for Active; 'I' for Inactive)
REMARK    1  A    between atoms: C_1  and  C_2
REMARK    2  A    between atoms: C_2  and  C_3
REMARK    3  A    between atoms: C_13  and  O_14
REMARK    4  A    between atoms: O_14  and  C_15
REMARK    5  A    between atoms: C_15  and  C_16
REMARK    6  A    between atoms: C_16  and  O_18
REMARK    7  A    between atoms: O_18  and  C_19
REMARK    8  A    between atoms: C_19  and  C_20
REMARK    9  A    between atoms: C_19  and  C_21
REMARK   10  A    between atoms: C_19  and  C_22
REMARK   11  A    between atoms: C_22  and  O_24
REMARK                            x       y       z     vdW  Elec       q    Type
REMARK                         _______ _______ _______ _____ _____    ______ ____
ROOT
ATOM      1  C   UNL     1       0.775  12.204  18.998  0.00  0.00    +0.000 C 
ATOM      2  C   UNL     1      -0.225  13.255  18.479  0.00  0.00    +0.000 C 
ATOM      3  C   UNL     1      -1.559  12.579  18.217  0.00  0.00    +0.000 C 
ATOM      4  C   UNL     1      -2.072  12.219  19.595  0.00  0.00    +0.000 C 
ATOM      5  O   UNL     1      -3.190  12.536  19.984  0.00  0.00    +0.000 OA
ATOM      6  C   UNL     1      -1.172  11.326  20.408  0.00  0.00    +0.000 C 
ATOM      7  C   UNL     1       0.090  11.196  19.950  0.00  0.00    +0.000 C 
ATOM      8  C   UNL     1       0.853   9.925  19.832  0.00  0.00    +0.000 A 
ATOM      9  C   UNL     1       1.473   9.987  18.578  0.00  0.00    +0.000 A 
ATOM     10  C   UNL     1       2.176   8.931  18.035  0.00  0.00    +0.000 A 
ATOM     11  C   UNL     1       2.367   7.771  18.766  0.00  0.00    +0.000 A 
ATOM     12  C   UNL     1       1.787   7.686  20.070  0.00  0.00    +0.000 A 
ATOM     13 CL   UNL     1       2.031   6.280  21.075  0.00  0.00    +0.000 Cl
ATOM     14  C   UNL     1       1.022   8.774  20.602  0.00  0.00    +0.000 A 
ATOM     15 CL   UNL     1       0.332   8.743  22.194  0.00  0.00    +0.000 Cl
ATOM     16  C   UNL     1       1.243  11.278  17.854  0.00  0.00    +0.000 C 
ENDROOT
BRANCH   1  18
ATOM     17  C   UNL     1       2.932  13.681  18.909  0.00  0.00    +0.000 C 
ATOM     18  C   UNL     1       1.937  12.914  19.773  0.00  0.00    +0.000 C 
ENDBRANCH   1  18
BRANCH  11  19
ATOM     19  O   UNL     1       3.084   6.762  18.135  0.00  0.00    +0.000 OA
BRANCH  19  20
ATOM     20  C   UNL     1       2.370   5.525  17.810  0.00  0.00    +0.000 C 
BRANCH  20  21
ATOM     21  C   UNL     1       3.314   4.328  17.978  0.00  0.00    +0.000 C 
ATOM     22  O   UNL     1       3.862   3.766  17.073  0.00  0.00    +0.000 OA
BRANCH  21  23
ATOM     23  O   UNL     1       3.426   4.007  19.315  0.00  0.00    +0.000 OA
BRANCH  23  24
ATOM     24  C   UNL     1       3.096   2.649  19.755  0.00  0.00    +0.000 C 
ATOM     25  C   UNL     1       2.263   1.918  18.694  0.00  0.00    +0.000 C 
ATOM     26  C   UNL     1       4.363   1.895  20.183  0.00  0.00    +0.000 C 
BRANCH  24  27
ATOM     27  C   UNL     1       2.208   2.776  21.017  0.00  0.00    +0.000 C 
ATOM     28  O   UNL     1       2.611   2.614  22.161  0.00  0.00    +0.000 OA
BRANCH  27  29
ATOM     29  O   UNL     1       0.909   3.095  20.777  0.00  0.00    +0.000 OA
ATOM     30  H   UNL     1       0.442   3.501  21.533  0.00  0.00    +0.000 HD
ENDBRANCH  27  29
ENDBRANCH  24  27
ENDBRANCH  23  24
ENDBRANCH  21  23
ENDBRANCH  20  21
ENDBRANCH  19  20
ENDBRANCH  11  19
TORSDOF 8
ENDMDL
MODEL 9
REMARK VINA RESULT:      -6.8      1.961      9.175
REMARK  Name = 
REMARK  11 active torsions:
REMARK  status: ('A' for Active; 'I' for Inactive)
REMARK    1  A    between atoms: C_1  and  C_2
REMARK    2  A    between atoms: C_2  and  C_3
REMARK    3  A    between atoms: C_13  and  O_14
REMARK    4  A    between atoms: O_14  and  C_15
REMARK    5  A    between atoms: C_15  and  C_16
REMARK    6  A    between atoms: C_16  and  O_18
REMARK    7  A    between atoms: O_18  and  C_19
REMARK    8  A    between atoms: C_19  and  C_20
REMARK    9  A    between atoms: C_19  and  C_21
REMARK   10  A    between atoms: C_19  and  C_22
REMARK   11  A    between atoms: C_22  and  O_24
REMARK                            x       y       z     vdW  Elec       q    Type
REMARK                         _______ _______ _______ _____ _____    ______ ____
ROOT
ATOM      1  C   UNL     1       0.592  13.351  20.470  0.00  0.00    +0.000 C 
ATOM      2  C   UNL     1      -0.363  14.560  20.479  0.00  0.00    +0.000 C 
ATOM      3  C   UNL     1      -1.796  14.058  20.480  0.00  0.00    +0.000 C 
ATOM      4  C   UNL     1      -1.970  13.430  21.846  0.00  0.00    +0.000 C 
ATOM      5  O   UNL     1      -2.895  13.728  22.594  0.00  0.00    +0.000 OA
ATOM      6  C   UNL     1      -1.013  12.314  22.174  0.00  0.00    +0.000 C 
ATOM      7  C   UNL     1       0.056  12.203  21.358  0.00  0.00    +0.000 C 
ATOM      8  C   UNL     1       0.587  10.942  20.776  0.00  0.00    +0.000 A 
ATOM      9  C   UNL     1       0.857  11.245  19.435  0.00  0.00    +0.000 A 
ATOM     10  C   UNL     1       1.247  10.294  18.515  0.00  0.00    +0.000 A 
ATOM     11  C   UNL     1       1.470   8.986  18.915  0.00  0.00    +0.000 A 
ATOM     12  C   UNL     1       1.248   8.648  20.286  0.00  0.00    +0.000 A 
ATOM     13 CL   UNL     1       1.562   7.036  20.878  0.00  0.00    +0.000 Cl
ATOM     14  C   UNL     1       0.800   9.637  21.220  0.00  0.00    +0.000 A 
ATOM     15 CL   UNL     1       0.557   9.293  22.903  0.00  0.00    +0.000 Cl
ATOM     16  C   UNL     1       0.616  12.679  19.080  0.00  0.00    +0.000 C 
ENDROOT
BRANCH   1  18
ATOM     17  C   UNL     1       2.054  15.142  21.694  0.00  0.00    +0.000 C 
ATOM     18  C   UNL     1       1.999  13.782  21.006  0.00  0.00    +0.000 C 
ENDBRANCH   1  18
BRANCH  11  19
ATOM     19  O   UNL     1       1.857   8.100  17.917  0.00  0.00    +0.000 OA
BRANCH  19  20
ATOM     20  C   UNL     1       3.274   7.735  17.848  0.00  0.00    +0.000 C 
BRANCH  20  21
ATOM     21  C   UNL     1       3.414   6.209  17.904  0.00  0.00    +0.000 C 
ATOM     22  O   UNL     1       2.493   5.443  17.887  0.00  0.00    +0.000 OA
BRANCH  21  23
ATOM     23  O   UNL     1       4.748   5.866  17.978  0.00  0.00    +0.000 OA
BRANCH  23  24
ATOM     24  C   UNL     1       5.408   5.296  16.802  0.00  0.00    +0.000 C 
ATOM     25  C   UNL     1       5.035   3.818  16.628  0.00  0.00    +0.000 C 
ATOM     26  C   UNL     1       5.140   6.157  15.559  0.00  0.00    +0.000 C 
BRANCH  24  27
ATOM     27  C   UNL     1       6.935   5.349  17.058  0.00  0.00    +0.000 C 
ATOM     28  O   UNL     1       7.667   6.245  16.661  0.00  0.00    +0.000 OA
BRANCH  27  29
ATOM     29  O   UNL     1       7.434   4.311  17.779  0.00  0.00    +0.000 OA
ATOM     30  H   UNL     1       6.761   3.689  18.117  0.00  0.00    +0.000 HD
ENDBRANCH  27  29
ENDBRANCH  24  27
ENDBRANCH  23  24
ENDBRANCH  21  23
ENDBRANCH  20  21
ENDBRANCH  19  20
ENDBRANCH  11  19
TORSDOF 8
ENDMDL
