MODEL 1
REMARK VINA RESULT:      -6.4      0.000      0.000
REMARK  Name = 
REMARK  2 active torsions:
REMARK  status: ('A' for Active; 'I' for Inactive)
REMARK    1  A    between atoms: C_2  and  O_3
REMARK    2  A    between atoms: C_2  and  C_4
REMARK                            x       y       z     vdW  Elec       q    Type
REMARK                         _______ _______ _______ _____ _____    ______ ____
ROOT
ATOM      1  C   UNL     1       6.603   5.447  16.675  0.00  0.00    +0.000 C 
ATOM      2  C   UNL     1       5.434   4.577  16.191  0.00  0.00    +0.000 C 
ATOM      3  C   UNL     1       5.852   4.329  14.795  0.00  0.00    +0.000 A 
ATOM      4  C   UNL     1       5.218   3.581  13.819  0.00  0.00    +0.000 A 
ATOM      5  C   UNL     1       5.815   3.505  12.559  0.00  0.00    +0.000 A 
ATOM      6 CL   UNL     1       5.066   2.571  11.322  0.00  0.00    +0.000 Cl
ATOM      7  C   UNL     1       7.019   4.175  12.291  0.00  0.00    +0.000 A 
ATOM      8  C   UNL     1       7.649   4.920  13.291  0.00  0.00    +0.000 A 
ATOM      9  C   UNL     1       7.047   4.977  14.534  0.00  0.00    +0.000 A 
ATOM     10  O   UNL     1       7.567   5.640  15.610  0.00  0.00    +0.000 OA
ENDROOT
BRANCH   1  12
ATOM     11  O   UNL     1       6.880   5.001  19.052  0.00  0.00    +0.000 OA
ATOM     12  C   UNL     1       7.268   4.820  17.898  0.00  0.00    +0.000 C 
BRANCH  12  13
ATOM     13  O   UNL     1       8.321   4.016  17.625  0.00  0.00    +0.000 OA
ATOM     14  H   UNL     1       8.310   3.179  18.140  0.00  0.00    +0.000 HD
ENDBRANCH  12  13
ENDBRANCH   1  12
TORSDOF 2
ENDMDL
MODEL 2
REMARK VINA RESULT:      -6.3      4.251      5.671
REMARK  Name = 
REMARK  2 active torsions:
REMARK  status: ('A' for Active; 'I' for Inactive)
REMARK    1  A    between atoms: C_2  and  O_3
REMARK    2  A    between atoms: C_2  and  C_4
REMARK                            x       y       z     vdW  Elec       q    Type
REMARK                         _______ _______ _______ _____ _____    ______ ____
ROOT
ATOM      1  C   UNL     1       5.402   4.907  17.130  0.00  0.00    +0.000 C 
ATOM      2  C   UNL     1       4.986   5.286  18.559  0.00  0.00    +0.000 C 
ATOM      3  C   UNL     1       3.937   4.274  18.803  0.00  0.00    +0.000 A 
ATOM      4  C   UNL     1       3.174   4.073  19.940  0.00  0.00    +0.000 A 
ATOM      5  C   UNL     1       2.230   3.046  19.923  0.00  0.00    +0.000 A 
ATOM      6 CL   UNL     1       1.272   2.752  21.324  0.00  0.00    +0.000 Cl
ATOM      7  C   UNL     1       2.055   2.246  18.782  0.00  0.00    +0.000 A 
ATOM      8  C   UNL     1       2.839   2.460  17.646  0.00  0.00    +0.000 A 
ATOM      9  C   UNL     1       3.775   3.477  17.685  0.00  0.00    +0.000 A 
ATOM     10  O   UNL     1       4.628   3.775  16.660  0.00  0.00    +0.000 OA
ENDROOT
BRANCH   1  12
ATOM     11  O   UNL     1       7.572   4.701  16.045  0.00  0.00    +0.000 OA
ATOM     12  C   UNL     1       6.897   4.601  17.070  0.00  0.00    +0.000 C 
BRANCH  12  13
ATOM     13  O   UNL     1       7.450   4.225  18.246  0.00  0.00    +0.000 OA
ATOM     14  H   UNL     1       6.893   4.454  19.024  0.00  0.00    +0.000 HD
ENDBRANCH  12  13
ENDBRANCH   1  12
TORSDOF 2
ENDMDL
MODEL 3
REMARK VINA RESULT:      -6.2      3.743      5.181
REMARK  Name = 
REMARK  2 active torsions:
REMARK  status: ('A' for Active; 'I' for Inactive)
REMARK    1  A    between atoms: C_2  and  O_3
REMARK    2  A    between atoms: C_2  and  C_4
REMARK                            x       y       z     vdW  Elec       q    Type
REMARK                         _______ _______ _______ _____ _____    ______ ____
ROOT
ATOM      1  C   UNL     1       5.599   5.035  16.154  0.00  0.00    +0.000 C 
ATOM      2  C   UNL     1       4.685   5.934  17.000  0.00  0.00    +0.000 C 
ATOM      3  C   UNL     1       3.836   4.910  17.646  0.00  0.00    +0.000 A 
ATOM      4  C   UNL     1       2.809   5.084  18.557  0.00  0.00    +0.000 A 
ATOM      5  C   UNL     1       2.144   3.947  19.020  0.00  0.00    +0.000 A 
ATOM      6 CL   UNL     1       0.871   4.119  20.166  0.00  0.00    +0.000 Cl
ATOM      7  C   UNL     1       2.503   2.668  18.567  0.00  0.00    +0.000 A 
ATOM      8  C   UNL     1       3.547   2.511  17.652  0.00  0.00    +0.000 A 
ATOM      9  C   UNL     1       4.199   3.648  17.212  0.00  0.00    +0.000 A 
ATOM     10  O   UNL     1       5.256   3.640  16.345  0.00  0.00    +0.000 OA
ENDROOT
BRANCH   1  12
ATOM     11  O   UNL     1       7.844   4.393  16.843  0.00  0.00    +0.000 OA
ATOM     12  C   UNL     1       7.065   5.283  16.502  0.00  0.00    +0.000 C 
BRANCH  12  13
ATOM     13  O   UNL     1       7.469   6.569  16.387  0.00  0.00    +0.000 OA
ATOM     14  H   UNL     1       8.437   6.682  16.520  0.00  0.00    +0.000 HD
ENDBRANCH  12  13
ENDBRANCH   1  12
TORSDOF 2
ENDMDL
MODEL 4
REMARK VINA RESULT:      -6.2      2.678      3.685
REMARK  Name = 
REMARK  2 active torsions:
REMARK  status: ('A' for Active; 'I' for Inactive)
REMARK    1  A    between atoms: C_2  and  O_3
REMARK    2  A    between atoms: C_2  and  C_4
REMARK                            x       y       z     vdW  Elec       q    Type
REMARK                         _______ _______ _______ _____ _____    ______ ____
ROOT
ATOM      1  C   UNL     1       4.310   4.002  19.287  0.00  0.00    +0.000 C 
ATOM      2  C   UNL     1       3.753   3.853  17.863  0.00  0.00    +0.000 C 
ATOM      3  C   UNL     1       4.976   4.116  17.075  0.00  0.00    +0.000 A 
ATOM      4  C   UNL     1       5.140   4.113  15.701  0.00  0.00    +0.000 A 
ATOM      5  C   UNL     1       6.406   4.405  15.191  0.00  0.00    +0.000 A 
ATOM      6 CL   UNL     1       6.655   4.394  13.488  0.00  0.00    +0.000 Cl
ATOM      7  C   UNL     1       7.477   4.701  16.048  0.00  0.00    +0.000 A 
ATOM      8  C   UNL     1       7.294   4.694  17.433  0.00  0.00    +0.000 A 
ATOM      9  C   UNL     1       6.036   4.394  17.920  0.00  0.00    +0.000 A 
ATOM     10  O   UNL     1       5.723   4.319  19.248  0.00  0.00    +0.000 OA
ENDROOT
BRANCH   1  12
ATOM     11  O   UNL     1       3.018   2.502  20.703  0.00  0.00    +0.000 OA
ATOM     12  C   UNL     1       4.063   2.730  20.096  0.00  0.00    +0.000 C 
BRANCH  12  13
ATOM     13  O   UNL     1       5.083   1.841  20.084  0.00  0.00    +0.000 OA
ATOM     14  H   UNL     1       4.840   0.983  19.670  0.00  0.00    +0.000 HD
ENDBRANCH  12  13
ENDBRANCH   1  12
TORSDOF 2
ENDMDL
MODEL 5
REMARK VINA RESULT:      -6.2      3.720      5.259
REMARK  Name = 
REMARK  2 active torsions:
REMARK  status: ('A' for Active; 'I' for Inactive)
REMARK    1  A    between atoms: C_2  and  O_3
REMARK    2  A    between atoms: C_2  and  C_4
REMARK                            x       y       z     vdW  Elec       q    Type
REMARK                         _______ _______ _______ _____ _____    ______ ____
ROOT
ATOM      1  C   UNL     1       5.611   5.229  15.544  0.00  0.00    +0.000 C 
ATOM      2  C   UNL     1       5.203   6.370  16.487  0.00  0.00    +0.000 C 
ATOM      3  C   UNL     1       4.257   5.655  17.370  0.00  0.00    +0.000 A 
ATOM      4  C   UNL     1       3.548   6.140  18.455  0.00  0.00    +0.000 A 
ATOM      5  C   UNL     1       2.702   5.259  19.131  0.00  0.00    +0.000 A 
ATOM      6 CL   UNL     1       1.815   5.818  20.497  0.00  0.00    +0.000 Cl
ATOM      7  C   UNL     1       2.569   3.925  18.715  0.00  0.00    +0.000 A 
ATOM      8  C   UNL     1       3.298   3.452  17.621  0.00  0.00    +0.000 A 
ATOM      9  C   UNL     1       4.138   4.336  16.970  0.00  0.00    +0.000 A 
ATOM     10  O   UNL     1       4.931   4.002  15.909  0.00  0.00    +0.000 OA
ENDROOT
BRANCH   1  12
ATOM     11  O   UNL     1       7.733   4.513  16.500  0.00  0.00    +0.000 OA
ATOM     12  C   UNL     1       7.126   5.033  15.564  0.00  0.00    +0.000 C 
BRANCH  12  13
ATOM     13  O   UNL     1       7.770   5.456  14.452  0.00  0.00    +0.000 OA
ATOM     14  H   UNL     1       7.654   4.850  13.686  0.00  0.00    +0.000 HD
ENDBRANCH  12  13
ENDBRANCH   1  12
TORSDOF 2
ENDMDL
MODEL 6
REMARK VINA RESULT:      -6.1      4.247      5.248
REMARK  Name = 
REMARK  2 active torsions:
REMARK  status: ('A' for Active; 'I' for Inactive)
REMARK    1  A    between atoms: C_2  and  O_3
REMARK    2  A    between atoms: C_2  and  C_4
REMARK                            x       y       z     vdW  Elec       q    Type
REMARK                         _______ _______ _______ _____ _____    ______ ____
ROOT
ATOM      1  C   UNL     1       6.105   5.399  17.842  0.00  0.00    +0.000 C 
ATOM      2  C   UNL     1       5.416   5.521  19.209  0.00  0.00    +0.000 C 
ATOM      3  C   UNL     1       4.187   4.741  18.954  0.00  0.00    +0.000 A 
ATOM      4  C   UNL     1       3.144   4.458  19.818  0.00  0.00    +0.000 A 
ATOM      5  C   UNL     1       2.077   3.701  19.333  0.00  0.00    +0.000 A 
ATOM      6 CL   UNL     1       0.767   3.313  20.381  0.00  0.00    +0.000 Cl
ATOM      7  C   UNL     1       2.061   3.247  18.004  0.00  0.00    +0.000 A 
ATOM      8  C   UNL     1       3.126   3.536  17.148  0.00  0.00    +0.000 A 
ATOM      9  C   UNL     1       4.178   4.281  17.650  0.00  0.00    +0.000 A 
ATOM     10  O   UNL     1       5.296   4.609  16.935  0.00  0.00    +0.000 OA
ENDROOT
BRANCH   1  12
ATOM     11  O   UNL     1       8.158   4.851  19.031  0.00  0.00    +0.000 OA
ATOM     12  C   UNL     1       7.497   4.788  17.995  0.00  0.00    +0.000 C 
BRANCH  12  13
ATOM     13  O   UNL     1       7.958   4.139  16.901  0.00  0.00    +0.000 OA
ATOM     14  H   UNL     1       8.926   3.969  16.933  0.00  0.00    +0.000 HD
ENDBRANCH  12  13
ENDBRANCH   1  12
TORSDOF 2
ENDMDL
MODEL 7
REMARK VINA RESULT:      -6.1      2.988      4.661
REMARK  Name = 
REMARK  2 active torsions:
REMARK  status: ('A' for Active; 'I' for Inactive)
REMARK    1  A    between atoms: C_2  and  O_3
REMARK    2  A    between atoms: C_2  and  C_4
REMARK                            x       y       z     vdW  Elec       q    Type
REMARK                         _______ _______ _______ _____ _____    ______ ____
ROOT
ATOM      1  C   UNL     1       6.970   4.779  15.457  0.00  0.00    +0.000 C 
ATOM      2  C   UNL     1       6.001   3.647  15.830  0.00  0.00    +0.000 C 
ATOM      3  C   UNL     1       4.967   4.416  16.553  0.00  0.00    +0.000 A 
ATOM      4  C   UNL     1       3.795   3.961  17.134  0.00  0.00    +0.000 A 
ATOM      5  C   UNL     1       2.977   4.892  17.774  0.00  0.00    +0.000 A 
ATOM      6 CL   UNL     1       1.503   4.369  18.494  0.00  0.00    +0.000 Cl
ATOM      7  C   UNL     1       3.337   6.248  17.835  0.00  0.00    +0.000 A 
ATOM      8  C   UNL     1       4.520   6.690  17.237  0.00  0.00    +0.000 A 
ATOM      9  C   UNL     1       5.313   5.754  16.599  0.00  0.00    +0.000 A 
ATOM     10  O   UNL     1       6.477   6.051  15.948  0.00  0.00    +0.000 OA
ENDROOT
BRANCH   1  12
ATOM     11  O   UNL     1       6.552   4.135  13.147  0.00  0.00    +0.000 OA
ATOM     12  C   UNL     1       7.181   4.829  13.945  0.00  0.00    +0.000 C 
BRANCH  12  13
ATOM     13  O   UNL     1       8.110   5.720  13.528  0.00  0.00    +0.000 OA
ATOM     14  H   UNL     1       9.030   5.442  13.733  0.00  0.00    +0.000 HD
ENDBRANCH  12  13
ENDBRANCH   1  12
TORSDOF 2
ENDMDL
MODEL 8
REMARK VINA RESULT:      -6.1      4.299      5.773
REMARK  Name = 
REMARK  2 active torsions:
REMARK  status: ('A' for Active; 'I' for Inactive)
REMARK    1  A    between atoms: C_2  and  O_3
REMARK    2  A    between atoms: C_2  and  C_4
REMARK                            x       y       z     vdW  Elec       q    Type
REMARK                         _______ _______ _______ _____ _____    ______ ____
ROOT
ATOM      1  C   UNL     1       5.580   5.136  17.439  0.00  0.00    +0.000 C 
ATOM      2  C   UNL     1       5.560   4.494  18.834  0.00  0.00    +0.000 C 
ATOM      3  C   UNL     1       4.116   4.209  18.970  0.00  0.00    +0.000 A 
ATOM      4  C   UNL     1       3.445   3.605  20.020  0.00  0.00    +0.000 A 
ATOM      5  C   UNL     1       2.062   3.455  19.915  0.00  0.00    +0.000 A 
ATOM      6 CL   UNL     1       1.193   2.694  21.191  0.00  0.00    +0.000 Cl
ATOM      7  C   UNL     1       1.372   3.912  18.781  0.00  0.00    +0.000 A 
ATOM      8  C   UNL     1       2.066   4.513  17.728  0.00  0.00    +0.000 A 
ATOM      9  C   UNL     1       3.437   4.645  17.847  0.00  0.00    +0.000 A 
ATOM     10  O   UNL     1       4.243   5.183  16.883  0.00  0.00    +0.000 OA
ENDROOT
BRANCH   1  12
ATOM     11  O   UNL     1       7.698   4.696  16.322  0.00  0.00    +0.000 OA
ATOM     12  C   UNL     1       6.525   4.375  16.512  0.00  0.00    +0.000 C 
BRANCH  12  13
ATOM     13  O   UNL     1       5.985   3.287  15.915  0.00  0.00    +0.000 OA
ATOM     14  H   UNL     1       6.604   2.841  15.295  0.00  0.00    +0.000 HD
ENDBRANCH  12  13
ENDBRANCH   1  12
TORSDOF 2
ENDMDL
MODEL 9
REMARK VINA RESULT:      -6.0      4.122      5.522
REMARK  Name = 
REMARK  2 active torsions:
REMARK  status: ('A' for Active; 'I' for Inactive)
REMARK    1  A    between atoms: C_2  and  O_3
REMARK    2  A    between atoms: C_2  and  C_4
REMARK                            x       y       z     vdW  Elec       q    Type
REMARK                         _______ _______ _______ _____ _____    ______ ____
ROOT
ATOM      1  C   UNL     1       2.077   4.685  19.946  0.00  0.00    +0.000 C 
ATOM      2  C   UNL     1       1.979   4.126  18.520  0.00  0.00    +0.000 C 
ATOM      3  C   UNL     1       3.385   4.268  18.085  0.00  0.00    +0.000 A 
ATOM      4  C   UNL     1       3.958   3.917  16.876  0.00  0.00    +0.000 A 
ATOM      5  C   UNL     1       5.321   4.163  16.701  0.00  0.00    +0.000 A 
ATOM      6 CL   UNL     1       6.077   3.726  15.217  0.00  0.00    +0.000 Cl
ATOM      7  C   UNL     1       6.083   4.756  17.720  0.00  0.00    +0.000 A 
ATOM      8  C   UNL     1       5.488   5.098  18.937  0.00  0.00    +0.000 A 
ATOM      9  C   UNL     1       4.139   4.838  19.094  0.00  0.00    +0.000 A 
ATOM     10  O   UNL     1       3.438   5.090  20.240  0.00  0.00    +0.000 OA
ENDROOT
BRANCH   1  12
ATOM     11  O   UNL     1       2.155   3.434  22.033  0.00  0.00    +0.000 OA
ATOM     12  C   UNL     1       1.589   3.655  20.962  0.00  0.00    +0.000 C 
BRANCH  12  13
ATOM     13  O   UNL     1       0.458   3.000  20.612  0.00  0.00    +0.000 OA
ATOM     14  H   UNL     1      -0.360   3.477  20.877  0.00  0.00    +0.000 HD
ENDBRANCH  12  13
ENDBRANCH   1  12
TORSDOF 2
ENDMDL
