MODEL 1
REMARK VINA RESULT:      -7.8      0.000      0.000
REMARK  Name = 
REMARK  7 active torsions:
REMARK  status: ('A' for Active; 'I' for Inactive)
REMARK    1  A    between atoms: C_1  and  C_2
REMARK    2  A    between atoms: C_2  and  O_4
REMARK    3  A    between atoms: O_4  and  C_5
REMARK    4  A    between atoms: C_5  and  C_6
REMARK    5  A    between atoms: C_6  and  C_15
REMARK    6  A    between atoms: C_7  and  C_8
REMARK    7  A    between atoms: C_15  and  C_17
REMARK                            x       y       z     vdW  Elec       q    Type
REMARK                         _______ _______ _______ _____ _____    ______ ____
ROOT
ATOM      1  C   UNL     1       3.133   5.227  17.910  0.00  0.00    +0.000 C 
ATOM      2  C   UNL     1       3.445   6.516  18.168  0.00  0.00    +0.000 C 
ENDROOT
BRANCH   2   3
ATOM      3  C   UNL     1       2.503   7.527  18.655  0.00  0.00    +0.000 A 
ATOM      4  C   UNL     1       1.998   8.492  17.773  0.00  0.00    +0.000 A 
ATOM      5  C   UNL     1       1.128   9.482  18.238  0.00  0.00    +0.000 A 
ATOM      6  C   UNL     1       0.766   9.508  19.584  0.00  0.00    +0.000 A 
ATOM      7 CL   UNL     1      -0.267  10.753  20.168  0.00  0.00    +0.000 Cl
ATOM      8  C   UNL     1       1.248   8.539  20.462  0.00  0.00    +0.000 A 
ATOM      9  C   UNL     1       2.106   7.542  19.993  0.00  0.00    +0.000 A 
ENDBRANCH   2   3
BRANCH   1  10
ATOM     10  C   UNL     1       4.191   4.201  17.577  0.00  0.00    +0.000 C 
ATOM     11  O   UNL     1       4.273   3.153  18.214  0.00  0.00    +0.000 OA
BRANCH  10  12
ATOM     12  C   UNL     1       5.181   4.411  16.485  0.00  0.00    +0.000 A 
ATOM     13  C   UNL     1       6.490   4.853  16.718  0.00  0.00    +0.000 A 
ATOM     14  C   UNL     1       7.351   5.100  15.643  0.00  0.00    +0.000 A 
ATOM     15  C   UNL     1       6.925   4.845  14.342  0.00  0.00    +0.000 A 
ATOM     16 CL   UNL     1       7.978   5.169  13.021  0.00  0.00    +0.000 Cl
ATOM     17  C   UNL     1       5.654   4.327  14.104  0.00  0.00    +0.000 A 
ATOM     18  C   UNL     1       4.782   4.111  15.174  0.00  0.00    +0.000 A 
ENDBRANCH  10  12
ENDBRANCH   1  10
BRANCH   1  19
ATOM     19  C   UNL     1       1.720   4.677  17.908  0.00  0.00    +0.000 C 
BRANCH  19  20
ATOM     20  O   UNL     1       1.280   4.350  19.241  0.00  0.00    +0.000 OA
BRANCH  20  22
ATOM     21  C   UNL     1       1.360   2.726  20.931  0.00  0.00    +0.000 C 
ATOM     22  C   UNL     1       1.021   3.048  19.507  0.00  0.00    +0.000 C 
ATOM     23  O   UNL     1       0.620   2.217  18.706  0.00  0.00    +0.000 OA
ENDBRANCH  20  22
ENDBRANCH  19  20
ENDBRANCH   1  19
TORSDOF 6
ENDMDL
MODEL 2
REMARK VINA RESULT:      -7.6      0.597      1.242
REMARK  Name = 
REMARK  7 active torsions:
REMARK  status: ('A' for Active; 'I' for Inactive)
REMARK    1  A    between atoms: C_1  and  C_2
REMARK    2  A    between atoms: C_2  and  O_4
REMARK    3  A    between atoms: O_4  and  C_5
REMARK    4  A    between atoms: C_5  and  C_6
REMARK    5  A    between atoms: C_6  and  C_15
REMARK    6  A    between atoms: C_7  and  C_8
REMARK    7  A    between atoms: C_15  and  C_17
REMARK                            x       y       z     vdW  Elec       q    Type
REMARK                         _______ _______ _______ _____ _____    ______ ____
ROOT
ATOM      1  C   UNL     1       3.123   5.196  17.954  0.00  0.00    +0.000 C 
ATOM      2  C   UNL     1       3.432   6.507  18.045  0.00  0.00    +0.000 C 
ENDROOT
BRANCH   2   3
ATOM      3  C   UNL     1       2.535   7.547  18.557  0.00  0.00    +0.000 A 
ATOM      4  C   UNL     1       2.166   7.547  19.909  0.00  0.00    +0.000 A 
ATOM      5  C   UNL     1       1.282   8.512  20.397  0.00  0.00    +0.000 A 
ATOM      6  C   UNL     1       0.765   9.476  19.532  0.00  0.00    +0.000 A 
ATOM      7 CL   UNL     1      -0.360  10.638  20.119  0.00  0.00    +0.000 Cl
ATOM      8  C   UNL     1       1.144   9.495  18.191  0.00  0.00    +0.000 A 
ATOM      9  C   UNL     1       2.038   8.538  17.708  0.00  0.00    +0.000 A 
ENDBRANCH   2   3
BRANCH   1  10
ATOM     10  C   UNL     1       4.154   4.157  17.580  0.00  0.00    +0.000 C 
ATOM     11  O   UNL     1       4.202   3.077  18.167  0.00  0.00    +0.000 OA
BRANCH  10  12
ATOM     12  C   UNL     1       5.159   4.390  16.506  0.00  0.00    +0.000 A 
ATOM     13  C   UNL     1       6.463   4.831  16.766  0.00  0.00    +0.000 A 
ATOM     14  C   UNL     1       7.338   5.102  15.709  0.00  0.00    +0.000 A 
ATOM     15  C   UNL     1       6.932   4.870  14.396  0.00  0.00    +0.000 A 
ATOM     16 CL   UNL     1       8.003   5.222  13.098  0.00  0.00    +0.000 Cl
ATOM     17  C   UNL     1       5.666   4.353  14.131  0.00  0.00    +0.000 A 
ATOM     18  C   UNL     1       4.780   4.114  15.184  0.00  0.00    +0.000 A 
ENDBRANCH  10  12
ENDBRANCH   1  10
BRANCH   1  19
ATOM     19  C   UNL     1       1.737   4.628  18.193  0.00  0.00    +0.000 C 
BRANCH  19  20
ATOM     20  O   UNL     1       1.488   4.423  19.598  0.00  0.00    +0.000 OA
BRANCH  20  22
ATOM     21  C   UNL     1       0.769   2.336  18.806  0.00  0.00    +0.000 C 
ATOM     22  C   UNL     1       1.140   3.174  19.991  0.00  0.00    +0.000 C 
ATOM     23  O   UNL     1       1.074   2.777  21.144  0.00  0.00    +0.000 OA
ENDBRANCH  20  22
ENDBRANCH  19  20
ENDBRANCH   1  19
TORSDOF 6
ENDMDL
MODEL 3
REMARK VINA RESULT:      -7.5      1.035      1.167
REMARK  Name = 
REMARK  7 active torsions:
REMARK  status: ('A' for Active; 'I' for Inactive)
REMARK    1  A    between atoms: C_1  and  C_2
REMARK    2  A    between atoms: C_2  and  O_4
REMARK    3  A    between atoms: O_4  and  C_5
REMARK    4  A    between atoms: C_5  and  C_6
REMARK    5  A    between atoms: C_6  and  C_15
REMARK    6  A    between atoms: C_7  and  C_8
REMARK    7  A    between atoms: C_15  and  C_17
REMARK                            x       y       z     vdW  Elec       q    Type
REMARK                         _______ _______ _______ _____ _____    ______ ____
ROOT
ATOM      1  C   UNL     1       3.274   5.481  18.655  0.00  0.00    +0.000 C 
ATOM      2  C   UNL     1       3.362   6.804  18.397  0.00  0.00    +0.000 C 
ENDROOT
BRANCH   2   3
ATOM      3  C   UNL     1       2.352   7.799  18.768  0.00  0.00    +0.000 A 
ATOM      4  C   UNL     1       1.803   8.635  17.785  0.00  0.00    +0.000 A 
ATOM      5  C   UNL     1       0.868   9.613  18.137  0.00  0.00    +0.000 A 
ATOM      6  C   UNL     1       0.486   9.756  19.470  0.00  0.00    +0.000 A 
ATOM      7 CL   UNL     1      -0.630  10.988  19.912  0.00  0.00    +0.000 Cl
ATOM      8  C   UNL     1       1.012   8.915  20.448  0.00  0.00    +0.000 A 
ATOM      9  C   UNL     1       1.936   7.929  20.093  0.00  0.00    +0.000 A 
ENDBRANCH   2   3
BRANCH   1  10
ATOM     10  C   UNL     1       4.429   4.540  18.399  0.00  0.00    +0.000 C 
ATOM     11  O   UNL     1       4.710   3.655  19.204  0.00  0.00    +0.000 OA
BRANCH  10  12
ATOM     12  C   UNL     1       5.280   4.645  17.181  0.00  0.00    +0.000 A 
ATOM     13  C   UNL     1       6.583   5.158  17.204  0.00  0.00    +0.000 A 
ATOM     14  C   UNL     1       7.306   5.298  16.015  0.00  0.00    +0.000 A 
ATOM     15  C   UNL     1       6.752   4.865  14.812  0.00  0.00    +0.000 A 
ATOM     16 CL   UNL     1       7.634   5.057  13.349  0.00  0.00    +0.000 Cl
ATOM     17  C   UNL     1       5.489   4.277  14.789  0.00  0.00    +0.000 A 
ATOM     18  C   UNL     1       4.753   4.167  15.972  0.00  0.00    +0.000 A 
ENDBRANCH  10  12
ENDBRANCH   1  10
BRANCH   1  19
ATOM     19  C   UNL     1       2.035   4.799  19.201  0.00  0.00    +0.000 C 
BRANCH  19  20
ATOM     20  O   UNL     1       2.106   4.647  20.632  0.00  0.00    +0.000 OA
BRANCH  20  22
ATOM     21  C   UNL     1       1.398   2.483  20.069  0.00  0.00    +0.000 C 
ATOM     22  C   UNL     1       1.903   3.406  21.136  0.00  0.00    +0.000 C 
ATOM     23  O   UNL     1       2.048   3.071  22.301  0.00  0.00    +0.000 OA
ENDBRANCH  20  22
ENDBRANCH  19  20
ENDBRANCH   1  19
TORSDOF 6
ENDMDL
MODEL 4
REMARK VINA RESULT:      -7.5      3.442      4.987
REMARK  Name = 
REMARK  7 active torsions:
REMARK  status: ('A' for Active; 'I' for Inactive)
REMARK    1  A    between atoms: C_1  and  C_2
REMARK    2  A    between atoms: C_2  and  O_4
REMARK    3  A    between atoms: O_4  and  C_5
REMARK    4  A    between atoms: C_5  and  C_6
REMARK    5  A    between atoms: C_6  and  C_15
REMARK    6  A    between atoms: C_7  and  C_8
REMARK    7  A    between atoms: C_15  and  C_17
REMARK                            x       y       z     vdW  Elec       q    Type
REMARK                         _______ _______ _______ _____ _____    ______ ____
ROOT
ATOM      1  C   UNL     1       4.861   4.891  16.863  0.00  0.00    +0.000 C 
ATOM      2  C   UNL     1       3.541   4.652  17.023  0.00  0.00    +0.000 C 
ENDROOT
BRANCH   2   3
ATOM      3  C   UNL     1       2.925   4.133  18.248  0.00  0.00    +0.000 A 
ATOM      4  C   UNL     1       2.612   5.009  19.296  0.00  0.00    +0.000 A 
ATOM      5  C   UNL     1       2.059   4.518  20.482  0.00  0.00    +0.000 A 
ATOM      6  C   UNL     1       1.823   3.151  20.619  0.00  0.00    +0.000 A 
ATOM      7 CL   UNL     1       1.186   2.537  22.094  0.00  0.00    +0.000 Cl
ATOM      8  C   UNL     1       2.112   2.277  19.573  0.00  0.00    +0.000 A 
ATOM      9  C   UNL     1       2.652   2.772  18.384  0.00  0.00    +0.000 A 
ENDBRANCH   2   3
BRANCH   1  10
ATOM     10  C   UNL     1       5.402   5.587  15.636  0.00  0.00    +0.000 C 
ATOM     11  O   UNL     1       5.492   6.813  15.596  0.00  0.00    +0.000 OA
BRANCH  10  12
ATOM     12  C   UNL     1       5.834   4.836  14.425  0.00  0.00    +0.000 A 
ATOM     13  C   UNL     1       4.990   3.961  13.729  0.00  0.00    +0.000 A 
ATOM     14  C   UNL     1       5.477   3.229  12.641  0.00  0.00    +0.000 A 
ATOM     15  C   UNL     1       6.788   3.419  12.210  0.00  0.00    +0.000 A 
ATOM     16 CL   UNL     1       7.390   2.503  10.885  0.00  0.00    +0.000 Cl
ATOM     17  C   UNL     1       7.612   4.347  12.843  0.00  0.00    +0.000 A 
ATOM     18  C   UNL     1       7.136   5.055  13.950  0.00  0.00    +0.000 A 
ENDBRANCH  10  12
ENDBRANCH   1  10
BRANCH   1  19
ATOM     19  C   UNL     1       5.928   4.484  17.860  0.00  0.00    +0.000 C 
BRANCH  19  20
ATOM     20  O   UNL     1       6.181   5.531  18.816  0.00  0.00    +0.000 OA
BRANCH  20  22
ATOM     21  C   UNL     1       7.875   7.054  18.257  0.00  0.00    +0.000 C 
ATOM     22  C   UNL     1       7.475   5.853  19.058  0.00  0.00    +0.000 C 
ATOM     23  O   UNL     1       8.245   5.237  19.778  0.00  0.00    +0.000 OA
ENDBRANCH  20  22
ENDBRANCH  19  20
ENDBRANCH   1  19
TORSDOF 6
ENDMDL
MODEL 5
REMARK VINA RESULT:      -7.5      0.213      1.021
REMARK  Name = 
REMARK  7 active torsions:
REMARK  status: ('A' for Active; 'I' for Inactive)
REMARK    1  A    between atoms: C_1  and  C_2
REMARK    2  A    between atoms: C_2  and  O_4
REMARK    3  A    between atoms: O_4  and  C_5
REMARK    4  A    between atoms: C_5  and  C_6
REMARK    5  A    between atoms: C_6  and  C_15
REMARK    6  A    between atoms: C_7  and  C_8
REMARK    7  A    between atoms: C_15  and  C_17
REMARK                            x       y       z     vdW  Elec       q    Type
REMARK                         _______ _______ _______ _____ _____    ______ ____
ROOT
ATOM      1  C   UNL     1       3.115   5.399  17.980  0.00  0.00    +0.000 C 
ATOM      2  C   UNL     1       3.380   6.704  18.203  0.00  0.00    +0.000 C 
ENDROOT
BRANCH   2   3
ATOM      3  C   UNL     1       2.410   7.686  18.696  0.00  0.00    +0.000 A 
ATOM      4  C   UNL     1       1.858   8.625  17.813  0.00  0.00    +0.000 A 
ATOM      5  C   UNL     1       0.961   9.588  18.283  0.00  0.00    +0.000 A 
ATOM      6  C   UNL     1       0.619   9.614  19.634  0.00  0.00    +0.000 A 
ATOM      7 CL   UNL     1      -0.449  10.827  20.224  0.00  0.00    +0.000 Cl
ATOM      8  C   UNL     1       1.148   8.670  20.513  0.00  0.00    +0.000 A 
ATOM      9  C   UNL     1       2.033   7.700  20.039  0.00  0.00    +0.000 A 
ENDBRANCH   2   3
BRANCH   1  10
ATOM     10  C   UNL     1       4.205   4.410  17.639  0.00  0.00    +0.000 C 
ATOM     11  O   UNL     1       4.392   3.413  18.334  0.00  0.00    +0.000 OA
BRANCH  10  12
ATOM     12  C   UNL     1       5.105   4.598  16.467  0.00  0.00    +0.000 A 
ATOM     13  C   UNL     1       4.788   4.139  15.182  0.00  0.00    +0.000 A 
ATOM     14  C   UNL     1       5.707   4.281  14.137  0.00  0.00    +0.000 A 
ATOM     15  C   UNL     1       6.914   4.939  14.361  0.00  0.00    +0.000 A 
ATOM     16 CL   UNL     1       8.051   5.095  13.080  0.00  0.00    +0.000 Cl
ATOM     17  C   UNL     1       7.205   5.473  15.614  0.00  0.00    +0.000 A 
ATOM     18  C   UNL     1       6.302   5.302  16.667  0.00  0.00    +0.000 A 
ENDBRANCH  10  12
ENDBRANCH   1  10
BRANCH   1  19
ATOM     19  C   UNL     1       1.727   4.791  18.029  0.00  0.00    +0.000 C 
BRANCH  19  20
ATOM     20  O   UNL     1       1.361   4.423  19.374  0.00  0.00    +0.000 OA
BRANCH  20  22
ATOM     21  C   UNL     1       1.336   2.755  21.022  0.00  0.00    +0.000 C 
ATOM     22  C   UNL     1       1.049   3.124  19.599  0.00  0.00    +0.000 C 
ATOM     23  O   UNL     1       0.643   2.328  18.766  0.00  0.00    +0.000 OA
ENDBRANCH  20  22
ENDBRANCH  19  20
ENDBRANCH   1  19
TORSDOF 6
ENDMDL
MODEL 6
REMARK VINA RESULT:      -7.4      0.930      1.010
REMARK  Name = 
REMARK  7 active torsions:
REMARK  status: ('A' for Active; 'I' for Inactive)
REMARK    1  A    between atoms: C_1  and  C_2
REMARK    2  A    between atoms: C_2  and  O_4
REMARK    3  A    between atoms: O_4  and  C_5
REMARK    4  A    between atoms: C_5  and  C_6
REMARK    5  A    between atoms: C_6  and  C_15
REMARK    6  A    between atoms: C_7  and  C_8
REMARK    7  A    between atoms: C_15  and  C_17
REMARK                            x       y       z     vdW  Elec       q    Type
REMARK                         _______ _______ _______ _____ _____    ______ ____
ROOT
ATOM      1  C   UNL     1       3.785   5.442  18.532  0.00  0.00    +0.000 C 
ATOM      2  C   UNL     1       3.728   6.758  18.232  0.00  0.00    +0.000 C 
ENDROOT
BRANCH   2   3
ATOM      3  C   UNL     1       2.653   7.666  18.644  0.00  0.00    +0.000 A 
ATOM      4  C   UNL     1       2.164   8.621  17.742  0.00  0.00    +0.000 A 
ATOM      5  C   UNL     1       1.166   9.516  18.139  0.00  0.00    +0.000 A 
ATOM      6  C   UNL     1       0.661   9.457  19.437  0.00  0.00    +0.000 A 
ATOM      7 CL   UNL     1      -0.534  10.586  19.942  0.00  0.00    +0.000 Cl
ATOM      8  C   UNL     1       1.128   8.496  20.331  0.00  0.00    +0.000 A 
ATOM      9  C   UNL     1       2.115   7.594  19.929  0.00  0.00    +0.000 A 
ENDBRANCH   2   3
BRANCH   1  10
ATOM     10  C   UNL     1       5.006   4.607  18.223  0.00  0.00    +0.000 C 
ATOM     11  O   UNL     1       5.512   3.891  19.085  0.00  0.00    +0.000 OA
BRANCH  10  12
ATOM     12  C   UNL     1       5.655   4.618  16.883  0.00  0.00    +0.000 A 
ATOM     13  C   UNL     1       7.019   4.878  16.700  0.00  0.00    +0.000 A 
ATOM     14  C   UNL     1       7.555   4.947  15.410  0.00  0.00    +0.000 A 
ATOM     15  C   UNL     1       6.743   4.692  14.307  0.00  0.00    +0.000 A 
ATOM     16 CL   UNL     1       7.400   4.797  12.721  0.00  0.00    +0.000 Cl
ATOM     17  C   UNL     1       5.403   4.351  14.481  0.00  0.00    +0.000 A 
ATOM     18  C   UNL     1       4.859   4.315  15.768  0.00  0.00    +0.000 A 
ENDBRANCH  10  12
ENDBRANCH   1  10
BRANCH   1  19
ATOM     19  C   UNL     1       2.656   4.666  19.179  0.00  0.00    +0.000 C 
BRANCH  19  20
ATOM     20  O   UNL     1       1.784   4.082  18.191  0.00  0.00    +0.000 OA
BRANCH  20  22
ATOM     21  C   UNL     1       2.676   1.915  18.117  0.00  0.00    +0.000 C 
ATOM     22  C   UNL     1       1.468   2.773  18.336  0.00  0.00    +0.000 C 
ATOM     23  O   UNL     1       0.354   2.324  18.557  0.00  0.00    +0.000 OA
ENDBRANCH  20  22
ENDBRANCH  19  20
ENDBRANCH   1  19
TORSDOF 6
ENDMDL
MODEL 7
REMARK VINA RESULT:      -7.4      0.150      1.434
REMARK  Name = 
REMARK  7 active torsions:
REMARK  status: ('A' for Active; 'I' for Inactive)
REMARK    1  A    between atoms: C_1  and  C_2
REMARK    2  A    between atoms: C_2  and  O_4
REMARK    3  A    between atoms: O_4  and  C_5
REMARK    4  A    between atoms: C_5  and  C_6
REMARK    5  A    between atoms: C_6  and  C_15
REMARK    6  A    between atoms: C_7  and  C_8
REMARK    7  A    between atoms: C_15  and  C_17
REMARK                            x       y       z     vdW  Elec       q    Type
REMARK                         _______ _______ _______ _____ _____    ______ ____
ROOT
ATOM      1  C   UNL     1       3.141   5.323  17.918  0.00  0.00    +0.000 C 
ATOM      2  C   UNL     1       3.433   6.622  18.144  0.00  0.00    +0.000 C 
ENDROOT
BRANCH   2   3
ATOM      3  C   UNL     1       2.489   7.616  18.663  0.00  0.00    +0.000 A 
ATOM      4  C   UNL     1       2.107   7.578  20.011  0.00  0.00    +0.000 A 
ATOM      5  C   UNL     1       1.179   8.499  20.505  0.00  0.00    +0.000 A 
ATOM      6  C   UNL     1       0.631   9.454  19.650  0.00  0.00    +0.000 A 
ATOM      7 CL   UNL     1      -0.546  10.559  20.244  0.00  0.00    +0.000 Cl
ATOM      8  C   UNL     1       1.022   9.511  18.314  0.00  0.00    +0.000 A 
ATOM      9  C   UNL     1       1.960   8.599  17.825  0.00  0.00    +0.000 A 
ENDBRANCH   2   3
BRANCH   1  10
ATOM     10  C   UNL     1       4.207   4.319  17.548  0.00  0.00    +0.000 C 
ATOM     11  O   UNL     1       4.370   3.298  18.214  0.00  0.00    +0.000 OA
BRANCH  10  12
ATOM     12  C   UNL     1       5.111   4.518  16.381  0.00  0.00    +0.000 A 
ATOM     13  C   UNL     1       4.726   4.245  15.063  0.00  0.00    +0.000 A 
ATOM     14  C   UNL     1       5.645   4.384  14.018  0.00  0.00    +0.000 A 
ATOM     15  C   UNL     1       6.928   4.857  14.281  0.00  0.00    +0.000 A 
ATOM     16 CL   UNL     1       8.062   5.008  12.998  0.00  0.00    +0.000 Cl
ATOM     17  C   UNL     1       7.297   5.210  15.577  0.00  0.00    +0.000 A 
ATOM     18  C   UNL     1       6.390   5.041  16.627  0.00  0.00    +0.000 A 
ENDBRANCH  10  12
ENDBRANCH   1  10
BRANCH   1  19
ATOM     19  C   UNL     1       1.744   4.738  17.992  0.00  0.00    +0.000 C 
BRANCH  19  20
ATOM     20  O   UNL     1       1.390   4.390  19.345  0.00  0.00    +0.000 OA
BRANCH  20  22
ATOM     21  C   UNL     1       1.377   2.720  20.991  0.00  0.00    +0.000 C 
ATOM     22  C   UNL     1       1.036   3.105  19.584  0.00  0.00    +0.000 C 
ATOM     23  O   UNL     1       0.556   2.329  18.771  0.00  0.00    +0.000 OA
ENDBRANCH  20  22
ENDBRANCH  19  20
ENDBRANCH   1  19
TORSDOF 6
ENDMDL
MODEL 8
REMARK VINA RESULT:      -7.4      0.907      1.391
REMARK  Name = 
REMARK  7 active torsions:
REMARK  status: ('A' for Active; 'I' for Inactive)
REMARK    1  A    between atoms: C_1  and  C_2
REMARK    2  A    between atoms: C_2  and  O_4
REMARK    3  A    between atoms: O_4  and  C_5
REMARK    4  A    between atoms: C_5  and  C_6
REMARK    5  A    between atoms: C_6  and  C_15
REMARK    6  A    between atoms: C_7  and  C_8
REMARK    7  A    between atoms: C_15  and  C_17
REMARK                            x       y       z     vdW  Elec       q    Type
REMARK                         _______ _______ _______ _____ _____    ______ ____
ROOT
ATOM      1  C   UNL     1       3.604   5.508  18.519  0.00  0.00    +0.000 C 
ATOM      2  C   UNL     1       3.633   6.839  18.291  0.00  0.00    +0.000 C 
ENDROOT
BRANCH   2   3
ATOM      3  C   UNL     1       2.574   7.778  18.669  0.00  0.00    +0.000 A 
ATOM      4  C   UNL     1       2.100   7.802  19.988  0.00  0.00    +0.000 A 
ATOM      5  C   UNL     1       1.065   8.669  20.347  0.00  0.00    +0.000 A 
ATOM      6  C   UNL     1       0.501   9.508  19.387  0.00  0.00    +0.000 A 
ATOM      7 CL   UNL     1      -0.805  10.543  19.815  0.00  0.00    +0.000 Cl
ATOM      8  C   UNL     1       0.981   9.505  18.079  0.00  0.00    +0.000 A 
ATOM      9  C   UNL     1       2.026   8.648  17.725  0.00  0.00    +0.000 A 
ENDBRANCH   2   3
BRANCH   1  10
ATOM     10  C   UNL     1       4.804   4.628  18.260  0.00  0.00    +0.000 C 
ATOM     11  O   UNL     1       5.236   3.878  19.134  0.00  0.00    +0.000 OA
BRANCH  10  12
ATOM     12  C   UNL     1       5.522   4.632  16.955  0.00  0.00    +0.000 A 
ATOM     13  C   UNL     1       6.888   4.919  16.838  0.00  0.00    +0.000 A 
ATOM     14  C   UNL     1       7.489   4.979  15.576  0.00  0.00    +0.000 A 
ATOM     15  C   UNL     1       6.741   4.689  14.438  0.00  0.00    +0.000 A 
ATOM     16 CL   UNL     1       7.478   4.783  12.887  0.00  0.00    +0.000 Cl
ATOM     17  C   UNL     1       5.402   4.322  14.548  0.00  0.00    +0.000 A 
ATOM     18  C   UNL     1       4.792   4.294  15.805  0.00  0.00    +0.000 A 
ENDBRANCH  10  12
ENDBRANCH   1  10
BRANCH   1  19
ATOM     19  C   UNL     1       2.390   4.758  19.032  0.00  0.00    +0.000 C 
BRANCH  19  20
ATOM     20  O   UNL     1       1.812   3.928  18.005  0.00  0.00    +0.000 OA
BRANCH  20  22
ATOM     21  C   UNL     1       2.642   1.774  18.419  0.00  0.00    +0.000 C 
ATOM     22  C   UNL     1       1.445   2.672  18.355  0.00  0.00    +0.000 C 
ATOM     23  O   UNL     1       0.301   2.285  18.543  0.00  0.00    +0.000 OA
ENDBRANCH  20  22
ENDBRANCH  19  20
ENDBRANCH   1  19
TORSDOF 6
ENDMDL
MODEL 9
REMARK VINA RESULT:      -7.4      1.098      1.548
REMARK  Name = 
REMARK  7 active torsions:
REMARK  status: ('A' for Active; 'I' for Inactive)
REMARK    1  A    between atoms: C_1  and  C_2
REMARK    2  A    between atoms: C_2  and  O_4
REMARK    3  A    between atoms: O_4  and  C_5
REMARK    4  A    between atoms: C_5  and  C_6
REMARK    5  A    between atoms: C_6  and  C_15
REMARK    6  A    between atoms: C_7  and  C_8
REMARK    7  A    between atoms: C_15  and  C_17
REMARK                            x       y       z     vdW  Elec       q    Type
REMARK                         _______ _______ _______ _____ _____    ______ ____
ROOT
ATOM      1  C   UNL     1       4.333   5.549  18.482  0.00  0.00    +0.000 C 
ATOM      2  C   UNL     1       3.909   6.693  17.903  0.00  0.00    +0.000 C 
ENDROOT
BRANCH   2   3
ATOM      3  C   UNL     1       2.846   7.555  18.427  0.00  0.00    +0.000 A 
ATOM      4  C   UNL     1       2.309   8.569  17.622  0.00  0.00    +0.000 A 
ATOM      5  C   UNL     1       1.321   9.419  18.127  0.00  0.00    +0.000 A 
ATOM      6  C   UNL     1       0.874   9.257  19.437  0.00  0.00    +0.000 A 
ATOM      7 CL   UNL     1      -0.308  10.331  20.077  0.00  0.00    +0.000 Cl
ATOM      8  C   UNL     1       1.389   8.238  20.237  0.00  0.00    +0.000 A 
ATOM      9  C   UNL     1       2.365   7.381  19.726  0.00  0.00    +0.000 A 
ENDBRANCH   2   3
BRANCH   1  10
ATOM     10  C   UNL     1       5.548   4.804  17.981  0.00  0.00    +0.000 C 
ATOM     11  O   UNL     1       6.350   4.305  18.768  0.00  0.00    +0.000 OA
BRANCH  10  12
ATOM     12  C   UNL     1       5.839   4.650  16.528  0.00  0.00    +0.000 A 
ATOM     13  C   UNL     1       4.930   4.086  15.624  0.00  0.00    +0.000 A 
ATOM     14  C   UNL     1       5.290   3.902  14.285  0.00  0.00    +0.000 A 
ATOM     15  C   UNL     1       6.534   4.341  13.836  0.00  0.00    +0.000 A 
ATOM     16 CL   UNL     1       6.982   4.096  12.194  0.00  0.00    +0.000 Cl
ATOM     17  C   UNL     1       7.414   4.978  14.708  0.00  0.00    +0.000 A 
ATOM     18  C   UNL     1       7.068   5.132  16.053  0.00  0.00    +0.000 A 
ENDBRANCH  10  12
ENDBRANCH   1  10
BRANCH   1  19
ATOM     19  C   UNL     1       3.646   4.884  19.659  0.00  0.00    +0.000 C 
BRANCH  19  20
ATOM     20  O   UNL     1       2.985   3.666  19.264  0.00  0.00    +0.000 OA
BRANCH  20  22
ATOM     21  C   UNL     1       0.816   3.744  20.151  0.00  0.00    +0.000 C 
ATOM     22  C   UNL     1       1.676   3.751  18.925  0.00  0.00    +0.000 C 
ATOM     23  O   UNL     1       1.229   3.775  17.788  0.00  0.00    +0.000 OA
ENDBRANCH  20  22
ENDBRANCH  19  20
ENDBRANCH   1  19
TORSDOF 6
ENDMDL
