MODEL 1
REMARK VINA RESULT:      -7.5      0.000      0.000
REMARK  Name = 
REMARK  3 active torsions:
REMARK  status: ('A' for Active; 'I' for Inactive)
REMARK    1  A    between atoms: C_1  and  C_2
REMARK    2  A    between atoms: C_6  and  C_7
REMARK    3  A    between atoms: C_7  and  N_8
REMARK                            x       y       z     vdW  Elec       q    Type
REMARK                         _______ _______ _______ _____ _____    ______ ____
ROOT
ATOM      1  N   UNL     1       5.190   3.784  18.199  0.00  0.00    +0.000 N 
ATOM      2  C   UNL     1       5.408   4.667  19.224  0.00  0.00    +0.000 A 
ATOM      3  N   UNL     1       6.119   5.705  18.834  0.00  0.00    +0.000 NA
ATOM      4  C   UNL     1       6.377   5.475  17.499  0.00  0.00    +0.000 A 
ATOM      5  C   UNL     1       7.113   6.188  16.535  0.00  0.00    +0.000 A 
ATOM      6  N   UNL     1       7.815   7.347  16.826  0.00  0.00    +0.000 N 
ATOM      7  N   UNL     1       7.146   5.720  15.268  0.00  0.00    +0.000 NA
ATOM      8  C   UNL     1       6.492   4.571  15.007  0.00  0.00    +0.000 A 
ATOM      9 CL   UNL     1       6.583   4.024  13.388  0.00  0.00    +0.000 Cl
ATOM     10  N   UNL     1       5.779   3.782  15.838  0.00  0.00    +0.000 NA
ATOM     11  C   UNL     1       5.771   4.302  17.075  0.00  0.00    +0.000 A 
ATOM     12  H   UNL     1       7.524   7.817  17.675  0.00  0.00    +0.000 HD
ATOM     13  H   UNL     1       8.030   7.908  16.013  0.00  0.00    +0.000 HD
ENDROOT
BRANCH   1  14
ATOM     14  C   UNL     1       4.457   2.538  18.288  0.00  0.00    +0.000 C 
BRANCH  14  20
ATOM     15  C   UNL     1       1.405   2.474  22.084  0.00  0.00    +0.000 C 
ATOM     16  C   UNL     1       1.605   2.753  20.624  0.00  0.00    +0.000 A 
ATOM     17  C   UNL     1       0.550   3.184  19.831  0.00  0.00    +0.000 A 
ATOM     18  C   UNL     1       0.777   3.404  18.478  0.00  0.00    +0.000 A 
ATOM     19  C   UNL     1       2.046   3.187  17.954  0.00  0.00    +0.000 A 
ATOM     20  C   UNL     1       3.063   2.769  18.808  0.00  0.00    +0.000 A 
ATOM     21  N   UNL     1       2.853   2.545  20.131  0.00  0.00    +0.000 NA
ENDBRANCH  14  20
ENDBRANCH   1  14
TORSDOF 2
ENDMDL
MODEL 2
REMARK VINA RESULT:      -7.3      2.215      2.782
REMARK  Name = 
REMARK  3 active torsions:
REMARK  status: ('A' for Active; 'I' for Inactive)
REMARK    1  A    between atoms: C_1  and  C_2
REMARK    2  A    between atoms: C_6  and  C_7
REMARK    3  A    between atoms: C_7  and  N_8
REMARK                            x       y       z     vdW  Elec       q    Type
REMARK                         _______ _______ _______ _____ _____    ______ ____
ROOT
ATOM      1  N   UNL     1       5.391   4.602  16.862  0.00  0.00    +0.000 N 
ATOM      2  C   UNL     1       5.124   5.443  15.814  0.00  0.00    +0.000 A 
ATOM      3  N   UNL     1       5.827   6.554  15.886  0.00  0.00    +0.000 NA
ATOM      4  C   UNL     1       6.575   6.425  17.038  0.00  0.00    +0.000 A 
ATOM      5  C   UNL     1       7.488   7.282  17.681  0.00  0.00    +0.000 A 
ATOM      6  N   UNL     1       7.774   8.560  17.226  0.00  0.00    +0.000 N 
ATOM      7  N   UNL     1       8.108   6.846  18.799  0.00  0.00    +0.000 NA
ATOM      8  C   UNL     1       7.790   5.617  19.253  0.00  0.00    +0.000 A 
ATOM      9 CL   UNL     1       8.600   5.128  20.679  0.00  0.00    +0.000 Cl
ATOM     10  N   UNL     1       6.921   4.715  18.751  0.00  0.00    +0.000 NA
ATOM     11  C   UNL     1       6.346   5.197  17.638  0.00  0.00    +0.000 A 
ATOM     12  H   UNL     1       7.537   8.726  16.255  0.00  0.00    +0.000 HD
ATOM     13  H   UNL     1       8.643   8.933  17.582  0.00  0.00    +0.000 HD
ENDROOT
BRANCH   1  14
ATOM     14  C   UNL     1       4.785   3.307  17.093  0.00  0.00    +0.000 C 
BRANCH  14  20
ATOM     15  C   UNL     1       2.668   2.751  21.445  0.00  0.00    +0.000 C 
ATOM     16  C   UNL     1       2.530   3.185  20.016  0.00  0.00    +0.000 A 
ATOM     17  C   UNL     1       1.319   3.659  19.529  0.00  0.00    +0.000 A 
ATOM     18  C   UNL     1       1.233   4.023  18.191  0.00  0.00    +0.000 A 
ATOM     19  C   UNL     1       2.354   3.904  17.377  0.00  0.00    +0.000 A 
ATOM     20  C   UNL     1       3.542   3.436  17.933  0.00  0.00    +0.000 A 
ATOM     21  N   UNL     1       3.638   3.071  19.238  0.00  0.00    +0.000 NA
ENDBRANCH  14  20
ENDBRANCH   1  14
TORSDOF 2
ENDMDL
MODEL 3
REMARK VINA RESULT:      -7.3      2.986      6.474
REMARK  Name = 
REMARK  3 active torsions:
REMARK  status: ('A' for Active; 'I' for Inactive)
REMARK    1  A    between atoms: C_1  and  C_2
REMARK    2  A    between atoms: C_6  and  C_7
REMARK    3  A    between atoms: C_7  and  N_8
REMARK                            x       y       z     vdW  Elec       q    Type
REMARK                         _______ _______ _______ _____ _____    ______ ____
ROOT
ATOM      1  N   UNL     1       3.869   4.490  17.491  0.00  0.00    +0.000 N 
ATOM      2  C   UNL     1       3.672   3.136  17.421  0.00  0.00    +0.000 A 
ATOM      3  N   UNL     1       2.832   2.714  18.345  0.00  0.00    +0.000 NA
ATOM      4  C   UNL     1       2.479   3.849  19.046  0.00  0.00    +0.000 A 
ATOM      5  C   UNL     1       1.651   4.057  20.164  0.00  0.00    +0.000 A 
ATOM      6  N   UNL     1       1.025   3.024  20.844  0.00  0.00    +0.000 N 
ATOM      7  N   UNL     1       1.463   5.320  20.605  0.00  0.00    +0.000 NA
ATOM      8  C   UNL     1       2.110   6.311  19.960  0.00  0.00    +0.000 A 
ATOM      9 CL   UNL     1       1.841   7.886  20.574  0.00  0.00    +0.000 Cl
ATOM     10  N   UNL     1       2.946   6.245  18.903  0.00  0.00    +0.000 NA
ATOM     11  C   UNL     1       3.084   4.971  18.502  0.00  0.00    +0.000 A 
ATOM     12  H   UNL     1       0.942   2.161  20.319  0.00  0.00    +0.000 HD
ATOM     13  H   UNL     1       0.241   3.324  21.408  0.00  0.00    +0.000 HD
ENDROOT
BRANCH   1  14
ATOM     14  C   UNL     1       4.735   5.271  16.633  0.00  0.00    +0.000 C 
BRANCH  14  20
ATOM     15  C   UNL     1       7.888   8.875  17.528  0.00  0.00    +0.000 C 
ATOM     16  C   UNL     1       7.452   7.472  17.825  0.00  0.00    +0.000 A 
ATOM     17  C   UNL     1       8.152   6.684  18.729  0.00  0.00    +0.000 A 
ATOM     18  C   UNL     1       7.726   5.380  18.951  0.00  0.00    +0.000 A 
ATOM     19  C   UNL     1       6.617   4.898  18.266  0.00  0.00    +0.000 A 
ATOM     20  C   UNL     1       5.951   5.745  17.384  0.00  0.00    +0.000 A 
ATOM     21  N   UNL     1       6.360   7.020  17.154  0.00  0.00    +0.000 NA
ENDBRANCH  14  20
ENDBRANCH   1  14
TORSDOF 2
ENDMDL
MODEL 4
REMARK VINA RESULT:      -7.2      5.404      6.293
REMARK  Name = 
REMARK  3 active torsions:
REMARK  status: ('A' for Active; 'I' for Inactive)
REMARK    1  A    between atoms: C_1  and  C_2
REMARK    2  A    between atoms: C_6  and  C_7
REMARK    3  A    between atoms: C_7  and  N_8
REMARK                            x       y       z     vdW  Elec       q    Type
REMARK                         _______ _______ _______ _____ _____    ______ ____
ROOT
ATOM      1  N   UNL     1       2.633   7.568  18.866  0.00  0.00    +0.000 N 
ATOM      2  C   UNL     1       2.762   8.091  17.606  0.00  0.00    +0.000 A 
ATOM      3  N   UNL     1       1.961   9.119  17.417  0.00  0.00    +0.000 NA
ATOM      4  C   UNL     1       1.278   9.259  18.608  0.00  0.00    +0.000 A 
ATOM      5  C   UNL     1       0.265  10.140  19.026  0.00  0.00    +0.000 A 
ATOM      6  N   UNL     1      -0.305  11.088  18.190  0.00  0.00    +0.000 N 
ATOM      7  N   UNL     1      -0.183  10.056  20.298  0.00  0.00    +0.000 NA
ATOM      8  C   UNL     1       0.352   9.104  21.088  0.00  0.00    +0.000 A 
ATOM      9 CL   UNL     1      -0.266   9.041  22.683  0.00  0.00    +0.000 Cl
ATOM     10  N   UNL     1       1.299   8.186  20.805  0.00  0.00    +0.000 NA
ATOM     11  C   UNL     1       1.713   8.326  19.536  0.00  0.00    +0.000 A 
ATOM     12  H   UNL     1       0.249  11.320  17.374  0.00  0.00    +0.000 HD
ATOM     13  H   UNL     1      -0.776  11.835  18.683  0.00  0.00    +0.000 HD
ENDROOT
BRANCH   1  14
ATOM     14  C   UNL     1       3.357   6.431  19.396  0.00  0.00    +0.000 C 
BRANCH  14  20
ATOM     15  C   UNL     1       1.341   2.644  21.703  0.00  0.00    +0.000 C 
ATOM     16  C   UNL     1       1.552   3.372  20.410  0.00  0.00    +0.000 A 
ATOM     17  C   UNL     1       1.015   2.888  19.224  0.00  0.00    +0.000 A 
ATOM     18  C   UNL     1       1.260   3.583  18.046  0.00  0.00    +0.000 A 
ATOM     19  C   UNL     1       2.033   4.738  18.082  0.00  0.00    +0.000 A 
ATOM     20  C   UNL     1       2.529   5.177  19.307  0.00  0.00    +0.000 A 
ATOM     21  N   UNL     1       2.301   4.504  20.465  0.00  0.00    +0.000 NA
ENDBRANCH  14  20
ENDBRANCH   1  14
TORSDOF 2
ENDMDL
MODEL 5
REMARK VINA RESULT:      -7.2      2.182      2.861
REMARK  Name = 
REMARK  3 active torsions:
REMARK  status: ('A' for Active; 'I' for Inactive)
REMARK    1  A    between atoms: C_1  and  C_2
REMARK    2  A    between atoms: C_6  and  C_7
REMARK    3  A    between atoms: C_7  and  N_8
REMARK                            x       y       z     vdW  Elec       q    Type
REMARK                         _______ _______ _______ _____ _____    ______ ____
ROOT
ATOM      1  N   UNL     1       5.076   3.669  18.278  0.00  0.00    +0.000 N 
ATOM      2  C   UNL     1       4.603   3.030  17.162  0.00  0.00    +0.000 A 
ATOM      3  N   UNL     1       5.103   3.541  16.056  0.00  0.00    +0.000 NA
ATOM      4  C   UNL     1       5.929   4.561  16.480  0.00  0.00    +0.000 A 
ATOM      5  C   UNL     1       6.713   5.501  15.786  0.00  0.00    +0.000 A 
ATOM      6  N   UNL     1       6.742   5.587  14.402  0.00  0.00    +0.000 N 
ATOM      7  N   UNL     1       7.466   6.368  16.497  0.00  0.00    +0.000 NA
ATOM      8  C   UNL     1       7.397   6.300  17.842  0.00  0.00    +0.000 A 
ATOM      9 CL   UNL     1       8.365   7.433  18.685  0.00  0.00    +0.000 Cl
ATOM     10  N   UNL     1       6.672   5.473  18.623  0.00  0.00    +0.000 NA
ATOM     11  C   UNL     1       5.956   4.630  17.864  0.00  0.00    +0.000 A 
ATOM     12  H   UNL     1       6.421   4.755  13.920  0.00  0.00    +0.000 HD
ATOM     13  H   UNL     1       7.551   6.073  14.042  0.00  0.00    +0.000 HD
ENDROOT
BRANCH   1  14
ATOM     14  C   UNL     1       4.722   3.366  19.650  0.00  0.00    +0.000 C 
BRANCH  14  20
ATOM     15  C   UNL     1       1.614   6.984  20.637  0.00  0.00    +0.000 C 
ATOM     16  C   UNL     1       1.816   5.517  20.405  0.00  0.00    +0.000 A 
ATOM     17  C   UNL     1       0.750   4.630  20.478  0.00  0.00    +0.000 A 
ATOM     18  C   UNL     1       0.991   3.276  20.282  0.00  0.00    +0.000 A 
ATOM     19  C   UNL     1       2.286   2.844  20.021  0.00  0.00    +0.000 A 
ATOM     20  C   UNL     1       3.308   3.787  19.947  0.00  0.00    +0.000 A 
ATOM     21  N   UNL     1       3.086   5.113  20.141  0.00  0.00    +0.000 NA
ENDBRANCH  14  20
ENDBRANCH   1  14
TORSDOF 2
ENDMDL
MODEL 6
REMARK VINA RESULT:      -7.1      2.153      2.807
REMARK  Name = 
REMARK  3 active torsions:
REMARK  status: ('A' for Active; 'I' for Inactive)
REMARK    1  A    between atoms: C_1  and  C_2
REMARK    2  A    between atoms: C_6  and  C_7
REMARK    3  A    between atoms: C_7  and  N_8
REMARK                            x       y       z     vdW  Elec       q    Type
REMARK                         _______ _______ _______ _____ _____    ______ ____
ROOT
ATOM      1  N   UNL     1       5.762   4.397  16.360  0.00  0.00    +0.000 N 
ATOM      2  C   UNL     1       6.646   5.300  16.889  0.00  0.00    +0.000 A 
ATOM      3  N   UNL     1       7.482   5.757  15.980  0.00  0.00    +0.000 NA
ATOM      4  C   UNL     1       7.124   5.112  14.814  0.00  0.00    +0.000 A 
ATOM      5  C   UNL     1       7.653   5.140  13.510  0.00  0.00    +0.000 A 
ATOM      6  N   UNL     1       8.778   5.872  13.166  0.00  0.00    +0.000 N 
ATOM      7  N   UNL     1       7.043   4.413  12.549  0.00  0.00    +0.000 NA
ATOM      8  C   UNL     1       5.974   3.674  12.905  0.00  0.00    +0.000 A 
ATOM      9 CL   UNL     1       5.254   2.767  11.645  0.00  0.00    +0.000 Cl
ATOM     10  N   UNL     1       5.389   3.538  14.114  0.00  0.00    +0.000 NA
ATOM     11  C   UNL     1       6.028   4.291  15.023  0.00  0.00    +0.000 A 
ATOM     12  H   UNL     1       9.012   6.617  13.813  0.00  0.00    +0.000 HD
ATOM     13  H   UNL     1       8.861   6.050  12.174  0.00  0.00    +0.000 HD
ENDROOT
BRANCH   1  14
ATOM     14  C   UNL     1       4.720   3.698  17.085  0.00  0.00    +0.000 C 
BRANCH  14  20
ATOM     15  C   UNL     1       2.213   4.483  21.187  0.00  0.00    +0.000 C 
ATOM     16  C   UNL     1       2.727   5.036  19.891  0.00  0.00    +0.000 A 
ATOM     17  C   UNL     1       2.451   6.344  19.516  0.00  0.00    +0.000 A 
ATOM     18  C   UNL     1       2.926   6.804  18.294  0.00  0.00    +0.000 A 
ATOM     19  C   UNL     1       3.661   5.949  17.482  0.00  0.00    +0.000 A 
ATOM     20  C   UNL     1       3.915   4.653  17.924  0.00  0.00    +0.000 A 
ATOM     21  N   UNL     1       3.452   4.190  19.114  0.00  0.00    +0.000 NA
ENDBRANCH  14  20
ENDBRANCH   1  14
TORSDOF 2
ENDMDL
MODEL 7
REMARK VINA RESULT:      -7.1      2.336      3.354
REMARK  Name = 
REMARK  3 active torsions:
REMARK  status: ('A' for Active; 'I' for Inactive)
REMARK    1  A    between atoms: C_1  and  C_2
REMARK    2  A    between atoms: C_6  and  C_7
REMARK    3  A    between atoms: C_7  and  N_8
REMARK                            x       y       z     vdW  Elec       q    Type
REMARK                         _______ _______ _______ _____ _____    ______ ____
ROOT
ATOM      1  N   UNL     1       5.693   4.397  16.343  0.00  0.00    +0.000 N 
ATOM      2  C   UNL     1       6.563   5.308  16.883  0.00  0.00    +0.000 A 
ATOM      3  N   UNL     1       7.414   5.764  15.987  0.00  0.00    +0.000 NA
ATOM      4  C   UNL     1       7.081   5.111  14.819  0.00  0.00    +0.000 A 
ATOM      5  C   UNL     1       7.634   5.133  13.525  0.00  0.00    +0.000 A 
ATOM      6  N   UNL     1       8.762   5.869  13.198  0.00  0.00    +0.000 N 
ATOM      7  N   UNL     1       7.046   4.398  12.557  0.00  0.00    +0.000 NA
ATOM      8  C   UNL     1       5.974   3.656  12.897  0.00  0.00    +0.000 A 
ATOM      9 CL   UNL     1       5.283   2.737  11.629  0.00  0.00    +0.000 Cl
ATOM     10  N   UNL     1       5.367   3.524  14.095  0.00  0.00    +0.000 NA
ATOM     11  C   UNL     1       5.985   4.285  15.012  0.00  0.00    +0.000 A 
ATOM     12  H   UNL     1       8.980   6.619  13.845  0.00  0.00    +0.000 HD
ATOM     13  H   UNL     1       8.863   6.041  12.207  0.00  0.00    +0.000 HD
ENDROOT
BRANCH   1  14
ATOM     14  C   UNL     1       4.641   3.698  17.052  0.00  0.00    +0.000 C 
BRANCH  14  20
ATOM     15  C   UNL     1       2.581   8.052  17.778  0.00  0.00    +0.000 C 
ATOM     16  C   UNL     1       2.916   6.701  18.335  0.00  0.00    +0.000 A 
ATOM     17  C   UNL     1       2.573   6.363  19.638  0.00  0.00    +0.000 A 
ATOM     18  C   UNL     1       2.929   5.108  20.119  0.00  0.00    +0.000 A 
ATOM     19  C   UNL     1       3.615   4.228  19.290  0.00  0.00    +0.000 A 
ATOM     20  C   UNL     1       3.915   4.625  17.989  0.00  0.00    +0.000 A 
ATOM     21  N   UNL     1       3.578   5.849  17.509  0.00  0.00    +0.000 NA
ENDBRANCH  14  20
ENDBRANCH   1  14
TORSDOF 2
ENDMDL
MODEL 8
REMARK VINA RESULT:      -7.1      3.509      4.051
REMARK  Name = 
REMARK  3 active torsions:
REMARK  status: ('A' for Active; 'I' for Inactive)
REMARK    1  A    between atoms: C_1  and  C_2
REMARK    2  A    between atoms: C_6  and  C_7
REMARK    3  A    between atoms: C_7  and  N_8
REMARK                            x       y       z     vdW  Elec       q    Type
REMARK                         _______ _______ _______ _____ _____    ______ ____
ROOT
ATOM      1  N   UNL     1       4.074   4.983  18.195  0.00  0.00    +0.000 N 
ATOM      2  C   UNL     1       3.651   4.021  17.316  0.00  0.00    +0.000 A 
ATOM      3  N   UNL     1       4.471   3.897  16.293  0.00  0.00    +0.000 NA
ATOM      4  C   UNL     1       5.464   4.827  16.521  0.00  0.00    +0.000 A 
ATOM      5  C   UNL     1       6.599   5.208  15.782  0.00  0.00    +0.000 A 
ATOM      6  N   UNL     1       6.905   4.676  14.539  0.00  0.00    +0.000 N 
ATOM      7  N   UNL     1       7.425   6.143  16.300  0.00  0.00    +0.000 NA
ATOM      8  C   UNL     1       7.094   6.681  17.490  0.00  0.00    +0.000 A 
ATOM      9 CL   UNL     1       8.174   7.868  18.087  0.00  0.00    +0.000 Cl
ATOM     10  N   UNL     1       6.030   6.428  18.281  0.00  0.00    +0.000 NA
ATOM     11  C   UNL     1       5.255   5.486  17.723  0.00  0.00    +0.000 A 
ATOM     12  H   UNL     1       6.454   3.792  14.334  0.00  0.00    +0.000 HD
ATOM     13  H   UNL     1       7.873   4.797  14.272  0.00  0.00    +0.000 HD
ENDROOT
BRANCH   1  14
ATOM     14  C   UNL     1       3.402   5.379  19.416  0.00  0.00    +0.000 C 
BRANCH  14  20
ATOM     15  C   UNL     1       0.794   8.968  21.427  0.00  0.00    +0.000 C 
ATOM     16  C   UNL     1       1.449   8.414  20.197  0.00  0.00    +0.000 A 
ATOM     17  C   UNL     1       1.371   9.087  18.984  0.00  0.00    +0.000 A 
ATOM     18  C   UNL     1       1.971   8.522  17.866  0.00  0.00    +0.000 A 
ATOM     19  C   UNL     1       2.630   7.304  17.986  0.00  0.00    +0.000 A 
ATOM     20  C   UNL     1       2.684   6.690  19.235  0.00  0.00    +0.000 A 
ATOM     21  N   UNL     1       2.098   7.229  20.335  0.00  0.00    +0.000 NA
ENDBRANCH  14  20
ENDBRANCH   1  14
TORSDOF 2
ENDMDL
MODEL 9
REMARK VINA RESULT:      -7.1      2.369      2.975
REMARK  Name = 
REMARK  3 active torsions:
REMARK  status: ('A' for Active; 'I' for Inactive)
REMARK    1  A    between atoms: C_1  and  C_2
REMARK    2  A    between atoms: C_6  and  C_7
REMARK    3  A    between atoms: C_7  and  N_8
REMARK                            x       y       z     vdW  Elec       q    Type
REMARK                         _______ _______ _______ _____ _____    ______ ____
ROOT
ATOM      1  N   UNL     1       5.338   4.667  16.853  0.00  0.00    +0.000 N 
ATOM      2  C   UNL     1       5.043   5.531  15.832  0.00  0.00    +0.000 A 
ATOM      3  N   UNL     1       5.748   6.641  15.910  0.00  0.00    +0.000 NA
ATOM      4  C   UNL     1       6.526   6.487  17.038  0.00  0.00    +0.000 A 
ATOM      5  C   UNL     1       7.455   7.330  17.676  0.00  0.00    +0.000 A 
ATOM      6  N   UNL     1       7.729   8.618  17.242  0.00  0.00    +0.000 N 
ATOM      7  N   UNL     1       8.105   6.869  18.766  0.00  0.00    +0.000 NA
ATOM      8  C   UNL     1       7.800   5.630  19.201  0.00  0.00    +0.000 A 
ATOM      9 CL   UNL     1       8.648   5.110  20.594  0.00  0.00    +0.000 Cl
ATOM     10  N   UNL     1       6.918   4.739  18.703  0.00  0.00    +0.000 NA
ATOM     11  C   UNL     1       6.314   5.245  17.616  0.00  0.00    +0.000 A 
ATOM     12  H   UNL     1       7.466   8.806  16.282  0.00  0.00    +0.000 HD
ATOM     13  H   UNL     1       8.608   8.984  17.583  0.00  0.00    +0.000 HD
ENDROOT
BRANCH   1  14
ATOM     14  C   UNL     1       4.738   3.367  17.071  0.00  0.00    +0.000 C 
BRANCH  14  20
ATOM     15  C   UNL     1       2.113   5.887  20.309  0.00  0.00    +0.000 C 
ATOM     16  C   UNL     1       2.200   4.697  19.400  0.00  0.00    +0.000 A 
ATOM     17  C   UNL     1       1.160   3.781  19.326  0.00  0.00    +0.000 A 
ATOM     18  C   UNL     1       1.297   2.679  18.490  0.00  0.00    +0.000 A 
ATOM     19  C   UNL     1       2.465   2.522  17.754  0.00  0.00    +0.000 A 
ATOM     20  C   UNL     1       3.464   3.487  17.863  0.00  0.00    +0.000 A 
ATOM     21  N   UNL     1       3.344   4.565  18.680  0.00  0.00    +0.000 NA
ENDBRANCH  14  20
ENDBRANCH   1  14
TORSDOF 2
ENDMDL
