MODEL 1
REMARK VINA RESULT:      -8.1      0.000      0.000
REMARK  Name = 
REMARK  5 active torsions:
REMARK  status: ('A' for Active; 'I' for Inactive)
REMARK    1  A    between atoms: C_1  and  O_2
REMARK    2  A    between atoms: O_2  and  C_3
REMARK    3  A    between atoms: C_6  and  C_7
REMARK    4  A    between atoms: C_7  and  C_8
REMARK    5  A    between atoms: C_12  and  C_13
REMARK                            x       y       z     vdW  Elec       q    Type
REMARK                         _______ _______ _______ _____ _____    ______ ____
ROOT
ATOM      1  C   UNL     1      -0.663  12.302  19.490  0.00  0.00    +0.000 C 
ATOM      2  N   UNL     1       0.584  12.100  18.666  0.00  0.00    +0.000 NA
ATOM      3  C   UNL     1       1.472  12.604  19.502  0.00  0.00    +0.000 C 
ATOM      4  N   UNL     1       1.856  12.489  20.832  0.00  0.00    +0.000 N 
ATOM      5  C   UNL     1       1.280  13.934  19.240  0.00  0.00    +0.000 A 
ATOM      6  C   UNL     1       2.330  14.784  18.891  0.00  0.00    +0.000 A 
ATOM      7  F   UNL     1       3.591  14.361  18.926  0.00  0.00    +0.000 F 
ATOM      8  C   UNL     1       1.956  16.024  18.501  0.00  0.00    +0.000 A 
ATOM      9  C   UNL     1       0.567  16.284  18.495  0.00  0.00    +0.000 A 
ATOM     10  C   UNL     1      -0.497  15.282  18.873  0.00  0.00    +0.000 A 
ATOM     11  C   UNL     1      -0.127  13.995  19.318  0.00  0.00    +0.000 A 
ATOM     12  H   UNL     1       1.454  11.829  21.483  0.00  0.00    +0.000 HD
ATOM     13  H   UNL     1       2.387  13.247  21.267  0.00  0.00    +0.000 HD
ENDROOT
BRANCH   1  17
ATOM     14  C   UNL     1      -4.841  11.900  17.893  0.00  0.00    +0.000 A 
ATOM     15  C   UNL     1      -3.764  11.445  17.151  0.00  0.00    +0.000 A 
ATOM     16  C   UNL     1      -2.449  11.371  17.740  0.00  0.00    +0.000 A 
ATOM     17  C   UNL     1      -2.149  11.791  19.096  0.00  0.00    +0.000 A 
ATOM     18  C   UNL     1      -3.273  12.282  19.778  0.00  0.00    +0.000 A 
ATOM     19  C   UNL     1      -4.590  12.338  19.199  0.00  0.00    +0.000 A 
BRANCH  14  21
ATOM     20  C   UNL     1      -7.166  12.305  18.066  0.00  0.00    +0.000 C 
ATOM     21  O   UNL     1      -6.048  11.950  17.244  0.00  0.00    +0.000 OA
ENDBRANCH  14  21
ENDBRANCH   1  17
BRANCH   1  22
ATOM     22  C   UNL     1      -0.175  10.759  20.140  0.00  0.00    +0.000 A 
ATOM     23  C   UNL     1      -0.205  10.571  21.598  0.00  0.00    +0.000 A 
ATOM     24  C   UNL     1       0.430   9.542  22.265  0.00  0.00    +0.000 A 
ATOM     25  C   UNL     1       1.180   8.674  21.503  0.00  0.00    +0.000 A 
ATOM     26  C   UNL     1       1.203   8.766  20.087  0.00  0.00    +0.000 A 
ATOM     27  C   UNL     1       0.471   9.772  19.413  0.00  0.00    +0.000 A 
BRANCH  26  28
ATOM     28  C   UNL     1       2.070   7.882  19.322  0.00  0.00    +0.000 A 
ATOM     29  C   UNL     1       2.602   8.212  18.084  0.00  0.00    +0.000 A 
ATOM     30  N   UNL     1       3.480   7.445  17.411  0.00  0.00    +0.000 NA
ATOM     31  C   UNL     1       3.800   6.281  18.005  0.00  0.00    +0.000 A 
ATOM     32  N   UNL     1       3.330   5.841  19.180  0.00  0.00    +0.000 NA
ATOM     33  C   UNL     1       2.484   6.661  19.812  0.00  0.00    +0.000 A 
ENDBRANCH  26  28
ENDBRANCH   1  22
TORSDOF 4
ENDMDL
MODEL 2
REMARK VINA RESULT:      -7.7      4.665      8.875
REMARK  Name = 
REMARK  5 active torsions:
REMARK  status: ('A' for Active; 'I' for Inactive)
REMARK    1  A    between atoms: C_1  and  O_2
REMARK    2  A    between atoms: O_2  and  C_3
REMARK    3  A    between atoms: C_6  and  C_7
REMARK    4  A    between atoms: C_7  and  C_8
REMARK    5  A    between atoms: C_12  and  C_13
REMARK                            x       y       z     vdW  Elec       q    Type
REMARK                         _______ _______ _______ _____ _____    ______ ____
ROOT
ATOM      1  C   UNL     1       3.467   5.504  18.898  0.00  0.00    +0.000 C 
ATOM      2  N   UNL     1       4.442   5.015  19.940  0.00  0.00    +0.000 NA
ATOM      3  C   UNL     1       4.506   3.744  19.588  0.00  0.00    +0.000 C 
ATOM      4  N   UNL     1       4.720   2.972  18.454  0.00  0.00    +0.000 N 
ATOM      5  C   UNL     1       3.353   3.302  20.180  0.00  0.00    +0.000 A 
ATOM      6  C   UNL     1       3.334   2.216  21.056  0.00  0.00    +0.000 A 
ATOM      7  F   UNL     1       4.424   1.480  21.253  0.00  0.00    +0.000 F 
ATOM      8  C   UNL     1       2.154   2.009  21.684  0.00  0.00    +0.000 A 
ATOM      9  C   UNL     1       1.115   2.915  21.374  0.00  0.00    +0.000 A 
ATOM     10  C   UNL     1       1.244   4.079  20.421  0.00  0.00    +0.000 A 
ATOM     11  C   UNL     1       2.454   4.290  19.727  0.00  0.00    +0.000 A 
ATOM     12  H   UNL     1       4.952   3.350  17.546  0.00  0.00    +0.000 HD
ATOM     13  H   UNL     1       4.400   2.001  18.442  0.00  0.00    +0.000 HD
ENDROOT
BRANCH   1  17
ATOM     14  C   UNL     1       1.172   9.324  18.342  0.00  0.00    +0.000 A 
ATOM     15  C   UNL     1       1.561   8.922  19.609  0.00  0.00    +0.000 A 
ATOM     16  C   UNL     1       2.477   7.820  19.778  0.00  0.00    +0.000 A 
ATOM     17  C   UNL     1       3.014   7.044  18.677  0.00  0.00    +0.000 A 
ATOM     18  C   UNL     1       2.547   7.473  17.425  0.00  0.00    +0.000 A 
ATOM     19  C   UNL     1       1.649   8.586  17.252  0.00  0.00    +0.000 A 
BRANCH  14  21
ATOM     20  C   UNL     1      -0.501  10.568  19.461  0.00  0.00    +0.000 C 
ATOM     21  O   UNL     1       0.287  10.370  18.282  0.00  0.00    +0.000 OA
ENDBRANCH  14  21
ENDBRANCH   1  17
BRANCH   1  22
ATOM     22  C   UNL     1       4.935   5.677  17.974  0.00  0.00    +0.000 A 
ATOM     23  C   UNL     1       5.846   6.784  18.306  0.00  0.00    +0.000 A 
ATOM     24  C   UNL     1       6.864   7.228  17.487  0.00  0.00    +0.000 A 
ATOM     25  C   UNL     1       6.989   6.616  16.259  0.00  0.00    +0.000 A 
ATOM     26  C   UNL     1       6.181   5.505  15.903  0.00  0.00    +0.000 A 
ATOM     27  C   UNL     1       5.202   5.004  16.794  0.00  0.00    +0.000 A 
BRANCH  26  28
ATOM     28  C   UNL     1       6.287   4.936  14.567  0.00  0.00    +0.000 A 
ATOM     29  C   UNL     1       7.365   5.155  13.722  0.00  0.00    +0.000 A 
ATOM     30  N   UNL     1       7.519   4.560  12.525  0.00  0.00    +0.000 NA
ATOM     31  C   UNL     1       6.520   3.738  12.159  0.00  0.00    +0.000 A 
ATOM     32  N   UNL     1       5.417   3.471  12.872  0.00  0.00    +0.000 NA
ATOM     33  C   UNL     1       5.336   4.071  14.064  0.00  0.00    +0.000 A 
ENDBRANCH  26  28
ENDBRANCH   1  22
TORSDOF 4
ENDMDL
MODEL 3
REMARK VINA RESULT:      -7.7      3.066      6.753
REMARK  Name = 
REMARK  5 active torsions:
REMARK  status: ('A' for Active; 'I' for Inactive)
REMARK    1  A    between atoms: C_1  and  O_2
REMARK    2  A    between atoms: O_2  and  C_3
REMARK    3  A    between atoms: C_6  and  C_7
REMARK    4  A    between atoms: C_7  and  C_8
REMARK    5  A    between atoms: C_12  and  C_13
REMARK                            x       y       z     vdW  Elec       q    Type
REMARK                         _______ _______ _______ _____ _____    ______ ____
ROOT
ATOM      1  C   UNL     1       0.469  11.663  18.743  0.00  0.00    +0.000 C 
ATOM      2  N   UNL     1       0.294  12.617  19.897  0.00  0.00    +0.000 NA
ATOM      3  C   UNL     1       0.028  13.719  19.220  0.00  0.00    +0.000 C 
ATOM      4  N   UNL     1      -0.818  14.161  18.211  0.00  0.00    +0.000 N 
ATOM      5  C   UNL     1       1.306  14.068  18.873  0.00  0.00    +0.000 A 
ATOM      6  C   UNL     1       1.833  15.332  19.142  0.00  0.00    +0.000 A 
ATOM      7  F   UNL     1       1.066  16.300  19.636  0.00  0.00    +0.000 F 
ATOM      8  C   UNL     1       3.155  15.465  18.890  0.00  0.00    +0.000 A 
ATOM      9  C   UNL     1       3.816  14.316  18.399  0.00  0.00    +0.000 A 
ATOM     10  C   UNL     1       3.155  12.980  18.160  0.00  0.00    +0.000 A 
ATOM     11  C   UNL     1       1.769  12.830  18.381  0.00  0.00    +0.000 A 
ATOM     12  H   UNL     1      -1.539  13.594  17.787  0.00  0.00    +0.000 HD
ATOM     13  H   UNL     1      -0.570  15.002  17.684  0.00  0.00    +0.000 HD
ENDROOT
BRANCH   1  17
ATOM     14  C   UNL     1       2.198   7.561  19.337  0.00  0.00    +0.000 A 
ATOM     15  C   UNL     1       1.599   8.225  20.394  0.00  0.00    +0.000 A 
ATOM     16  C   UNL     1       0.855   9.440  20.168  0.00  0.00    +0.000 A 
ATOM     17  C   UNL     1       0.711  10.065  18.867  0.00  0.00    +0.000 A 
ATOM     18  C   UNL     1       1.377   9.368  17.847  0.00  0.00    +0.000 A 
ATOM     19  C   UNL     1       2.104   8.144  18.068  0.00  0.00    +0.000 A 
BRANCH  14  21
ATOM     20  C   UNL     1       2.171   5.457  20.420  0.00  0.00    +0.000 C 
ATOM     21  O   UNL     1       2.897   6.424  19.652  0.00  0.00    +0.000 OA
ENDBRANCH  14  21
ENDBRANCH   1  17
BRANCH   1  22
ATOM     22  C   UNL     1      -1.261  11.535  18.920  0.00  0.00    +0.000 A 
ATOM     23  C   UNL     1      -2.076  11.334  17.712  0.00  0.00    +0.000 A 
ATOM     24  C   UNL     1      -3.443  11.521  17.653  0.00  0.00    +0.000 A 
ATOM     25  C   UNL     1      -4.060  11.976  18.798  0.00  0.00    +0.000 A 
ATOM     26  C   UNL     1      -3.341  12.134  20.011  0.00  0.00    +0.000 A 
ATOM     27  C   UNL     1      -1.956  11.848  20.076  0.00  0.00    +0.000 A 
BRANCH  26  28
ATOM     28  C   UNL     1      -4.009  12.693  21.177  0.00  0.00    +0.000 A 
ATOM     29  C   UNL     1      -5.335  13.099  21.181  0.00  0.00    +0.000 A 
ATOM     30  N   UNL     1      -5.990  13.528  22.275  0.00  0.00    +0.000 NA
ATOM     31  C   UNL     1      -5.256  13.579  23.401  0.00  0.00    +0.000 A 
ATOM     32  N   UNL     1      -3.964  13.244  23.516  0.00  0.00    +0.000 NA
ATOM     33  C   UNL     1      -3.378  12.799  22.399  0.00  0.00    +0.000 A 
ENDBRANCH  26  28
ENDBRANCH   1  22
TORSDOF 4
ENDMDL
MODEL 4
REMARK VINA RESULT:      -7.6      2.395      3.354
REMARK  Name = 
REMARK  5 active torsions:
REMARK  status: ('A' for Active; 'I' for Inactive)
REMARK    1  A    between atoms: C_1  and  O_2
REMARK    2  A    between atoms: O_2  and  C_3
REMARK    3  A    between atoms: C_6  and  C_7
REMARK    4  A    between atoms: C_7  and  C_8
REMARK    5  A    between atoms: C_12  and  C_13
REMARK                            x       y       z     vdW  Elec       q    Type
REMARK                         _______ _______ _______ _____ _____    ______ ____
ROOT
ATOM      1  C   UNL     1       0.107  13.022  20.205  0.00  0.00    +0.000 C 
ATOM      2  N   UNL     1      -0.057  13.827  18.941  0.00  0.00    +0.000 NA
ATOM      3  C   UNL     1       1.215  14.004  18.636  0.00  0.00    +0.000 C 
ATOM      4  N   UNL     1       2.377  13.259  18.481  0.00  0.00    +0.000 N 
ATOM      5  C   UNL     1       1.496  15.038  19.489  0.00  0.00    +0.000 A 
ATOM      6  C   UNL     1       2.066  16.233  19.048  0.00  0.00    +0.000 A 
ATOM      7  F   UNL     1       2.482  16.368  17.792  0.00  0.00    +0.000 F 
ATOM      8  C   UNL     1       2.126  17.214  19.977  0.00  0.00    +0.000 A 
ATOM      9  C   UNL     1       1.603  16.899  21.252  0.00  0.00    +0.000 A 
ATOM     10  C   UNL     1       0.983  15.574  21.624  0.00  0.00    +0.000 A 
ATOM     11  C   UNL     1       0.945  14.524  20.682  0.00  0.00    +0.000 A 
ATOM     12  H   UNL     1       2.418  12.251  18.551  0.00  0.00    +0.000 HD
ATOM     13  H   UNL     1       3.283  13.728  18.543  0.00  0.00    +0.000 HD
ENDROOT
BRANCH   1  17
ATOM     14  C   UNL     1      -3.017  12.056  23.284  0.00  0.00    +0.000 A 
ATOM     15  C   UNL     1      -3.339  12.833  22.183  0.00  0.00    +0.000 A 
ATOM     16  C   UNL     1      -2.410  12.969  21.087  0.00  0.00    +0.000 A 
ATOM     17  C   UNL     1      -1.095  12.359  21.066  0.00  0.00    +0.000 A 
ATOM     18  C   UNL     1      -0.814  11.623  22.227  0.00  0.00    +0.000 A 
ATOM     19  C   UNL     1      -1.746  11.469  23.314  0.00  0.00    +0.000 A 
BRANCH  14  21
ATOM     20  C   UNL     1      -5.066  12.890  24.124  0.00  0.00    +0.000 C 
ATOM     21  O   UNL     1      -3.955  12.000  24.282  0.00  0.00    +0.000 OA
ENDBRANCH  14  21
ENDBRANCH   1  17
BRANCH   1  22
ATOM     22  C   UNL     1       0.171  11.711  19.058  0.00  0.00    +0.000 A 
ATOM     23  C   UNL     1      -1.023  11.432  18.245  0.00  0.00    +0.000 A 
ATOM     24  C   UNL     1      -1.229  10.266  17.536  0.00  0.00    +0.000 A 
ATOM     25  C   UNL     1      -0.266   9.287  17.653  0.00  0.00    +0.000 A 
ATOM     26  C   UNL     1       0.934   9.515  18.374  0.00  0.00    +0.000 A 
ATOM     27  C   UNL     1       1.170  10.753  19.018  0.00  0.00    +0.000 A 
BRANCH  26  28
ATOM     28  C   UNL     1       1.891   8.430  18.542  0.00  0.00    +0.000 A 
ATOM     29  C   UNL     1       1.911   7.589  19.645  0.00  0.00    +0.000 A 
ATOM     30  N   UNL     1       2.727   6.526  19.768  0.00  0.00    +0.000 NA
ATOM     31  C   UNL     1       3.578   6.333  18.745  0.00  0.00    +0.000 A 
ATOM     32  N   UNL     1       3.674   7.092  17.645  0.00  0.00    +0.000 NA
ATOM     33  C   UNL     1       2.817   8.116  17.569  0.00  0.00    +0.000 A 
ENDBRANCH  26  28
ENDBRANCH   1  22
TORSDOF 4
ENDMDL
MODEL 5
REMARK VINA RESULT:      -7.6      3.324      6.185
REMARK  Name = 
REMARK  5 active torsions:
REMARK  status: ('A' for Active; 'I' for Inactive)
REMARK    1  A    between atoms: C_1  and  O_2
REMARK    2  A    between atoms: O_2  and  C_3
REMARK    3  A    between atoms: C_6  and  C_7
REMARK    4  A    between atoms: C_7  and  C_8
REMARK    5  A    between atoms: C_12  and  C_13
REMARK                            x       y       z     vdW  Elec       q    Type
REMARK                         _______ _______ _______ _____ _____    ______ ____
ROOT
ATOM      1  C   UNL     1       0.023  12.765  20.042  0.00  0.00    +0.000 C 
ATOM      2  N   UNL     1       1.173  12.406  20.948  0.00  0.00    +0.000 NA
ATOM      3  C   UNL     1       1.495  13.614  21.369  0.00  0.00    +0.000 C 
ATOM      4  N   UNL     1       0.891  14.735  21.925  0.00  0.00    +0.000 N 
ATOM      5  C   UNL     1       2.224  14.030  20.287  0.00  0.00    +0.000 A 
ATOM      6  C   UNL     1       3.521  14.528  20.409  0.00  0.00    +0.000 A 
ATOM      7  F   UNL     1       4.061  14.741  21.606  0.00  0.00    +0.000 F 
ATOM      8  C   UNL     1       4.165  14.737  19.238  0.00  0.00    +0.000 A 
ATOM      9  C   UNL     1       3.444  14.421  18.064  0.00  0.00    +0.000 A 
ATOM     10  C   UNL     1       2.042  13.864  18.040  0.00  0.00    +0.000 A 
ATOM     11  C   UNL     1       1.338  13.673  19.248  0.00  0.00    +0.000 A 
ATOM     12  H   UNL     1      -0.085  14.783  22.185  0.00  0.00    +0.000 HD
ATOM     13  H   UNL     1       1.359  15.641  21.856  0.00  0.00    +0.000 HD
ENDROOT
BRANCH   1  17
ATOM     14  C   UNL     1      -2.104  10.272  16.971  0.00  0.00    +0.000 A 
ATOM     15  C   UNL     1      -0.949   9.801  17.573  0.00  0.00    +0.000 A 
ATOM     16  C   UNL     1      -0.382  10.491  18.707  0.00  0.00    +0.000 A 
ATOM     17  C   UNL     1      -0.932  11.712  19.264  0.00  0.00    +0.000 A 
ATOM     18  C   UNL     1      -2.074  12.159  18.582  0.00  0.00    +0.000 A 
ATOM     19  C   UNL     1      -2.653  11.462  17.462  0.00  0.00    +0.000 A 
BRANCH  14  21
ATOM     20  C   UNL     1      -3.108  10.350  14.830  0.00  0.00    +0.000 C 
ATOM     21  O   UNL     1      -2.559   9.560  15.891  0.00  0.00    +0.000 OA
ENDBRANCH  14  21
ENDBRANCH   1  17
BRANCH   1  22
ATOM     22  C   UNL     1      -0.861  12.642  21.540  0.00  0.00    +0.000 A 
ATOM     23  C   UNL     1      -0.767  11.391  22.308  0.00  0.00    +0.000 A 
ATOM     24  C   UNL     1      -1.629  11.034  23.326  0.00  0.00    +0.000 A 
ATOM     25  C   UNL     1      -2.672  11.895  23.590  0.00  0.00    +0.000 A 
ATOM     26  C   UNL     1      -2.785  13.144  22.926  0.00  0.00    +0.000 A 
ATOM     27  C   UNL     1      -1.837  13.534  21.950  0.00  0.00    +0.000 A 
BRANCH  26  28
ATOM     28  C   UNL     1      -3.943  13.990  23.174  0.00  0.00    +0.000 A 
ATOM     29  C   UNL     1      -5.249  13.595  22.924  0.00  0.00    +0.000 A 
ATOM     30  N   UNL     1      -6.332  14.330  23.237  0.00  0.00    +0.000 NA
ATOM     31  C   UNL     1      -6.074  15.527  23.793  0.00  0.00    +0.000 A 
ATOM     32  N   UNL     1      -4.860  16.029  24.054  0.00  0.00    +0.000 NA
ATOM     33  C   UNL     1      -3.825  15.240  23.746  0.00  0.00    +0.000 A 
ENDBRANCH  26  28
ENDBRANCH   1  22
TORSDOF 4
ENDMDL
MODEL 6
REMARK VINA RESULT:      -7.5      3.088      6.967
REMARK  Name = 
REMARK  5 active torsions:
REMARK  status: ('A' for Active; 'I' for Inactive)
REMARK    1  A    between atoms: C_1  and  O_2
REMARK    2  A    between atoms: O_2  and  C_3
REMARK    3  A    between atoms: C_6  and  C_7
REMARK    4  A    between atoms: C_7  and  C_8
REMARK    5  A    between atoms: C_12  and  C_13
REMARK                            x       y       z     vdW  Elec       q    Type
REMARK                         _______ _______ _______ _____ _____    ______ ____
ROOT
ATOM      1  C   UNL     1       0.270  10.975  18.503  0.00  0.00    +0.000 C 
ATOM      2  N   UNL     1      -0.452  11.871  19.478  0.00  0.00    +0.000 NA
ATOM      3  C   UNL     1      -0.627  12.926  18.704  0.00  0.00    +0.000 C 
ATOM      4  N   UNL     1      -1.114  13.242  17.442  0.00  0.00    +0.000 N 
ATOM      5  C   UNL     1       0.620  13.482  18.818  0.00  0.00    +0.000 A 
ATOM      6  C   UNL     1       0.811  14.810  19.202  0.00  0.00    +0.000 A 
ATOM      7  F   UNL     1      -0.222  15.634  19.349  0.00  0.00    +0.000 F 
ATOM      8  C   UNL     1       2.098  15.158  19.430  0.00  0.00    +0.000 A 
ATOM      9  C   UNL     1       3.062  14.139  19.255  0.00  0.00    +0.000 A 
ATOM     10  C   UNL     1       2.746  12.717  18.856  0.00  0.00    +0.000 A 
ATOM     11  C   UNL     1       1.415  12.342  18.576  0.00  0.00    +0.000 A 
ATOM     12  H   UNL     1      -1.538  12.573  16.814  0.00  0.00    +0.000 HD
ATOM     13  H   UNL     1      -0.829  14.119  17.001  0.00  0.00    +0.000 HD
ENDROOT
BRANCH   1  17
ATOM     14  C   UNL     1       2.452   7.184  19.521  0.00  0.00    +0.000 A 
ATOM     15  C   UNL     1       1.722   7.850  20.491  0.00  0.00    +0.000 A 
ATOM     16  C   UNL     1       0.848   8.940  20.129  0.00  0.00    +0.000 A 
ATOM     17  C   UNL     1       0.698   9.436  18.774  0.00  0.00    +0.000 A 
ATOM     18  C   UNL     1       1.497   8.748  17.848  0.00  0.00    +0.000 A 
ATOM     19  C   UNL     1       2.355   7.647  18.203  0.00  0.00    +0.000 A 
BRANCH  14  21
ATOM     20  C   UNL     1       3.052   4.903  19.335  0.00  0.00    +0.000 C 
ATOM     21  O   UNL     1       3.267   6.173  19.962  0.00  0.00    +0.000 OA
ENDBRANCH  14  21
ENDBRANCH   1  17
BRANCH   1  22
ATOM     22  C   UNL     1      -1.366  10.568  18.060  0.00  0.00    +0.000 A 
ATOM     23  C   UNL     1      -1.612  10.015  16.719  0.00  0.00    +0.000 A 
ATOM     24  C   UNL     1      -2.855   9.937  16.123  0.00  0.00    +0.000 A 
ATOM     25  C   UNL     1      -3.917  10.465  16.825  0.00  0.00    +0.000 A 
ATOM     26  C   UNL     1      -3.756  10.959  18.145  0.00  0.00    +0.000 A 
ATOM     27  C   UNL     1      -2.489  10.946  18.776  0.00  0.00    +0.000 A 
BRANCH  26  28
ATOM     28  C   UNL     1      -4.884  11.581  18.824  0.00  0.00    +0.000 A 
ATOM     29  C   UNL     1      -4.751  12.593  19.763  0.00  0.00    +0.000 A 
ATOM     30  N   UNL     1      -5.787  13.241  20.326  0.00  0.00    +0.000 NA
ATOM     31  C   UNL     1      -7.006  12.818  19.944  0.00  0.00    +0.000 A 
ATOM     32  N   UNL     1      -7.261  11.834  19.072  0.00  0.00    +0.000 NA
ATOM     33  C   UNL     1      -6.189  11.248  18.527  0.00  0.00    +0.000 A 
ENDBRANCH  26  28
ENDBRANCH   1  22
TORSDOF 4
ENDMDL
MODEL 7
REMARK VINA RESULT:      -7.4      1.252      1.860
REMARK  Name = 
REMARK  5 active torsions:
REMARK  status: ('A' for Active; 'I' for Inactive)
REMARK    1  A    between atoms: C_1  and  O_2
REMARK    2  A    between atoms: O_2  and  C_3
REMARK    3  A    between atoms: C_6  and  C_7
REMARK    4  A    between atoms: C_7  and  C_8
REMARK    5  A    between atoms: C_12  and  C_13
REMARK                            x       y       z     vdW  Elec       q    Type
REMARK                         _______ _______ _______ _____ _____    ______ ____
ROOT
ATOM      1  C   UNL     1      -0.465  11.566  19.078  0.00  0.00    +0.000 C 
ATOM      2  N   UNL     1       0.970  11.580  18.614  0.00  0.00    +0.000 NA
ATOM      3  C   UNL     1       1.535  12.084  19.695  0.00  0.00    +0.000 C 
ATOM      4  N   UNL     1       1.567  11.872  21.068  0.00  0.00    +0.000 N 
ATOM      5  C   UNL     1       1.252  13.407  19.486  0.00  0.00    +0.000 A 
ATOM      6  C   UNL     1       2.240  14.392  19.500  0.00  0.00    +0.000 A 
ATOM      7  F   UNL     1       3.490  14.100  19.848  0.00  0.00    +0.000 F 
ATOM      8  C   UNL     1       1.828  15.620  19.112  0.00  0.00    +0.000 A 
ATOM      9  C   UNL     1       0.467  15.735  18.745  0.00  0.00    +0.000 A 
ATOM     10  C   UNL     1      -0.522  14.595  18.744  0.00  0.00    +0.000 A 
ATOM     11  C   UNL     1      -0.122  13.314  19.181  0.00  0.00    +0.000 A 
ATOM     12  H   UNL     1       1.094  11.110  21.534  0.00  0.00    +0.000 HD
ATOM     13  H   UNL     1       1.863  12.631  21.684  0.00  0.00    +0.000 HD
ENDROOT
BRANCH   1  17
ATOM     14  C   UNL     1      -3.616  10.615  16.022  0.00  0.00    +0.000 A 
ATOM     15  C   UNL     1      -2.419   9.920  16.029  0.00  0.00    +0.000 A 
ATOM     16  C   UNL     1      -1.495  10.064  17.128  0.00  0.00    +0.000 A 
ATOM     17  C   UNL     1      -1.718  10.948  18.256  0.00  0.00    +0.000 A 
ATOM     18  C   UNL     1      -2.926  11.656  18.167  0.00  0.00    +0.000 A 
ATOM     19  C   UNL     1      -3.859  11.498  17.081  0.00  0.00    +0.000 A 
BRANCH  14  21
ATOM     20  C   UNL     1      -3.747   9.989  13.744  0.00  0.00    +0.000 C 
ATOM     21  O   UNL     1      -4.422  10.427  14.929  0.00  0.00    +0.000 OA
ENDBRANCH  14  21
ENDBRANCH   1  17
BRANCH   1  22
ATOM     22  C   UNL     1       0.027  10.023  19.724  0.00  0.00    +0.000 A 
ATOM     23  C   UNL     1      -0.224   9.746  21.147  0.00  0.00    +0.000 A 
ATOM     24  C   UNL     1       0.370   8.724  21.859  0.00  0.00    +0.000 A 
ATOM     25  C   UNL     1       1.297   7.955  21.190  0.00  0.00    +0.000 A 
ATOM     26  C   UNL     1       1.540   8.132  19.803  0.00  0.00    +0.000 A 
ATOM     27  C   UNL     1       0.853   9.126  19.067  0.00  0.00    +0.000 A 
BRANCH  26  28
ATOM     28  C   UNL     1       2.583   7.355  19.150  0.00  0.00    +0.000 A 
ATOM     29  C   UNL     1       3.043   6.135  19.624  0.00  0.00    +0.000 A 
ATOM     30  N   UNL     1       3.937   5.363  18.979  0.00  0.00    +0.000 NA
ATOM     31  C   UNL     1       4.407   5.869  17.825  0.00  0.00    +0.000 A 
ATOM     32  N   UNL     1       4.064   7.044  17.282  0.00  0.00    +0.000 NA
ATOM     33  C   UNL     1       3.150   7.752  17.956  0.00  0.00    +0.000 A 
ENDBRANCH  26  28
ENDBRANCH   1  22
TORSDOF 4
ENDMDL
MODEL 8
REMARK VINA RESULT:      -7.3      7.088     10.587
REMARK  Name = 
REMARK  5 active torsions:
REMARK  status: ('A' for Active; 'I' for Inactive)
REMARK    1  A    between atoms: C_1  and  O_2
REMARK    2  A    between atoms: O_2  and  C_3
REMARK    3  A    between atoms: C_6  and  C_7
REMARK    4  A    between atoms: C_7  and  C_8
REMARK    5  A    between atoms: C_12  and  C_13
REMARK                            x       y       z     vdW  Elec       q    Type
REMARK                         _______ _______ _______ _____ _____    ______ ____
ROOT
ATOM      1  C   UNL     1       8.325  14.085  20.194  0.00  0.00    +0.000 C 
ATOM      2  N   UNL     1       9.181  14.912  19.268  0.00  0.00    +0.000 NA
ATOM      3  C   UNL     1       9.035  14.206  18.162  0.00  0.00    +0.000 C 
ATOM      4  N   UNL     1       8.023  13.662  17.382  0.00  0.00    +0.000 N 
ATOM      5  C   UNL     1       9.939  13.211  18.423  0.00  0.00    +0.000 A 
ATOM      6  C   UNL     1      10.960  12.879  17.533  0.00  0.00    +0.000 A 
ATOM      7  F   UNL     1      11.020  13.434  16.325  0.00  0.00    +0.000 F 
ATOM      8  C   UNL     1      11.866  11.994  18.008  0.00  0.00    +0.000 A 
ATOM      9  C   UNL     1      11.659  11.537  19.329  0.00  0.00    +0.000 A 
ATOM     10  C   UNL     1      10.526  11.977  20.224  0.00  0.00    +0.000 A 
ATOM     11  C   UNL     1       9.549  12.870  19.736  0.00  0.00    +0.000 A 
ATOM     12  H   UNL     1       7.037  13.790  17.562  0.00  0.00    +0.000 HD
ATOM     13  H   UNL     1       8.243  12.896  16.741  0.00  0.00    +0.000 HD
ENDROOT
BRANCH   1  17
ATOM     14  C   UNL     1       8.065  14.276  24.674  0.00  0.00    +0.000 A 
ATOM     15  C   UNL     1       8.970  15.073  23.993  0.00  0.00    +0.000 A 
ATOM     16  C   UNL     1       8.915  15.180  22.555  0.00  0.00    +0.000 A 
ATOM     17  C   UNL     1       7.966  14.456  21.731  0.00  0.00    +0.000 A 
ATOM     18  C   UNL     1       7.107  13.634  22.476  0.00  0.00    +0.000 A 
ATOM     19  C   UNL     1       7.147  13.541  23.913  0.00  0.00    +0.000 A 
BRANCH  14  21
ATOM     20  C   UNL     1       9.413  14.803  26.546  0.00  0.00    +0.000 C 
ATOM     21  O   UNL     1       8.205  14.225  26.037  0.00  0.00    +0.000 OA
ENDBRANCH  14  21
ENDBRANCH   1  17
BRANCH   1  22
ATOM     22  C   UNL     1       7.074  15.103  19.531  0.00  0.00    +0.000 A 
ATOM     23  C   UNL     1       7.239  16.562  19.617  0.00  0.00    +0.000 A 
ATOM     24  C   UNL     1       6.221  17.475  19.424  0.00  0.00    +0.000 A 
ATOM     25  C   UNL     1       4.963  16.964  19.187  0.00  0.00    +0.000 A 
ATOM     26  C   UNL     1       4.749  15.570  19.035  0.00  0.00    +0.000 A 
ATOM     27  C   UNL     1       5.822  14.655  19.145  0.00  0.00    +0.000 A 
BRANCH  26  28
ATOM     28  C   UNL     1       3.394  15.064  18.866  0.00  0.00    +0.000 A 
ATOM     29  C   UNL     1       3.104  13.787  18.410  0.00  0.00    +0.000 A 
ATOM     30  N   UNL     1       1.861  13.274  18.340  0.00  0.00    +0.000 NA
ATOM     31  C   UNL     1       0.874  14.107  18.716  0.00  0.00    +0.000 A 
ATOM     32  N   UNL     1       1.027  15.367  19.144  0.00  0.00    +0.000 NA
ATOM     33  C   UNL     1       2.287  15.808  19.218  0.00  0.00    +0.000 A 
ENDBRANCH  26  28
ENDBRANCH   1  22
TORSDOF 4
ENDMDL
MODEL 9
REMARK VINA RESULT:      -7.2      4.125      6.633
REMARK  Name = 
REMARK  5 active torsions:
REMARK  status: ('A' for Active; 'I' for Inactive)
REMARK    1  A    between atoms: C_1  and  O_2
REMARK    2  A    between atoms: O_2  and  C_3
REMARK    3  A    between atoms: C_6  and  C_7
REMARK    4  A    between atoms: C_7  and  C_8
REMARK    5  A    between atoms: C_12  and  C_13
REMARK                            x       y       z     vdW  Elec       q    Type
REMARK                         _______ _______ _______ _____ _____    ______ ____
ROOT
ATOM      1  C   UNL     1      -1.050  14.196  21.428  0.00  0.00    +0.000 C 
ATOM      2  N   UNL     1      -0.948  13.404  22.708  0.00  0.00    +0.000 NA
ATOM      3  C   UNL     1      -2.233  13.276  22.979  0.00  0.00    +0.000 C 
ATOM      4  N   UNL     1      -3.408  12.871  22.358  0.00  0.00    +0.000 N 
ATOM      5  C   UNL     1      -2.459  14.508  23.532  0.00  0.00    +0.000 A 
ATOM      6  C   UNL     1      -3.041  14.666  24.789  0.00  0.00    +0.000 A 
ATOM      7  F   UNL     1      -3.524  13.619  25.453  0.00  0.00    +0.000 F 
ATOM      8  C   UNL     1      -3.042  15.932  25.264  0.00  0.00    +0.000 A 
ATOM      9  C   UNL     1      -2.454  16.911  24.431  0.00  0.00    +0.000 A 
ATOM     10  C   UNL     1      -1.827  16.632  23.087  0.00  0.00    +0.000 A 
ATOM     11  C   UNL     1      -1.848  15.325  22.557  0.00  0.00    +0.000 A 
ATOM     12  H   UNL     1      -3.455  12.495  21.422  0.00  0.00    +0.000 HD
ATOM     13  H   UNL     1      -4.306  13.180  22.739  0.00  0.00    +0.000 HD
ENDROOT
BRANCH   1  17
ATOM     14  C   UNL     1       2.259  16.359  19.298  0.00  0.00    +0.000 A 
ATOM     15  C   UNL     1       2.523  15.649  20.457  0.00  0.00    +0.000 A 
ATOM     16  C   UNL     1       1.522  14.779  21.026  0.00  0.00    +0.000 A 
ATOM     17  C   UNL     1       0.191  14.614  20.474  0.00  0.00    +0.000 A 
ATOM     18  C   UNL     1      -0.027  15.394  19.328  0.00  0.00    +0.000 A 
ATOM     19  C   UNL     1       0.977  16.247  18.746  0.00  0.00    +0.000 A 
BRANCH  14  21
ATOM     20  C   UNL     1       4.581  16.812  19.276  0.00  0.00    +0.000 C 
ATOM     21  O   UNL     1       3.265  17.171  18.841  0.00  0.00    +0.000 OA
ENDBRANCH  14  21
ENDBRANCH   1  17
BRANCH   1  22
ATOM     22  C   UNL     1      -1.188  12.595  20.750  0.00  0.00    +0.000 A 
ATOM     23  C   UNL     1      -0.201  11.579  21.147  0.00  0.00    +0.000 A 
ATOM     24  C   UNL     1       0.005  10.389  20.478  0.00  0.00    +0.000 A 
ATOM     25  C   UNL     1      -0.735  10.180  19.335  0.00  0.00    +0.000 A 
ATOM     26  C   UNL     1      -1.743  11.093  18.931  0.00  0.00    +0.000 A 
ATOM     27  C   UNL     1      -2.004  12.265  19.681  0.00  0.00    +0.000 A 
BRANCH  26  28
ATOM     28  C   UNL     1      -2.447  10.880  17.675  0.00  0.00    +0.000 A 
ATOM     29  C   UNL     1      -2.013  10.005  16.691  0.00  0.00    +0.000 A 
ATOM     30  N   UNL     1      -2.703   9.727  15.569  0.00  0.00    +0.000 NA
ATOM     31  C   UNL     1      -3.863  10.393  15.428  0.00  0.00    +0.000 A 
ATOM     32  N   UNL     1      -4.371  11.282  16.292  0.00  0.00    +0.000 NA
ATOM     33  C   UNL     1      -3.652  11.493  17.400  0.00  0.00    +0.000 A 
ENDBRANCH  26  28
ENDBRANCH   1  22
TORSDOF 4
ENDMDL
