MODEL 1
REMARK VINA RESULT:      -7.2      0.000      0.000
REMARK  Name = 
REMARK  4 active torsions:
REMARK  status: ('A' for Active; 'I' for Inactive)
REMARK    1  A    between atoms: C_1  and  C_2
REMARK    2  A    between atoms: C_7  and  C_9
REMARK    3  A    between atoms: N_12  and  C_13
REMARK    4  A    between atoms: C_18  and  N_19
REMARK                            x       y       z     vdW  Elec       q    Type
REMARK                         _______ _______ _______ _____ _____    ______ ____
ROOT
ATOM      1  C   UNL     1       1.868   9.109  19.064  0.00  0.00    +0.000 C 
ATOM      2  C   UNL     1       2.779   8.513  17.990  0.00  0.00    +0.000 C 
ATOM      3  C   UNL     1       2.302   7.149  17.516  0.00  0.00    +0.000 C 
ATOM      4  N   UNL     1       2.094   6.196  18.615  0.00  0.00    +0.000 N 
ATOM      5  C   UNL     1       1.801   6.655  19.980  0.00  0.00    +0.000 C 
ATOM      6  C   UNL     1       1.883   8.162  20.255  0.00  0.00    +0.000 C 
ENDROOT
BRANCH   1  13
ATOM      7  C   UNL     1       1.229  11.933  20.714  0.00  0.00    +0.000 C 
ATOM      8  C   UNL     1      -0.107  11.296  20.346  0.00  0.00    +0.000 C 
ATOM      9  C   UNL     1      -1.186  12.397  20.281  0.00  0.00    +0.000 C 
ATOM     10  C   UNL     1      -2.233  11.841  19.339  0.00  0.00    +0.000 C 
ATOM     11  C   UNL     1      -1.407  11.059  18.334  0.00  0.00    +0.000 C 
ATOM     12  N   UNL     1      -0.202  10.621  19.042  0.00  0.00    +0.000 N 
ATOM     13  C   UNL     1       0.516   9.573  18.485  0.00  0.00    +0.000 C 
ATOM     14  O   UNL     1       0.122   9.076  17.422  0.00  0.00    +0.000 OA
ENDBRANCH   1  13
BRANCH   4  15
ATOM     15  C   UNL     1       2.440   4.849  18.414  0.00  0.00    +0.000 A 
ATOM     16  C   UNL     1       1.420   3.870  18.369  0.00  0.00    +0.000 A 
ATOM     17  N   UNL     1       1.548   2.545  18.091  0.00  0.00    +0.000 NA
ATOM     18  C   UNL     1       2.779   2.120  17.794  0.00  0.00    +0.000 A 
ATOM     19  C   UNL     1       3.874   2.958  17.785  0.00  0.00    +0.000 A 
ATOM     20  C   UNL     1       3.724   4.324  18.134  0.00  0.00    +0.000 A 
BRANCH  20  21
ATOM     21  N   UNL     1       4.958   5.035  18.261  0.00  0.00    +0.000 N 
ATOM     22  C   UNL     1       5.462   6.066  17.500  0.00  0.00    +0.000 A 
ATOM     23  C   UNL     1       6.680   6.405  18.037  0.00  0.00    +0.000 A 
ATOM     24 CL   UNL     1       7.785   7.563  17.495  0.00  0.00    +0.000 Cl
ATOM     25  C   UNL     1       6.816   5.599  19.167  0.00  0.00    +0.000 A 
ATOM     26  N   UNL     1       5.778   4.775  19.329  0.00  0.00    +0.000 NA
ENDBRANCH  20  21
ENDBRANCH   4  15
TORSDOF 3
ENDMDL
MODEL 2
REMARK VINA RESULT:      -6.6      5.715     11.253
REMARK  Name = 
REMARK  4 active torsions:
REMARK  status: ('A' for Active; 'I' for Inactive)
REMARK    1  A    between atoms: C_1  and  C_2
REMARK    2  A    between atoms: C_7  and  C_9
REMARK    3  A    between atoms: N_12  and  C_13
REMARK    4  A    between atoms: C_18  and  N_19
REMARK                            x       y       z     vdW  Elec       q    Type
REMARK                         _______ _______ _______ _____ _____    ______ ____
ROOT
ATOM      1  C   UNL     1      -1.036  12.508  22.645  0.00  0.00    +0.000 C 
ATOM      2  C   UNL     1      -2.286  11.929  23.308  0.00  0.00    +0.000 C 
ATOM      3  C   UNL     1      -3.570  12.452  22.682  0.00  0.00    +0.000 C 
ATOM      4  N   UNL     1      -3.632  13.920  22.635  0.00  0.00    +0.000 N 
ATOM      5  C   UNL     1      -2.412  14.738  22.627  0.00  0.00    +0.000 C 
ATOM      6  C   UNL     1      -1.073  14.018  22.836  0.00  0.00    +0.000 C 
ENDROOT
BRANCH   1  13
ATOM      7  C   UNL     1       0.120   9.437  23.227  0.00  0.00    +0.000 C 
ATOM      8  C   UNL     1       0.713   9.916  21.906  0.00  0.00    +0.000 C 
ATOM      9  C   UNL     1       1.078   8.687  21.046  0.00  0.00    +0.000 C 
ATOM     10  C   UNL     1       1.033   9.201  19.622  0.00  0.00    +0.000 C 
ATOM     11  C   UNL     1      -0.097  10.213  19.659  0.00  0.00    +0.000 C 
ATOM     12  N   UNL     1      -0.144  10.729  21.029  0.00  0.00    +0.000 N 
ATOM     13  C   UNL     1      -0.806  11.930  21.234  0.00  0.00    +0.000 C 
ATOM     14  O   UNL     1      -1.333  12.495  20.267  0.00  0.00    +0.000 OA
ENDBRANCH   1  13
BRANCH   4  15
ATOM     15  C   UNL     1      -4.867  14.549  22.869  0.00  0.00    +0.000 A 
ATOM     16  C   UNL     1      -4.942  15.598  23.816  0.00  0.00    +0.000 A 
ATOM     17  N   UNL     1      -6.015  16.384  24.105  0.00  0.00    +0.000 NA
ATOM     18  C   UNL     1      -7.121  16.161  23.389  0.00  0.00    +0.000 A 
ATOM     19  C   UNL     1      -7.197  15.180  22.424  0.00  0.00    +0.000 A 
ATOM     20  C   UNL     1      -6.084  14.337  22.180  0.00  0.00    +0.000 A 
BRANCH  20  21
ATOM     21  N   UNL     1      -6.355  13.253  21.286  0.00  0.00    +0.000 N 
ATOM     22  C   UNL     1      -6.015  13.099  19.962  0.00  0.00    +0.000 A 
ATOM     23  C   UNL     1      -6.501  11.878  19.561  0.00  0.00    +0.000 A 
ATOM     24 CL   UNL     1      -6.438  11.171  18.027  0.00  0.00    +0.000 Cl
ATOM     25  C   UNL     1      -7.051  11.311  20.710  0.00  0.00    +0.000 A 
ATOM     26  N   UNL     1      -6.958  12.119  21.768  0.00  0.00    +0.000 NA
ENDBRANCH  20  21
ENDBRANCH   4  15
TORSDOF 3
ENDMDL
MODEL 3
REMARK VINA RESULT:      -6.5      1.085      1.128
REMARK  Name = 
REMARK  4 active torsions:
REMARK  status: ('A' for Active; 'I' for Inactive)
REMARK    1  A    between atoms: C_1  and  C_2
REMARK    2  A    between atoms: C_7  and  C_9
REMARK    3  A    between atoms: N_12  and  C_13
REMARK    4  A    between atoms: C_18  and  N_19
REMARK                            x       y       z     vdW  Elec       q    Type
REMARK                         _______ _______ _______ _____ _____    ______ ____
ROOT
ATOM      1  C   UNL     1       1.884   9.072  19.124  0.00  0.00    +0.000 C 
ATOM      2  C   UNL     1       2.731   8.164  18.233  0.00  0.00    +0.000 C 
ATOM      3  C   UNL     1       2.120   6.781  18.066  0.00  0.00    +0.000 C 
ATOM      4  N   UNL     1       1.816   6.126  19.346  0.00  0.00    +0.000 N 
ATOM      5  C   UNL     1       1.570   6.907  20.566  0.00  0.00    +0.000 C 
ATOM      6  C   UNL     1       1.803   8.422  20.498  0.00  0.00    +0.000 C 
ENDROOT
BRANCH   1  13
ATOM      7  C   UNL     1       1.067  11.887  20.711  0.00  0.00    +0.000 C 
ATOM      8  C   UNL     1      -0.223  11.237  20.221  0.00  0.00    +0.000 C 
ATOM      9  C   UNL     1      -1.303  12.327  20.059  0.00  0.00    +0.000 C 
ATOM     10  C   UNL     1      -2.254  11.762  19.025  0.00  0.00    +0.000 C 
ATOM     11  C   UNL     1      -1.331  10.991  18.099  0.00  0.00    +0.000 C 
ATOM     12  N   UNL     1      -0.192  10.563  18.914  0.00  0.00    +0.000 N 
ATOM     13  C   UNL     1       0.586   9.524  18.424  0.00  0.00    +0.000 C 
ATOM     14  O   UNL     1       0.295   9.025  17.329  0.00  0.00    +0.000 OA
ENDBRANCH   1  13
BRANCH   4  15
ATOM     15  C   UNL     1       2.025   4.741  19.461  0.00  0.00    +0.000 A 
ATOM     16  C   UNL     1       1.023   3.935  20.049  0.00  0.00    +0.000 A 
ATOM     17  N   UNL     1       1.002   2.579  20.159  0.00  0.00    +0.000 NA
ATOM     18  C   UNL     1       2.036   1.926  19.621  0.00  0.00    +0.000 A 
ATOM     19  C   UNL     1       3.084   2.574  19.004  0.00  0.00    +0.000 A 
ATOM     20  C   UNL     1       3.112   3.991  18.952  0.00  0.00    +0.000 A 
BRANCH  20  21
ATOM     21  N   UNL     1       4.334   4.536  18.448  0.00  0.00    +0.000 N 
ATOM     22  C   UNL     1       4.828   4.551  17.163  0.00  0.00    +0.000 A 
ATOM     23  C   UNL     1       6.037   5.201  17.204  0.00  0.00    +0.000 A 
ATOM     24 CL   UNL     1       7.129   5.475  15.944  0.00  0.00    +0.000 Cl
ATOM     25  C   UNL     1       6.177   5.626  18.525  0.00  0.00    +0.000 A 
ATOM     26  N   UNL     1       5.150   5.248  19.290  0.00  0.00    +0.000 NA
ENDBRANCH  20  21
ENDBRANCH   4  15
TORSDOF 3
ENDMDL
MODEL 4
REMARK VINA RESULT:      -6.5      2.361      3.480
REMARK  Name = 
REMARK  4 active torsions:
REMARK  status: ('A' for Active; 'I' for Inactive)
REMARK    1  A    between atoms: C_1  and  C_2
REMARK    2  A    between atoms: C_7  and  C_9
REMARK    3  A    between atoms: N_12  and  C_13
REMARK    4  A    between atoms: C_18  and  N_19
REMARK                            x       y       z     vdW  Elec       q    Type
REMARK                         _______ _______ _______ _____ _____    ______ ____
ROOT
ATOM      1  C   UNL     1       1.151   9.841  19.223  0.00  0.00    +0.000 C 
ATOM      2  C   UNL     1       2.357  10.090  18.317  0.00  0.00    +0.000 C 
ATOM      3  C   UNL     1       2.636   8.921  17.387  0.00  0.00    +0.000 C 
ATOM      4  N   UNL     1       2.768   7.639  18.094  0.00  0.00    +0.000 N 
ATOM      5  C   UNL     1       2.132   7.417  19.399  0.00  0.00    +0.000 C 
ATOM      6  C   UNL     1       1.464   8.621  20.078  0.00  0.00    +0.000 C 
ENDROOT
BRANCH   1  13
ATOM      7  C   UNL     1      -0.329  12.591  20.386  0.00  0.00    +0.000 C 
ATOM      8  C   UNL     1      -1.423  11.613  19.972  0.00  0.00    +0.000 C 
ATOM      9  C   UNL     1      -2.705  12.406  19.641  0.00  0.00    +0.000 C 
ATOM     10  C   UNL     1      -3.461  11.512  18.680  0.00  0.00    +0.000 C 
ATOM     11  C   UNL     1      -2.351  10.847  17.887  0.00  0.00    +0.000 C 
ATOM     12  N   UNL     1      -1.186  10.794  18.772  0.00  0.00    +0.000 N 
ATOM     13  C   UNL     1      -0.180   9.897  18.446  0.00  0.00    +0.000 C 
ATOM     14  O   UNL     1      -0.304   9.205  17.427  0.00  0.00    +0.000 OA
ENDBRANCH   1  13
BRANCH   4  15
ATOM     15  C   UNL     1       3.727   6.716  17.643  0.00  0.00    +0.000 A 
ATOM     16  C   UNL     1       4.758   7.153  16.779  0.00  0.00    +0.000 A 
ATOM     17  N   UNL     1       5.820   6.437  16.320  0.00  0.00    +0.000 NA
ATOM     18  C   UNL     1       5.920   5.180  16.761  0.00  0.00    +0.000 A 
ATOM     19  C   UNL     1       4.997   4.616  17.615  0.00  0.00    +0.000 A 
ATOM     20  C   UNL     1       3.868   5.363  18.035  0.00  0.00    +0.000 A 
BRANCH  20  21
ATOM     21  N   UNL     1       2.903   4.606  18.769  0.00  0.00    +0.000 N 
ATOM     22  C   UNL     1       2.931   4.175  20.076  0.00  0.00    +0.000 A 
ATOM     23  C   UNL     1       1.760   3.493  20.301  0.00  0.00    +0.000 A 
ATOM     24 CL   UNL     1       1.259   2.691  21.702  0.00  0.00    +0.000 Cl
ATOM     25  C   UNL     1       1.033   3.619  19.117  0.00  0.00    +0.000 A 
ATOM     26  N   UNL     1       1.700   4.303  18.184  0.00  0.00    +0.000 NA
ENDBRANCH  20  21
ENDBRANCH   4  15
TORSDOF 3
ENDMDL
MODEL 5
REMARK VINA RESULT:      -6.3      2.940      7.801
REMARK  Name = 
REMARK  4 active torsions:
REMARK  status: ('A' for Active; 'I' for Inactive)
REMARK    1  A    between atoms: C_1  and  C_2
REMARK    2  A    between atoms: C_7  and  C_9
REMARK    3  A    between atoms: N_12  and  C_13
REMARK    4  A    between atoms: C_18  and  N_19
REMARK                            x       y       z     vdW  Elec       q    Type
REMARK                         _______ _______ _______ _____ _____    ______ ____
ROOT
ATOM      1  C   UNL     1       2.608   6.817  17.959  0.00  0.00    +0.000 C 
ATOM      2  C   UNL     1       1.615   7.937  17.643  0.00  0.00    +0.000 C 
ATOM      3  C   UNL     1       1.619   9.031  18.699  0.00  0.00    +0.000 C 
ATOM      4  N   UNL     1       1.415   8.518  20.062  0.00  0.00    +0.000 N 
ATOM      5  C   UNL     1       1.762   7.136  20.419  0.00  0.00    +0.000 C 
ATOM      6  C   UNL     1       2.191   6.196  19.285  0.00  0.00    +0.000 C 
ENDROOT
BRANCH   1  13
ATOM      7  C   UNL     1       4.196   4.000  17.153  0.00  0.00    +0.000 C 
ATOM      8  C   UNL     1       5.192   4.910  17.865  0.00  0.00    +0.000 C 
ATOM      9  C   UNL     1       6.621   4.531  17.422  0.00  0.00    +0.000 C 
ATOM     10  C   UNL     1       7.425   5.797  17.629  0.00  0.00    +0.000 C 
ATOM     11  C   UNL     1       6.430   6.892  17.292  0.00  0.00    +0.000 C 
ATOM     12  N   UNL     1       5.104   6.355  17.601  0.00  0.00    +0.000 N 
ATOM     13  C   UNL     1       4.070   7.265  17.761  0.00  0.00    +0.000 C 
ATOM     14  O   UNL     1       4.309   8.471  17.621  0.00  0.00    +0.000 OA
ENDBRANCH   1  13
BRANCH   4  15
ATOM     15  C   UNL     1       0.637   9.272  20.956  0.00  0.00    +0.000 A 
ATOM     16  C   UNL     1       0.867   9.153  22.347  0.00  0.00    +0.000 A 
ATOM     17  N   UNL     1       0.289   9.865  23.352  0.00  0.00    +0.000 NA
ATOM     18  C   UNL     1      -0.579  10.811  22.982  0.00  0.00    +0.000 A 
ATOM     19  C   UNL     1      -0.898  11.052  21.663  0.00  0.00    +0.000 A 
ATOM     20  C   UNL     1      -0.326  10.260  20.637  0.00  0.00    +0.000 A 
BRANCH  20  21
ATOM     21  N   UNL     1      -0.876  10.494  19.338  0.00  0.00    +0.000 N 
ATOM     22  C   UNL     1      -1.639   9.668  18.544  0.00  0.00    +0.000 A 
ATOM     23  C   UNL     1      -1.922  10.365  17.394  0.00  0.00    +0.000 A 
ATOM     24 CL   UNL     1      -2.774   9.846  16.030  0.00  0.00    +0.000 Cl
ATOM     25  C   UNL     1      -1.372  11.631  17.591  0.00  0.00    +0.000 A 
ATOM     26  N   UNL     1      -0.750  11.735  18.768  0.00  0.00    +0.000 NA
ENDBRANCH  20  21
ENDBRANCH   4  15
TORSDOF 3
ENDMDL
MODEL 6
REMARK VINA RESULT:      -6.3      4.835     10.014
REMARK  Name = 
REMARK  4 active torsions:
REMARK  status: ('A' for Active; 'I' for Inactive)
REMARK    1  A    between atoms: C_1  and  C_2
REMARK    2  A    between atoms: C_7  and  C_9
REMARK    3  A    between atoms: N_12  and  C_13
REMARK    4  A    between atoms: C_18  and  N_19
REMARK                            x       y       z     vdW  Elec       q    Type
REMARK                         _______ _______ _______ _____ _____    ______ ____
ROOT
ATOM      1  C   UNL     1      -0.724  11.191  18.714  0.00  0.00    +0.000 C 
ATOM      2  C   UNL     1      -1.237  12.596  19.034  0.00  0.00    +0.000 C 
ATOM      3  C   UNL     1      -2.621  12.578  19.665  0.00  0.00    +0.000 C 
ATOM      4  N   UNL     1      -3.606  11.827  18.874  0.00  0.00    +0.000 N 
ATOM      5  C   UNL     1      -3.194  10.760  17.953  0.00  0.00    +0.000 C 
ATOM      6  C   UNL     1      -1.690  10.566  17.718  0.00  0.00    +0.000 C 
ENDROOT
BRANCH   1  13
ATOM      7  C   UNL     1       1.938   9.417  17.781  0.00  0.00    +0.000 C 
ATOM      8  C   UNL     1       1.215   8.634  18.872  0.00  0.00    +0.000 C 
ATOM      9  C   UNL     1       2.226   7.700  19.571  0.00  0.00    +0.000 C 
ATOM     10  C   UNL     1       1.640   7.480  20.950  0.00  0.00    +0.000 C 
ATOM     11  C   UNL     1       0.988   8.816  21.261  0.00  0.00    +0.000 C 
ATOM     12  N   UNL     1       0.610   9.400  19.973  0.00  0.00    +0.000 N 
ATOM     13  C   UNL     1      -0.340  10.410  19.987  0.00  0.00    +0.000 C 
ATOM     14  O   UNL     1      -0.807  10.777  21.073  0.00  0.00    +0.000 OA
ENDBRANCH   1  13
BRANCH   4  15
ATOM     15  C   UNL     1      -4.923  12.312  18.801  0.00  0.00    +0.000 A 
ATOM     16  C   UNL     1      -5.640  12.191  17.588  0.00  0.00    +0.000 A 
ATOM     17  N   UNL     1      -6.942  12.509  17.355  0.00  0.00    +0.000 NA
ATOM     18  C   UNL     1      -7.637  12.962  18.402  0.00  0.00    +0.000 A 
ATOM     19  C   UNL     1      -7.078  13.124  19.651  0.00  0.00    +0.000 A 
ATOM     20  C   UNL     1      -5.704  12.840  19.857  0.00  0.00    +0.000 A 
BRANCH  20  21
ATOM     21  N   UNL     1      -5.213  13.220  21.144  0.00  0.00    +0.000 N 
ATOM     22  C   UNL     1      -4.873  14.465  21.624  0.00  0.00    +0.000 A 
ATOM     23  C   UNL     1      -4.463  14.297  22.925  0.00  0.00    +0.000 A 
ATOM     24 CL   UNL     1      -3.877  15.459  24.003  0.00  0.00    +0.000 Cl
ATOM     25  C   UNL     1      -4.658  12.943  23.195  0.00  0.00    +0.000 A 
ATOM     26  N   UNL     1      -5.126  12.278  22.137  0.00  0.00    +0.000 NA
ENDBRANCH  20  21
ENDBRANCH   4  15
TORSDOF 3
ENDMDL
MODEL 7
REMARK VINA RESULT:      -6.3      8.253     10.061
REMARK  Name = 
REMARK  4 active torsions:
REMARK  status: ('A' for Active; 'I' for Inactive)
REMARK    1  A    between atoms: C_1  and  C_2
REMARK    2  A    between atoms: C_7  and  C_9
REMARK    3  A    between atoms: N_12  and  C_13
REMARK    4  A    between atoms: C_18  and  N_19
REMARK                            x       y       z     vdW  Elec       q    Type
REMARK                         _______ _______ _______ _____ _____    ______ ____
ROOT
ATOM      1  C   UNL     1       5.488  15.301  19.569  0.00  0.00    +0.000 C 
ATOM      2  C   UNL     1       6.746  15.044  20.398  0.00  0.00    +0.000 C 
ATOM      3  C   UNL     1       7.954  15.802  19.871  0.00  0.00    +0.000 C 
ATOM      4  N   UNL     1       8.209  15.561  18.443  0.00  0.00    +0.000 N 
ATOM      5  C   UNL     1       7.131  15.149  17.533  0.00  0.00    +0.000 C 
ATOM      6  C   UNL     1       5.767  14.819  18.152  0.00  0.00    +0.000 C 
ENDROOT
BRANCH   1  13
ATOM      7  C   UNL     1       3.838  15.067  22.455  0.00  0.00    +0.000 C 
ATOM      8  C   UNL     1       3.156  16.141  21.614  0.00  0.00    +0.000 C 
ATOM      9  C   UNL     1       2.420  17.120  22.553  0.00  0.00    +0.000 C 
ATOM     10  C   UNL     1       2.346  18.411  21.764  0.00  0.00    +0.000 C 
ATOM     11  C   UNL     1       3.649  18.411  20.987  0.00  0.00    +0.000 C 
ATOM     12  N   UNL     1       4.013  17.007  20.789  0.00  0.00    +0.000 N 
ATOM     13  C   UNL     1       4.928  16.721  19.787  0.00  0.00    +0.000 C 
ATOM     14  O   UNL     1       5.402  17.655  19.126  0.00  0.00    +0.000 OA
ENDBRANCH   1  13
BRANCH   4  15
ATOM     15  C   UNL     1       9.539  15.465  18.003  0.00  0.00    +0.000 A 
ATOM     16  C   UNL     1      10.166  16.599  17.435  0.00  0.00    +0.000 A 
ATOM     17  N   UNL     1      11.463  16.727  17.045  0.00  0.00    +0.000 NA
ATOM     18  C   UNL     1      12.249  15.666  17.248  0.00  0.00    +0.000 A 
ATOM     19  C   UNL     1      11.784  14.492  17.802  0.00  0.00    +0.000 A 
ATOM     20  C   UNL     1      10.416  14.363  18.148  0.00  0.00    +0.000 A 
BRANCH  20  21
ATOM     21  N   UNL     1      10.032  13.043  18.541  0.00  0.00    +0.000 N 
ATOM     22  C   UNL     1       9.394  12.060  17.819  0.00  0.00    +0.000 A 
ATOM     23  C   UNL     1       9.263  10.972  18.648  0.00  0.00    +0.000 A 
ATOM     24 CL   UNL     1       8.512   9.492  18.333  0.00  0.00    +0.000 Cl
ATOM     25  C   UNL     1       9.914  11.333  19.827  0.00  0.00    +0.000 A 
ATOM     26  N   UNL     1      10.401  12.575  19.777  0.00  0.00    +0.000 NA
ENDBRANCH  20  21
ENDBRANCH   4  15
TORSDOF 3
ENDMDL
MODEL 8
REMARK VINA RESULT:      -6.3      1.157      1.353
REMARK  Name = 
REMARK  4 active torsions:
REMARK  status: ('A' for Active; 'I' for Inactive)
REMARK    1  A    between atoms: C_1  and  C_2
REMARK    2  A    between atoms: C_7  and  C_9
REMARK    3  A    between atoms: N_12  and  C_13
REMARK    4  A    between atoms: C_18  and  N_19
REMARK                            x       y       z     vdW  Elec       q    Type
REMARK                         _______ _______ _______ _____ _____    ______ ____
ROOT
ATOM      1  C   UNL     1       1.745   9.294  19.609  0.00  0.00    +0.000 C 
ATOM      2  C   UNL     1       2.502   8.835  18.362  0.00  0.00    +0.000 C 
ATOM      3  C   UNL     1       1.975   7.518  17.814  0.00  0.00    +0.000 C 
ATOM      4  N   UNL     1       1.931   6.450  18.823  0.00  0.00    +0.000 N 
ATOM      5  C   UNL     1       1.829   6.756  20.256  0.00  0.00    +0.000 C 
ATOM      6  C   UNL     1       1.936   8.227  20.678  0.00  0.00    +0.000 C 
ENDROOT
BRANCH   1  13
ATOM      7  C   UNL     1       2.227  12.363  18.403  0.00  0.00    +0.000 C 
ATOM      8  C   UNL     1       0.852  12.332  19.062  0.00  0.00    +0.000 C 
ATOM      9  C   UNL     1      -0.033  13.424  18.427  0.00  0.00    +0.000 C 
ATOM     10  C   UNL     1      -1.449  12.929  18.637  0.00  0.00    +0.000 C 
ATOM     11  C   UNL     1      -1.306  11.424  18.505  0.00  0.00    +0.000 C 
ATOM     12  N   UNL     1       0.059  11.100  18.925  0.00  0.00    +0.000 N 
ATOM     13  C   UNL     1       0.321   9.784  19.276  0.00  0.00    +0.000 C 
ATOM     14  O   UNL     1      -0.593   8.953  19.204  0.00  0.00    +0.000 OA
ENDBRANCH   1  13
BRANCH   4  15
ATOM     15  C   UNL     1       2.257   5.141  18.433  0.00  0.00    +0.000 A 
ATOM     16  C   UNL     1       1.280   4.123  18.536  0.00  0.00    +0.000 A 
ATOM     17  N   UNL     1       1.376   2.830  18.121  0.00  0.00    +0.000 NA
ATOM     18  C   UNL     1       2.517   2.487  17.517  0.00  0.00    +0.000 A 
ATOM     19  C   UNL     1       3.557   3.372  17.334  0.00  0.00    +0.000 A 
ATOM     20  C   UNL     1       3.456   4.698  17.825  0.00  0.00    +0.000 A 
BRANCH  20  21
ATOM     21  N   UNL     1       4.667   5.453  17.730  0.00  0.00    +0.000 N 
ATOM     22  C   UNL     1       5.739   5.509  18.592  0.00  0.00    +0.000 A 
ATOM     23  C   UNL     1       6.652   6.376  18.042  0.00  0.00    +0.000 A 
ATOM     24 CL   UNL     1       8.135   6.885  18.674  0.00  0.00    +0.000 Cl
ATOM     25  C   UNL     1       6.109   6.744  16.812  0.00  0.00    +0.000 A 
ATOM     26  N   UNL     1       4.916   6.183  16.597  0.00  0.00    +0.000 NA
ENDBRANCH  20  21
ENDBRANCH   4  15
TORSDOF 3
ENDMDL
MODEL 9
REMARK VINA RESULT:      -6.2      2.517      3.790
REMARK  Name = 
REMARK  4 active torsions:
REMARK  status: ('A' for Active; 'I' for Inactive)
REMARK    1  A    between atoms: C_1  and  C_2
REMARK    2  A    between atoms: C_7  and  C_9
REMARK    3  A    between atoms: N_12  and  C_13
REMARK    4  A    between atoms: C_18  and  N_19
REMARK                            x       y       z     vdW  Elec       q    Type
REMARK                         _______ _______ _______ _____ _____    ______ ____
ROOT
ATOM      1  C   UNL     1       1.607   8.556  18.429  0.00  0.00    +0.000 C 
ATOM      2  C   UNL     1       1.252   7.262  17.695  0.00  0.00    +0.000 C 
ATOM      3  C   UNL     1       2.314   6.187  17.868  0.00  0.00    +0.000 C 
ATOM      4  N   UNL     1       3.662   6.645  17.502  0.00  0.00    +0.000 N 
ATOM      5  C   UNL     1       4.026   8.067  17.551  0.00  0.00    +0.000 C 
ATOM      6  C   UNL     1       2.908   9.078  17.835  0.00  0.00    +0.000 C 
ENDROOT
BRANCH   1  13
ATOM      7  C   UNL     1      -0.984  10.506  19.198  0.00  0.00    +0.000 C 
ATOM      8  C   UNL     1      -0.046  10.482  20.400  0.00  0.00    +0.000 C 
ATOM      9  C   UNL     1      -0.856  10.796  21.675  0.00  0.00    +0.000 C 
ATOM     10  C   UNL     1      -0.065  10.148  22.791  0.00  0.00    +0.000 C 
ATOM     11  C   UNL     1       0.497   8.901  22.132  0.00  0.00    +0.000 C 
ATOM     12  N   UNL     1       0.634   9.214  20.708  0.00  0.00    +0.000 N 
ATOM     13  C   UNL     1       1.480   8.410  19.958  0.00  0.00    +0.000 C 
ATOM     14  O   UNL     1       2.058   7.468  20.516  0.00  0.00    +0.000 OA
ENDBRANCH   1  13
BRANCH   4  15
ATOM     15  C   UNL     1       4.524   5.748  16.849  0.00  0.00    +0.000 A 
ATOM     16  C   UNL     1       5.294   6.200  15.752  0.00  0.00    +0.000 A 
ATOM     17  N   UNL     1       6.245   5.514  15.062  0.00  0.00    +0.000 NA
ATOM     18  C   UNL     1       6.507   4.276  15.489  0.00  0.00    +0.000 A 
ATOM     19  C   UNL     1       5.846   3.701  16.553  0.00  0.00    +0.000 A 
ATOM     20  C   UNL     1       4.820   4.414  17.221  0.00  0.00    +0.000 A 
BRANCH  20  21
ATOM     21  N   UNL     1       4.097   3.641  18.183  0.00  0.00    +0.000 N 
ATOM     22  C   UNL     1       4.021   3.784  19.549  0.00  0.00    +0.000 A 
ATOM     23  C   UNL     1       3.190   2.794  20.013  0.00  0.00    +0.000 A 
ATOM     24 CL   UNL     1       2.765   2.436  21.609  0.00  0.00    +0.000 Cl
ATOM     25  C   UNL     1       2.734   2.138  18.870  0.00  0.00    +0.000 A 
ATOM     26  N   UNL     1       3.257   2.646  17.752  0.00  0.00    +0.000 NA
ENDBRANCH  20  21
ENDBRANCH   4  15
TORSDOF 3
ENDMDL
