MODEL 1
REMARK VINA RESULT:      -8.1      0.000      0.000
REMARK  Name = 
REMARK  11 active torsions:
REMARK  status: ('A' for Active; 'I' for Inactive)
REMARK    1  A    between atoms: C_2  and  C_4
REMARK    2  A    between atoms: C_9  and  C_10
REMARK    3  A    between atoms: C_12  and  C_13
REMARK    4  A    between atoms: C_13  and  C_14
REMARK    5  A    between atoms: C_14  and  O_15
REMARK    6  A    between atoms: O_15  and  P_16
REMARK    7  A    between atoms: P_16  and  O_18
REMARK    8  A    between atoms: P_16  and  O_19
REMARK    9  A    between atoms: C_21  and  C_22
REMARK   10  A    between atoms: C_26  and  N_27
REMARK   11  A    between atoms: C_31  and  O_32
REMARK                            x       y       z     vdW  Elec       q    Type
REMARK                         _______ _______ _______ _____ _____    ______ ____
ROOT
ATOM      1  C   UNL     1       1.806   8.333  19.192  0.00  0.00    +0.000 A 
ATOM      2  C   UNL     1       2.630   8.421  18.062  0.00  0.00    +0.000 A 
ATOM      3  C   UNL     1       3.404   7.345  17.636  0.00  0.00    +0.000 A 
ATOM      4  C   UNL     1       3.352   6.153  18.363  0.00  0.00    +0.000 A 
ATOM      5  C   UNL     1       2.558   5.999  19.519  0.00  0.00    +0.000 A 
ATOM      6  C   UNL     1       1.807   7.125  19.931  0.00  0.00    +0.000 A 
ENDROOT
BRANCH   1  12
ATOM      7  C   UNL     1      -2.120  12.771  20.527  0.00  0.00    +0.000 A 
ATOM      8  C   UNL     1      -1.464  12.713  21.760  0.00  0.00    +0.000 A 
ATOM      9  C   UNL     1      -0.405  11.827  21.968  0.00  0.00    +0.000 A 
ATOM     10  C   UNL     1      -0.032  11.018  20.887  0.00  0.00    +0.000 A 
ATOM     11  N   UNL     1       0.928  10.045  20.793  0.00  0.00    +0.000 N 
ATOM     12  C   UNL     1       0.959   9.485  19.534  0.00  0.00    +0.000 A 
ATOM     13  C   UNL     1      -0.014  10.137  18.801  0.00  0.00    +0.000 A 
ATOM     14  C   UNL     1      -0.644  11.078  19.641  0.00  0.00    +0.000 A 
ATOM     15  C   UNL     1      -1.708  11.974  19.452  0.00  0.00    +0.000 A 
ATOM     16  H   UNL     1       1.519   9.729  21.552  0.00  0.00    +0.000 HD
BRANCH   7  18
ATOM     17  N   UNL     1      -4.397  13.191  19.881  0.00  0.00    +0.000 NA
ATOM     18  C   UNL     1      -3.291  13.667  20.345  0.00  0.00    +0.000 C 
ATOM     19  N   UNL     1      -3.175  14.993  20.651  0.00  0.00    +0.000 N 
ATOM     20  H   UNL     1      -5.103  13.932  19.859  0.00  0.00    +0.000 HD
ATOM     21  H   UNL     1      -3.839  15.602  20.193  0.00  0.00    +0.000 HD
ATOM     22  H   UNL     1      -2.234  15.363  20.591  0.00  0.00    +0.000 HD
ENDBRANCH   7  18
ENDBRANCH   1  12
BRANCH   5  23
ATOM     23  C   UNL     1       2.525   4.669  20.180  0.00  0.00    +0.000 A 
ATOM     24  C   UNL     1       1.383   4.223  20.877  0.00  0.00    +0.000 A 
ATOM     25  C   UNL     1       1.363   3.002  21.560  0.00  0.00    +0.000 A 
ATOM     26  C   UNL     1       2.470   2.161  21.514  0.00  0.00    +0.000 A 
ATOM     27  C   UNL     1       3.613   2.572  20.815  0.00  0.00    +0.000 A 
ATOM     28  C   UNL     1       3.651   3.830  20.196  0.00  0.00    +0.000 A 
BRANCH  27  29
ATOM     29  N   UNL     1       4.768   1.687  20.698  0.00  0.00    +0.000 N 
ATOM     30  O   UNL     1       5.358   1.367  21.745  0.00  0.00    +0.000 OA
ATOM     31  O   UNL     1       5.082   1.292  19.572  0.00  0.00    +0.000 OA
ENDBRANCH  27  29
ENDBRANCH   5  23
BRANCH   6  32
ATOM     32  O   UNL     1       1.040   7.105  21.081  0.00  0.00    +0.000 OA
ATOM     33  H   UNL     1       1.244   7.890  21.615  0.00  0.00    +0.000 HD
ENDBRANCH   6  32
BRANCH   3  34
ATOM     34  C   UNL     1       4.253   7.472  16.397  0.00  0.00    +0.000 C 
BRANCH  34  35
ATOM     35  C   UNL     1       5.655   6.899  16.566  0.00  0.00    +0.000 C 
BRANCH  35  36
ATOM     36  O   UNL     1       5.698   5.522  16.197  0.00  0.00    +0.000 OA
BRANCH  36  37
ATOM     37  P   UNL     1       7.033   4.750  16.982  0.00  0.00    +0.000 P 
ATOM     38  O   UNL     1       7.202   5.902  17.972  0.00  0.00    +0.000 OA
BRANCH  37  39
ATOM     39  O   UNL     1       5.999   3.726  17.705  0.00  0.00    +0.000 OA
ATOM     40  H   UNL     1       5.143   4.175  17.825  0.00  0.00    +0.000 HD
ENDBRANCH  37  39
BRANCH  37  41
ATOM     41  O   UNL     1       8.367   3.978  17.767  0.00  0.00    +0.000 OA
ATOM     42  H   UNL     1       8.865   3.585  17.022  0.00  0.00    +0.000 HD
ENDBRANCH  37  41
ENDBRANCH  36  37
ENDBRANCH  35  36
ENDBRANCH  34  35
ENDBRANCH   3  34
TORSDOF 11
ENDMDL
MODEL 2
REMARK VINA RESULT:      -8.1      4.983     10.400
REMARK  Name = 
REMARK  11 active torsions:
REMARK  status: ('A' for Active; 'I' for Inactive)
REMARK    1  A    between atoms: C_2  and  C_4
REMARK    2  A    between atoms: C_9  and  C_10
REMARK    3  A    between atoms: C_12  and  C_13
REMARK    4  A    between atoms: C_13  and  C_14
REMARK    5  A    between atoms: C_14  and  O_15
REMARK    6  A    between atoms: O_15  and  P_16
REMARK    7  A    between atoms: P_16  and  O_18
REMARK    8  A    between atoms: P_16  and  O_19
REMARK    9  A    between atoms: C_21  and  C_22
REMARK   10  A    between atoms: C_26  and  N_27
REMARK   11  A    between atoms: C_31  and  O_32
REMARK                            x       y       z     vdW  Elec       q    Type
REMARK                         _______ _______ _______ _____ _____    ______ ____
ROOT
ATOM      1  C   UNL     1       0.272   9.625  18.740  0.00  0.00    +0.000 A 
ATOM      2  C   UNL     1      -0.646   9.819  17.699  0.00  0.00    +0.000 A 
ATOM      3  C   UNL     1      -1.646  10.784  17.776  0.00  0.00    +0.000 A 
ATOM      4  C   UNL     1      -1.727  11.574  18.926  0.00  0.00    +0.000 A 
ATOM      5  C   UNL     1      -0.847  11.422  20.019  0.00  0.00    +0.000 A 
ATOM      6  C   UNL     1       0.137  10.412  19.910  0.00  0.00    +0.000 A 
ENDROOT
BRANCH   1  12
ATOM      7  C   UNL     1       5.063   5.960  18.027  0.00  0.00    +0.000 A 
ATOM      8  C   UNL     1       4.533   5.367  19.177  0.00  0.00    +0.000 A 
ATOM      9  C   UNL     1       3.355   5.847  19.753  0.00  0.00    +0.000 A 
ATOM     10  C   UNL     1       2.733   6.930  19.119  0.00  0.00    +0.000 A 
ATOM     11  N   UNL     1       1.606   7.632  19.457  0.00  0.00    +0.000 N 
ATOM     12  C   UNL     1       1.347   8.639  18.553  0.00  0.00    +0.000 A 
ATOM     13  C   UNL     1       2.346   8.565  17.601  0.00  0.00    +0.000 A 
ATOM     14  C   UNL     1       3.219   7.517  17.958  0.00  0.00    +0.000 A 
ATOM     15  C   UNL     1       4.406   7.022  17.395  0.00  0.00    +0.000 A 
ATOM     16  H   UNL     1       1.045   7.476  20.286  0.00  0.00    +0.000 HD
BRANCH   7  18
ATOM     17  N   UNL     1       6.921   6.140  16.513  0.00  0.00    +0.000 NA
ATOM     18  C   UNL     1       6.355   5.485  17.469  0.00  0.00    +0.000 C 
ATOM     19  N   UNL     1       6.919   4.343  17.963  0.00  0.00    +0.000 N 
ATOM     20  H   UNL     1       7.815   5.698  16.280  0.00  0.00    +0.000 HD
ATOM     21  H   UNL     1       7.571   3.880  17.344  0.00  0.00    +0.000 HD
ATOM     22  H   UNL     1       6.265   3.685  18.368  0.00  0.00    +0.000 HD
ENDBRANCH   7  18
ENDBRANCH   1  12
BRANCH   5  23
ATOM     23  C   UNL     1      -0.980  12.356  21.166  0.00  0.00    +0.000 A 
ATOM     24  C   UNL     1      -0.024  13.364  21.407  0.00  0.00    +0.000 A 
ATOM     25  C   UNL     1      -0.102  14.207  22.522  0.00  0.00    +0.000 A 
ATOM     26  C   UNL     1      -1.177  14.104  23.397  0.00  0.00    +0.000 A 
ATOM     27  C   UNL     1      -2.151  13.122  23.173  0.00  0.00    +0.000 A 
ATOM     28  C   UNL     1      -2.026  12.232  22.096  0.00  0.00    +0.000 A 
BRANCH  27  29
ATOM     29  N   UNL     1      -3.322  13.028  24.040  0.00  0.00    +0.000 N 
ATOM     30  O   UNL     1      -3.844  11.908  24.185  0.00  0.00    +0.000 OA
ATOM     31  O   UNL     1      -3.716  14.058  24.592  0.00  0.00    +0.000 OA
ENDBRANCH  27  29
ENDBRANCH   5  23
BRANCH   6  32
ATOM     32  O   UNL     1       1.014  10.137  20.942  0.00  0.00    +0.000 OA
ATOM     33  H   UNL     1       0.694   9.366  21.437  0.00  0.00    +0.000 HD
ENDBRANCH   6  32
BRANCH   3  34
ATOM     34  C   UNL     1      -2.593  10.981  16.621  0.00  0.00    +0.000 C 
BRANCH  34  35
ATOM     35  C   UNL     1      -3.969  11.476  17.049  0.00  0.00    +0.000 C 
BRANCH  35  36
ATOM     36  O   UNL     1      -4.694  10.458  17.737  0.00  0.00    +0.000 OA
BRANCH  36  37
ATOM     37  P   UNL     1      -6.096  11.144  18.482  0.00  0.00    +0.000 P 
ATOM     38  O   UNL     1      -5.265  12.156  19.269  0.00  0.00    +0.000 OA
BRANCH  37  39
ATOM     39  O   UNL     1      -6.455  11.894  17.086  0.00  0.00    +0.000 OA
ATOM     40  H   UNL     1      -6.669  11.222  16.414  0.00  0.00    +0.000 HD
ENDBRANCH  37  39
BRANCH  37  41
ATOM     41  O   UNL     1      -7.499  11.831  19.227  0.00  0.00    +0.000 OA
ATOM     42  H   UNL     1      -7.136  12.257  20.029  0.00  0.00    +0.000 HD
ENDBRANCH  37  41
ENDBRANCH  36  37
ENDBRANCH  35  36
ENDBRANCH  34  35
ENDBRANCH   3  34
TORSDOF 11
ENDMDL
MODEL 3
REMARK VINA RESULT:      -8.0      0.798      1.323
REMARK  Name = 
REMARK  11 active torsions:
REMARK  status: ('A' for Active; 'I' for Inactive)
REMARK    1  A    between atoms: C_2  and  C_4
REMARK    2  A    between atoms: C_9  and  C_10
REMARK    3  A    between atoms: C_12  and  C_13
REMARK    4  A    between atoms: C_13  and  C_14
REMARK    5  A    between atoms: C_14  and  O_15
REMARK    6  A    between atoms: O_15  and  P_16
REMARK    7  A    between atoms: P_16  and  O_18
REMARK    8  A    between atoms: P_16  and  O_19
REMARK    9  A    between atoms: C_21  and  C_22
REMARK   10  A    between atoms: C_26  and  N_27
REMARK   11  A    between atoms: C_31  and  O_32
REMARK                            x       y       z     vdW  Elec       q    Type
REMARK                         _______ _______ _______ _____ _____    ______ ____
ROOT
ATOM      1  C   UNL     1       2.011   8.238  18.929  0.00  0.00    +0.000 A 
ATOM      2  C   UNL     1       2.877   8.270  17.828  0.00  0.00    +0.000 A 
ATOM      3  C   UNL     1       3.662   7.173  17.483  0.00  0.00    +0.000 A 
ATOM      4  C   UNL     1       3.578   6.017  18.264  0.00  0.00    +0.000 A 
ATOM      5  C   UNL     1       2.740   5.921  19.395  0.00  0.00    +0.000 A 
ATOM      6  C   UNL     1       1.979   7.066  19.725  0.00  0.00    +0.000 A 
ENDROOT
BRANCH   1  12
ATOM      7  C   UNL     1      -1.904  12.722  20.136  0.00  0.00    +0.000 A 
ATOM      8  C   UNL     1      -0.918  13.069  21.063  0.00  0.00    +0.000 A 
ATOM      9  C   UNL     1       0.261  12.328  21.167  0.00  0.00    +0.000 A 
ATOM     10  C   UNL     1       0.408  11.243  20.295  0.00  0.00    +0.000 A 
ATOM     11  N   UNL     1       1.417  10.323  20.180  0.00  0.00    +0.000 N 
ATOM     12  C   UNL     1       1.157   9.407  19.185  0.00  0.00    +0.000 A 
ATOM     13  C   UNL     1      -0.063   9.767  18.642  0.00  0.00    +0.000 A 
ATOM     14  C   UNL     1      -0.540  10.896  19.340  0.00  0.00    +0.000 A 
ATOM     15  C   UNL     1      -1.720  11.651  19.253  0.00  0.00    +0.000 A 
ATOM     16  H   UNL     1       2.239  10.277  20.771  0.00  0.00    +0.000 HD
BRANCH   7  18
ATOM     17  N   UNL     1      -3.293  14.597  20.715  0.00  0.00    +0.000 NA
ATOM     18  C   UNL     1      -3.184  13.475  20.088  0.00  0.00    +0.000 C 
ATOM     19  N   UNL     1      -4.241  12.957  19.394  0.00  0.00    +0.000 N 
ATOM     20  H   UNL     1      -4.220  14.995  20.543  0.00  0.00    +0.000 HD
ATOM     21  H   UNL     1      -5.150  13.298  19.675  0.00  0.00    +0.000 HD
ATOM     22  H   UNL     1      -4.238  11.948  19.304  0.00  0.00    +0.000 HD
ENDBRANCH   7  18
ENDBRANCH   1  12
BRANCH   5  23
ATOM     23  C   UNL     1       2.676   4.623  20.116  0.00  0.00    +0.000 A 
ATOM     24  C   UNL     1       1.536   4.250  20.857  0.00  0.00    +0.000 A 
ATOM     25  C   UNL     1       1.490   3.062  21.596  0.00  0.00    +0.000 A 
ATOM     26  C   UNL     1       2.565   2.181  21.564  0.00  0.00    +0.000 A 
ATOM     27  C   UNL     1       3.705   2.520  20.823  0.00  0.00    +0.000 A 
ATOM     28  C   UNL     1       3.773   3.747  20.147  0.00  0.00    +0.000 A 
BRANCH  27  29
ATOM     29  N   UNL     1       4.826   1.589  20.722  0.00  0.00    +0.000 N 
ATOM     30  O   UNL     1       5.089   1.122  19.599  0.00  0.00    +0.000 OA
ATOM     31  O   UNL     1       5.458   1.333  21.749  0.00  0.00    +0.000 OA
ENDBRANCH  27  29
ENDBRANCH   5  23
BRANCH   6  32
ATOM     32  O   UNL     1       1.169   7.103  20.844  0.00  0.00    +0.000 OA
ATOM     33  H   UNL     1       1.276   7.960  21.287  0.00  0.00    +0.000 HD
ENDBRANCH   6  32
BRANCH   3  34
ATOM     34  C   UNL     1       4.558   7.239  16.273  0.00  0.00    +0.000 C 
BRANCH  34  35
ATOM     35  C   UNL     1       5.767   6.317  16.367  0.00  0.00    +0.000 C 
BRANCH  35  36
ATOM     36  O   UNL     1       6.848   6.950  17.050  0.00  0.00    +0.000 OA
BRANCH  36  37
ATOM     37  P   UNL     1       7.221   6.070  18.492  0.00  0.00    +0.000 P 
ATOM     38  O   UNL     1       7.910   4.953  17.711  0.00  0.00    +0.000 OA
BRANCH  37  39
ATOM     39  O   UNL     1       8.401   7.137  18.823  0.00  0.00    +0.000 OA
ATOM     40  H   UNL     1       9.049   7.126  18.096  0.00  0.00    +0.000 HD
ENDBRANCH  37  39
BRANCH  37  41
ATOM     41  O   UNL     1       7.595   5.191  19.934  0.00  0.00    +0.000 OA
ATOM     42  H   UNL     1       8.125   5.830  20.452  0.00  0.00    +0.000 HD
ENDBRANCH  37  41
ENDBRANCH  36  37
ENDBRANCH  35  36
ENDBRANCH  34  35
ENDBRANCH   3  34
TORSDOF 11
ENDMDL
MODEL 4
REMARK VINA RESULT:      -7.9      5.147     10.094
REMARK  Name = 
REMARK  11 active torsions:
REMARK  status: ('A' for Active; 'I' for Inactive)
REMARK    1  A    between atoms: C_2  and  C_4
REMARK    2  A    between atoms: C_9  and  C_10
REMARK    3  A    between atoms: C_12  and  C_13
REMARK    4  A    between atoms: C_13  and  C_14
REMARK    5  A    between atoms: C_14  and  O_15
REMARK    6  A    between atoms: O_15  and  P_16
REMARK    7  A    between atoms: P_16  and  O_18
REMARK    8  A    between atoms: P_16  and  O_19
REMARK    9  A    between atoms: C_21  and  C_22
REMARK   10  A    between atoms: C_26  and  N_27
REMARK   11  A    between atoms: C_31  and  O_32
REMARK                            x       y       z     vdW  Elec       q    Type
REMARK                         _______ _______ _______ _____ _____    ______ ____
ROOT
ATOM      1  C   UNL     1       0.984  10.446  18.665  0.00  0.00    +0.000 A 
ATOM      2  C   UNL     1       1.774  11.588  18.477  0.00  0.00    +0.000 A 
ATOM      3  C   UNL     1       1.243  12.870  18.579  0.00  0.00    +0.000 A 
ATOM      4  C   UNL     1      -0.116  13.010  18.876  0.00  0.00    +0.000 A 
ATOM      5  C   UNL     1      -0.973  11.905  19.061  0.00  0.00    +0.000 A 
ATOM      6  C   UNL     1      -0.398  10.621  18.922  0.00  0.00    +0.000 A 
ENDROOT
BRANCH   1  12
ATOM      7  C   UNL     1       4.140   5.260  18.463  0.00  0.00    +0.000 A 
ATOM      8  C   UNL     1       3.506   5.055  19.692  0.00  0.00    +0.000 A 
ATOM      9  C   UNL     1       2.606   5.995  20.200  0.00  0.00    +0.000 A 
ATOM     10  C   UNL     1       2.366   7.132  19.418  0.00  0.00    +0.000 A 
ATOM     11  N   UNL     1       1.578   8.226  19.657  0.00  0.00    +0.000 N 
ATOM     12  C   UNL     1       1.634   9.128  18.617  0.00  0.00    +0.000 A 
ATOM     13  C   UNL     1       2.485   8.576  17.678  0.00  0.00    +0.000 A 
ATOM     14  C   UNL     1       2.956   7.345  18.179  0.00  0.00    +0.000 A 
ATOM     15  C   UNL     1       3.860   6.390  17.686  0.00  0.00    +0.000 A 
ATOM     16  H   UNL     1       1.047   8.393  20.505  0.00  0.00    +0.000 HD
BRANCH   7  18
ATOM     17  N   UNL     1       6.223   4.075  18.654  0.00  0.00    +0.000 NA
ATOM     18  C   UNL     1       5.149   4.287  17.971  0.00  0.00    +0.000 C 
ATOM     19  N   UNL     1       4.935   3.642  16.786  0.00  0.00    +0.000 N 
ATOM     20  H   UNL     1       6.782   3.352  18.192  0.00  0.00    +0.000 HD
ATOM     21  H   UNL     1       5.766   3.287  16.332  0.00  0.00    +0.000 HD
ATOM     22  H   UNL     1       4.342   4.138  16.132  0.00  0.00    +0.000 HD
ENDBRANCH   7  18
ENDBRANCH   1  12
BRANCH   5  23
ATOM     23  C   UNL     1      -2.387  12.164  19.436  0.00  0.00    +0.000 A 
ATOM     24  C   UNL     1      -2.726  12.703  20.695  0.00  0.00    +0.000 A 
ATOM     25  C   UNL     1      -4.057  12.889  21.087  0.00  0.00    +0.000 A 
ATOM     26  C   UNL     1      -5.089  12.597  20.202  0.00  0.00    +0.000 A 
ATOM     27  C   UNL     1      -4.780  12.076  18.938  0.00  0.00    +0.000 A 
ATOM     28  C   UNL     1      -3.448  11.822  18.582  0.00  0.00    +0.000 A 
BRANCH  27  29
ATOM     29  N   UNL     1      -5.838  11.816  17.966  0.00  0.00    +0.000 N 
ATOM     30  O   UNL     1      -5.807  12.449  16.896  0.00  0.00    +0.000 OA
ATOM     31  O   UNL     1      -6.692  10.972  18.252  0.00  0.00    +0.000 OA
ENDBRANCH  27  29
ENDBRANCH   5  23
BRANCH   6  32
ATOM     32  O   UNL     1      -1.155   9.469  19.025  0.00  0.00    +0.000 OA
ATOM     33  H   UNL     1      -1.939   9.550  18.459  0.00  0.00    +0.000 HD
ENDBRANCH   6  32
BRANCH   3  34
ATOM     34  C   UNL     1       2.134  14.072  18.401  0.00  0.00    +0.000 C 
BRANCH  34  35
ATOM     35  C   UNL     1       3.078  14.301  19.574  0.00  0.00    +0.000 C 
BRANCH  35  36
ATOM     36  O   UNL     1       3.268  15.694  19.820  0.00  0.00    +0.000 OA
BRANCH  36  37
ATOM     37  P   UNL     1       3.024  16.582  18.355  0.00  0.00    +0.000 P 
ATOM     38  O   UNL     1       2.277  17.701  19.080  0.00  0.00    +0.000 OA
BRANCH  37  39
ATOM     39  O   UNL     1       4.584  17.035  18.386  0.00  0.00    +0.000 OA
ATOM     40  H   UNL     1       4.895  17.155  17.470  0.00  0.00    +0.000 HD
ENDBRANCH  37  39
BRANCH  37  41
ATOM     41  O   UNL     1       2.781  17.471  16.891  0.00  0.00    +0.000 OA
ATOM     42  H   UNL     1       1.979  17.998  17.083  0.00  0.00    +0.000 HD
ENDBRANCH  37  41
ENDBRANCH  36  37
ENDBRANCH  35  36
ENDBRANCH  34  35
ENDBRANCH   3  34
TORSDOF 11
ENDMDL
MODEL 5
REMARK VINA RESULT:      -7.9      4.942     10.358
REMARK  Name = 
REMARK  11 active torsions:
REMARK  status: ('A' for Active; 'I' for Inactive)
REMARK    1  A    between atoms: C_2  and  C_4
REMARK    2  A    between atoms: C_9  and  C_10
REMARK    3  A    between atoms: C_12  and  C_13
REMARK    4  A    between atoms: C_13  and  C_14
REMARK    5  A    between atoms: C_14  and  O_15
REMARK    6  A    between atoms: O_15  and  P_16
REMARK    7  A    between atoms: P_16  and  O_18
REMARK    8  A    between atoms: P_16  and  O_19
REMARK    9  A    between atoms: C_21  and  C_22
REMARK   10  A    between atoms: C_26  and  N_27
REMARK   11  A    between atoms: C_31  and  O_32
REMARK                            x       y       z     vdW  Elec       q    Type
REMARK                         _______ _______ _______ _____ _____    ______ ____
ROOT
ATOM      1  C   UNL     1       0.655   9.226  18.673  0.00  0.00    +0.000 A 
ATOM      2  C   UNL     1      -0.296   9.369  17.653  0.00  0.00    +0.000 A 
ATOM      3  C   UNL     1      -1.339  10.286  17.749  0.00  0.00    +0.000 A 
ATOM      4  C   UNL     1      -1.430  11.078  18.897  0.00  0.00    +0.000 A 
ATOM      5  C   UNL     1      -0.519  10.975  19.969  0.00  0.00    +0.000 A 
ATOM      6  C   UNL     1       0.510  10.013  19.841  0.00  0.00    +0.000 A 
ENDROOT
BRANCH   1  12
ATOM      7  C   UNL     1       5.599   5.781  17.907  0.00  0.00    +0.000 A 
ATOM      8  C   UNL     1       5.059   5.107  19.006  0.00  0.00    +0.000 A 
ATOM      9  C   UNL     1       3.848   5.512  19.572  0.00  0.00    +0.000 A 
ATOM     10  C   UNL     1       3.204   6.605  18.979  0.00  0.00    +0.000 A 
ATOM     11  N   UNL     1       2.042   7.246  19.321  0.00  0.00    +0.000 N 
ATOM     12  C   UNL     1       1.771   8.291  18.465  0.00  0.00    +0.000 A 
ATOM     13  C   UNL     1       2.798   8.306  17.541  0.00  0.00    +0.000 A 
ATOM     14  C   UNL     1       3.700   7.272  17.866  0.00  0.00    +0.000 A 
ATOM     15  C   UNL     1       4.920   6.852  17.313  0.00  0.00    +0.000 A 
ATOM     16  H   UNL     1       1.464   7.024  20.123  0.00  0.00    +0.000 HD
BRANCH   7  18
ATOM     17  N   UNL     1       7.383   5.966  16.307  0.00  0.00    +0.000 NA
ATOM     18  C   UNL     1       6.923   5.384  17.363  0.00  0.00    +0.000 C 
ATOM     19  N   UNL     1       7.629   4.390  17.977  0.00  0.00    +0.000 N 
ATOM     20  H   UNL     1       8.316   5.600  16.097  0.00  0.00    +0.000 HD
ATOM     21  H   UNL     1       8.314   3.925  17.397  0.00  0.00    +0.000 HD
ATOM     22  H   UNL     1       7.067   3.722  18.491  0.00  0.00    +0.000 HD
ENDBRANCH   7  18
ENDBRANCH   1  12
BRANCH   5  23
ATOM     23  C   UNL     1      -0.669  11.910  21.114  0.00  0.00    +0.000 A 
ATOM     24  C   UNL     1      -1.451  11.574  22.238  0.00  0.00    +0.000 A 
ATOM     25  C   UNL     1      -1.654  12.472  23.293  0.00  0.00    +0.000 A 
ATOM     26  C   UNL     1      -1.028  13.713  23.280  0.00  0.00    +0.000 A 
ATOM     27  C   UNL     1      -0.232  14.066  22.182  0.00  0.00    +0.000 A 
ATOM     28  C   UNL     1      -0.094  13.191  21.095  0.00  0.00    +0.000 A 
BRANCH  27  29
ATOM     29  N   UNL     1       0.486  15.338  22.167  0.00  0.00    +0.000 N 
ATOM     30  O   UNL     1       1.068  15.684  23.210  0.00  0.00    +0.000 OA
ATOM     31  O   UNL     1       0.489  15.987  21.118  0.00  0.00    +0.000 OA
ENDBRANCH  27  29
ENDBRANCH   5  23
BRANCH   6  32
ATOM     32  O   UNL     1       1.424   9.787  20.854  0.00  0.00    +0.000 OA
ATOM     33  H   UNL     1       2.197   9.328  20.489  0.00  0.00    +0.000 HD
ENDBRANCH   6  32
BRANCH   3  34
ATOM     34  C   UNL     1      -2.322  10.430  16.616  0.00  0.00    +0.000 C 
BRANCH  34  35
ATOM     35  C   UNL     1      -3.769  10.522  17.083  0.00  0.00    +0.000 C 
BRANCH  35  36
ATOM     36  O   UNL     1      -4.287  11.840  16.903  0.00  0.00    +0.000 OA
BRANCH  36  37
ATOM     37  P   UNL     1      -5.840  11.963  17.655  0.00  0.00    +0.000 P 
ATOM     38  O   UNL     1      -5.654  10.646  18.406  0.00  0.00    +0.000 OA
BRANCH  37  39
ATOM     39  O   UNL     1      -5.251  13.100  18.655  0.00  0.00    +0.000 OA
ATOM     40  H   UNL     1      -5.251  12.751  19.565  0.00  0.00    +0.000 HD
ENDBRANCH  37  39
BRANCH  37  41
ATOM     41  O   UNL     1      -7.393  12.087  18.408  0.00  0.00    +0.000 OA
ATOM     42  H   UNL     1      -7.896  11.355  17.997  0.00  0.00    +0.000 HD
ENDBRANCH  37  41
ENDBRANCH  36  37
ENDBRANCH  35  36
ENDBRANCH  34  35
ENDBRANCH   3  34
TORSDOF 11
ENDMDL
MODEL 6
REMARK VINA RESULT:      -7.9      5.058     10.508
REMARK  Name = 
REMARK  11 active torsions:
REMARK  status: ('A' for Active; 'I' for Inactive)
REMARK    1  A    between atoms: C_2  and  C_4
REMARK    2  A    between atoms: C_9  and  C_10
REMARK    3  A    between atoms: C_12  and  C_13
REMARK    4  A    between atoms: C_13  and  C_14
REMARK    5  A    between atoms: C_14  and  O_15
REMARK    6  A    between atoms: O_15  and  P_16
REMARK    7  A    between atoms: P_16  and  O_18
REMARK    8  A    between atoms: P_16  and  O_19
REMARK    9  A    between atoms: C_21  and  C_22
REMARK   10  A    between atoms: C_26  and  N_27
REMARK   11  A    between atoms: C_31  and  O_32
REMARK                            x       y       z     vdW  Elec       q    Type
REMARK                         _______ _______ _______ _____ _____    ______ ____
ROOT
ATOM      1  C   UNL     1       0.407   9.620  19.012  0.00  0.00    +0.000 A 
ATOM      2  C   UNL     1      -0.529   9.695  17.972  0.00  0.00    +0.000 A 
ATOM      3  C   UNL     1      -1.596  10.588  18.011  0.00  0.00    +0.000 A 
ATOM      4  C   UNL     1      -1.728  11.424  19.124  0.00  0.00    +0.000 A 
ATOM      5  C   UNL     1      -0.833  11.390  20.214  0.00  0.00    +0.000 A 
ATOM      6  C   UNL     1       0.222  10.451  20.144  0.00  0.00    +0.000 A 
ENDROOT
BRANCH   1  12
ATOM      7  C   UNL     1       4.774   5.445  18.378  0.00  0.00    +0.000 A 
ATOM      8  C   UNL     1       5.020   6.165  17.206  0.00  0.00    +0.000 A 
ATOM      9  C   UNL     1       4.265   7.296  16.886  0.00  0.00    +0.000 A 
ATOM     10  C   UNL     1       3.271   7.674  17.798  0.00  0.00    +0.000 A 
ATOM     11  N   UNL     1       2.362   8.697  17.749  0.00  0.00    +0.000 N 
ATOM     12  C   UNL     1       1.551   8.707  18.863  0.00  0.00    +0.000 A 
ATOM     13  C   UNL     1       1.971   7.653  19.652  0.00  0.00    +0.000 A 
ATOM     14  C   UNL     1       3.028   6.998  18.986  0.00  0.00    +0.000 A 
ATOM     15  C   UNL     1       3.795   5.861  19.288  0.00  0.00    +0.000 A 
ATOM     16  H   UNL     1       2.252   9.348  16.980  0.00  0.00    +0.000 HD
BRANCH   7  18
ATOM     17  N   UNL     1       4.974   3.241  19.317  0.00  0.00    +0.000 NA
ATOM     18  C   UNL     1       5.536   4.203  18.667  0.00  0.00    +0.000 C 
ATOM     19  N   UNL     1       6.835   4.104  18.257  0.00  0.00    +0.000 N 
ATOM     20  H   UNL     1       5.624   2.455  19.392  0.00  0.00    +0.000 HD
ATOM     21  H   UNL     1       7.398   3.433  18.764  0.00  0.00    +0.000 HD
ATOM     22  H   UNL     1       7.319   4.988  18.155  0.00  0.00    +0.000 HD
ENDBRANCH   7  18
ENDBRANCH   1  12
BRANCH   5  23
ATOM     23  C   UNL     1      -1.028  12.367  21.316  0.00  0.00    +0.000 A 
ATOM     24  C   UNL     1      -0.141  13.447  21.505  0.00  0.00    +0.000 A 
ATOM     25  C   UNL     1      -0.274  14.335  22.579  0.00  0.00    +0.000 A 
ATOM     26  C   UNL     1      -1.340  14.202  23.463  0.00  0.00    +0.000 A 
ATOM     27  C   UNL     1      -2.245  13.146  23.289  0.00  0.00    +0.000 A 
ATOM     28  C   UNL     1      -2.061  12.217  22.255  0.00  0.00    +0.000 A 
BRANCH  27  29
ATOM     29  N   UNL     1      -3.406  13.015  24.164  0.00  0.00    +0.000 N 
ATOM     30  O   UNL     1      -4.008  11.927  24.166  0.00  0.00    +0.000 OA
ATOM     31  O   UNL     1      -3.714  13.983  24.865  0.00  0.00    +0.000 OA
ENDBRANCH  27  29
ENDBRANCH   5  23
BRANCH   6  32
ATOM     32  O   UNL     1       1.123  10.291  21.180  0.00  0.00    +0.000 OA
ATOM     33  H   UNL     1       0.660   9.932  21.954  0.00  0.00    +0.000 HD
ENDBRANCH   6  32
BRANCH   3  34
ATOM     34  C   UNL     1      -2.562  10.658  16.857  0.00  0.00    +0.000 C 
BRANCH  34  35
ATOM     35  C   UNL     1      -3.735  11.597  17.111  0.00  0.00    +0.000 C 
BRANCH  35  36
ATOM     36  O   UNL     1      -4.982  10.916  16.970  0.00  0.00    +0.000 OA
BRANCH  36  37
ATOM     37  P   UNL     1      -6.232  11.824  17.748  0.00  0.00    +0.000 P 
ATOM     38  O   UNL     1      -6.588  10.663  18.676  0.00  0.00    +0.000 OA
BRANCH  37  39
ATOM     39  O   UNL     1      -5.100  12.668  18.552  0.00  0.00    +0.000 OA
ATOM     40  H   UNL     1      -5.512  13.085  19.331  0.00  0.00    +0.000 HD
ENDBRANCH  37  39
BRANCH  37  41
ATOM     41  O   UNL     1      -7.482  12.732  18.527  0.00  0.00    +0.000 OA
ATOM     42  H   UNL     1      -7.127  12.867  19.429  0.00  0.00    +0.000 HD
ENDBRANCH  37  41
ENDBRANCH  36  37
ENDBRANCH  35  36
ENDBRANCH  34  35
ENDBRANCH   3  34
TORSDOF 11
ENDMDL
MODEL 7
REMARK VINA RESULT:      -7.9      5.055     10.222
REMARK  Name = 
REMARK  11 active torsions:
REMARK  status: ('A' for Active; 'I' for Inactive)
REMARK    1  A    between atoms: C_2  and  C_4
REMARK    2  A    between atoms: C_9  and  C_10
REMARK    3  A    between atoms: C_12  and  C_13
REMARK    4  A    between atoms: C_13  and  C_14
REMARK    5  A    between atoms: C_14  and  O_15
REMARK    6  A    between atoms: O_15  and  P_16
REMARK    7  A    between atoms: P_16  and  O_18
REMARK    8  A    between atoms: P_16  and  O_19
REMARK    9  A    between atoms: C_21  and  C_22
REMARK   10  A    between atoms: C_26  and  N_27
REMARK   11  A    between atoms: C_31  and  O_32
REMARK                            x       y       z     vdW  Elec       q    Type
REMARK                         _______ _______ _______ _____ _____    ______ ____
ROOT
ATOM      1  C   UNL     1       1.213   8.665  19.283  0.00  0.00    +0.000 A 
ATOM      2  C   UNL     1       1.146   8.975  20.648  0.00  0.00    +0.000 A 
ATOM      3  C   UNL     1       0.127   9.769  21.168  0.00  0.00    +0.000 A 
ATOM      4  C   UNL     1      -0.846  10.265  20.297  0.00  0.00    +0.000 A 
ATOM      5  C   UNL     1      -0.831  10.006  18.910  0.00  0.00    +0.000 A 
ATOM      6  C   UNL     1       0.236   9.217  18.420  0.00  0.00    +0.000 A 
ENDROOT
BRANCH   1  12
ATOM      7  C   UNL     1       5.945   5.317  17.466  0.00  0.00    +0.000 A 
ATOM      8  C   UNL     1       5.549   4.525  18.547  0.00  0.00    +0.000 A 
ATOM      9  C   UNL     1       4.433   4.865  19.315  0.00  0.00    +0.000 A 
ATOM     10  C   UNL     1       3.734   6.020  18.942  0.00  0.00    +0.000 A 
ATOM     11  N   UNL     1       2.641   6.621  19.509  0.00  0.00    +0.000 N 
ATOM     12  C   UNL     1       2.274   7.757  18.821  0.00  0.00    +0.000 A 
ATOM     13  C   UNL     1       3.166   7.874  17.772  0.00  0.00    +0.000 A 
ATOM     14  C   UNL     1       4.085   6.807  17.853  0.00  0.00    +0.000 A 
ATOM     15  C   UNL     1       5.211   6.451  17.094  0.00  0.00    +0.000 A 
ATOM     16  H   UNL     1       2.173   6.311  20.353  0.00  0.00    +0.000 HD
BRANCH   7  18
ATOM     17  N   UNL     1       8.041   4.168  17.208  0.00  0.00    +0.000 NA
ATOM     18  C   UNL     1       7.176   4.982  16.704  0.00  0.00    +0.000 C 
ATOM     19  N   UNL     1       7.386   5.559  15.484  0.00  0.00    +0.000 N 
ATOM     20  H   UNL     1       8.800   4.021  16.537  0.00  0.00    +0.000 HD
ATOM     21  H   UNL     1       8.351   5.588  15.181  0.00  0.00    +0.000 HD
ATOM     22  H   UNL     1       6.931   6.453  15.351  0.00  0.00    +0.000 HD
ENDBRANCH   7  18
ENDBRANCH   1  12
BRANCH   5  23
ATOM     23  C   UNL     1      -1.950  10.527  18.083  0.00  0.00    +0.000 A 
ATOM     24  C   UNL     1      -2.858  11.478  18.592  0.00  0.00    +0.000 A 
ATOM     25  C   UNL     1      -3.956  11.926  17.847  0.00  0.00    +0.000 A 
ATOM     26  C   UNL     1      -4.139  11.480  16.543  0.00  0.00    +0.000 A 
ATOM     27  C   UNL     1      -3.241  10.547  16.006  0.00  0.00    +0.000 A 
ATOM     28  C   UNL     1      -2.188  10.046  16.785  0.00  0.00    +0.000 A 
BRANCH  27  29
ATOM     29  N   UNL     1      -3.373  10.105  14.621  0.00  0.00    +0.000 N 
ATOM     30  O   UNL     1      -4.523   9.967  14.166  0.00  0.00    +0.000 OA
ATOM     31  O   UNL     1      -2.340   9.910  13.975  0.00  0.00    +0.000 OA
ENDBRANCH  27  29
ENDBRANCH   5  23
BRANCH   6  32
ATOM     32  O   UNL     1       0.382   8.949  17.072  0.00  0.00    +0.000 OA
ATOM     33  H   UNL     1      -0.495   8.841  16.670  0.00  0.00    +0.000 HD
ENDBRANCH   6  32
BRANCH   3  34
ATOM     34  C   UNL     1       0.075  10.053  22.647  0.00  0.00    +0.000 C 
BRANCH  34  35
ATOM     35  C   UNL     1      -1.145  10.868  23.060  0.00  0.00    +0.000 C 
BRANCH  35  36
ATOM     36  O   UNL     1      -0.816  12.249  23.210  0.00  0.00    +0.000 OA
BRANCH  36  37
ATOM     37  P   UNL     1      -2.260  13.200  23.145  0.00  0.00    +0.000 P 
ATOM     38  O   UNL     1      -2.220  13.276  21.620  0.00  0.00    +0.000 OA
BRANCH  37  39
ATOM     39  O   UNL     1      -3.135  11.872  23.474  0.00  0.00    +0.000 OA
ATOM     40  H   UNL     1      -3.795  12.090  24.157  0.00  0.00    +0.000 HD
ENDBRANCH  37  39
BRANCH  37  41
ATOM     41  O   UNL     1      -3.704  14.151  23.080  0.00  0.00    +0.000 OA
ATOM     42  H   UNL     1      -4.374  13.513  22.761  0.00  0.00    +0.000 HD
ENDBRANCH  37  41
ENDBRANCH  36  37
ENDBRANCH  35  36
ENDBRANCH  34  35
ENDBRANCH   3  34
TORSDOF 11
ENDMDL
MODEL 8
REMARK VINA RESULT:      -7.9      4.867      9.702
REMARK  Name = 
REMARK  11 active torsions:
REMARK  status: ('A' for Active; 'I' for Inactive)
REMARK    1  A    between atoms: C_2  and  C_4
REMARK    2  A    between atoms: C_9  and  C_10
REMARK    3  A    between atoms: C_12  and  C_13
REMARK    4  A    between atoms: C_13  and  C_14
REMARK    5  A    between atoms: C_14  and  O_15
REMARK    6  A    between atoms: O_15  and  P_16
REMARK    7  A    between atoms: P_16  and  O_18
REMARK    8  A    between atoms: P_16  and  O_19
REMARK    9  A    between atoms: C_21  and  C_22
REMARK   10  A    between atoms: C_26  and  N_27
REMARK   11  A    between atoms: C_31  and  O_32
REMARK                            x       y       z     vdW  Elec       q    Type
REMARK                         _______ _______ _______ _____ _____    ______ ____
ROOT
ATOM      1  C   UNL     1       1.096  10.348  18.928  0.00  0.00    +0.000 A 
ATOM      2  C   UNL     1       1.871  11.459  18.566  0.00  0.00    +0.000 A 
ATOM      3  C   UNL     1       1.404  12.760  18.728  0.00  0.00    +0.000 A 
ATOM      4  C   UNL     1       0.128  12.952  19.264  0.00  0.00    +0.000 A 
ATOM      5  C   UNL     1      -0.712  11.881  19.634  0.00  0.00    +0.000 A 
ATOM      6  C   UNL     1      -0.209  10.575  19.430  0.00  0.00    +0.000 A 
ENDROOT
BRANCH   1  12
ATOM      7  C   UNL     1       4.020   5.054  18.371  0.00  0.00    +0.000 A 
ATOM      8  C   UNL     1       3.459   4.835  19.632  0.00  0.00    +0.000 A 
ATOM      9  C   UNL     1       2.632   5.792  20.225  0.00  0.00    +0.000 A 
ATOM     10  C   UNL     1       2.388   6.961  19.494  0.00  0.00    +0.000 A 
ATOM     11  N   UNL     1       1.662   8.077  19.816  0.00  0.00    +0.000 N 
ATOM     12  C   UNL     1       1.687   9.008  18.800  0.00  0.00    +0.000 A 
ATOM     13  C   UNL     1       2.453   8.454  17.792  0.00  0.00    +0.000 A 
ATOM     14  C   UNL     1       2.905   7.190  18.225  0.00  0.00    +0.000 A 
ATOM     15  C   UNL     1       3.736   6.218  17.647  0.00  0.00    +0.000 A 
ATOM     16  H   UNL     1       1.195   8.238  20.701  0.00  0.00    +0.000 HD
BRANCH   7  18
ATOM     17  N   UNL     1       6.195   4.368  17.612  0.00  0.00    +0.000 NA
ATOM     18  C   UNL     1       4.955   4.059  17.786  0.00  0.00    +0.000 C 
ATOM     19  N   UNL     1       4.482   2.831  17.418  0.00  0.00    +0.000 N 
ATOM     20  H   UNL     1       6.699   3.558  17.240  0.00  0.00    +0.000 HD
ATOM     21  H   UNL     1       5.037   2.344  16.727  0.00  0.00    +0.000 HD
ATOM     22  H   UNL     1       3.497   2.806  17.184  0.00  0.00    +0.000 HD
ENDBRANCH   7  18
ENDBRANCH   1  12
BRANCH   5  23
ATOM     23  C   UNL     1      -2.025  12.196  20.256  0.00  0.00    +0.000 A 
ATOM     24  C   UNL     1      -3.190  12.342  19.476  0.00  0.00    +0.000 A 
ATOM     25  C   UNL     1      -4.419  12.705  20.041  0.00  0.00    +0.000 A 
ATOM     26  C   UNL     1      -4.528  12.873  21.417  0.00  0.00    +0.000 A 
ATOM     27  C   UNL     1      -3.388  12.719  22.218  0.00  0.00    +0.000 A 
ATOM     28  C   UNL     1      -2.146  12.429  21.635  0.00  0.00    +0.000 A 
BRANCH  27  29
ATOM     29  N   UNL     1      -3.484  12.831  23.670  0.00  0.00    +0.000 N 
ATOM     30  O   UNL     1      -4.074  11.922  24.281  0.00  0.00    +0.000 OA
ATOM     31  O   UNL     1      -2.960  13.808  24.211  0.00  0.00    +0.000 OA
ENDBRANCH  27  29
ENDBRANCH   5  23
BRANCH   6  32
ATOM     32  O   UNL     1      -0.968   9.453  19.703  0.00  0.00    +0.000 OA
ATOM     33  H   UNL     1      -1.146   8.978  18.876  0.00  0.00    +0.000 HD
ENDBRANCH   6  32
BRANCH   3  34
ATOM     34  C   UNL     1       2.281  13.927  18.354  0.00  0.00    +0.000 C 
BRANCH  34  35
ATOM     35  C   UNL     1       2.654  14.805  19.542  0.00  0.00    +0.000 C 
BRANCH  35  36
ATOM     36  O   UNL     1       3.776  14.273  20.245  0.00  0.00    +0.000 OA
BRANCH  36  37
ATOM     37  P   UNL     1       3.781  14.871  21.869  0.00  0.00    +0.000 P 
ATOM     38  O   UNL     1       2.307  14.523  22.072  0.00  0.00    +0.000 OA
BRANCH  37  39
ATOM     39  O   UNL     1       4.591  13.544  22.341  0.00  0.00    +0.000 OA
ATOM     40  H   UNL     1       3.963  12.917  22.743  0.00  0.00    +0.000 HD
ENDBRANCH  37  39
BRANCH  37  41
ATOM     41  O   UNL     1       3.786  15.467  23.493  0.00  0.00    +0.000 OA
ATOM     42  H   UNL     1       3.349  16.338  23.409  0.00  0.00    +0.000 HD
ENDBRANCH  37  41
ENDBRANCH  36  37
ENDBRANCH  35  36
ENDBRANCH  34  35
ENDBRANCH   3  34
TORSDOF 11
ENDMDL
MODEL 9
REMARK VINA RESULT:      -7.8      0.840      1.339
REMARK  Name = 
REMARK  11 active torsions:
REMARK  status: ('A' for Active; 'I' for Inactive)
REMARK    1  A    between atoms: C_2  and  C_4
REMARK    2  A    between atoms: C_9  and  C_10
REMARK    3  A    between atoms: C_12  and  C_13
REMARK    4  A    between atoms: C_13  and  C_14
REMARK    5  A    between atoms: C_14  and  O_15
REMARK    6  A    between atoms: O_15  and  P_16
REMARK    7  A    between atoms: P_16  and  O_18
REMARK    8  A    between atoms: P_16  and  O_19
REMARK    9  A    between atoms: C_21  and  C_22
REMARK   10  A    between atoms: C_26  and  N_27
REMARK   11  A    between atoms: C_31  and  O_32
REMARK                            x       y       z     vdW  Elec       q    Type
REMARK                         _______ _______ _______ _____ _____    ______ ____
ROOT
ATOM      1  C   UNL     1       2.088   8.126  18.967  0.00  0.00    +0.000 A 
ATOM      2  C   UNL     1       3.022   8.187  17.923  0.00  0.00    +0.000 A 
ATOM      3  C   UNL     1       3.854   7.113  17.623  0.00  0.00    +0.000 A 
ATOM      4  C   UNL     1       3.748   5.949  18.390  0.00  0.00    +0.000 A 
ATOM      5  C   UNL     1       2.843   5.824  19.465  0.00  0.00    +0.000 A 
ATOM      6  C   UNL     1       2.035   6.948  19.752  0.00  0.00    +0.000 A 
ENDROOT
BRANCH   1  12
ATOM      7  C   UNL     1      -2.003  12.506  19.955  0.00  0.00    +0.000 A 
ATOM      8  C   UNL     1      -1.075  12.882  20.929  0.00  0.00    +0.000 A 
ATOM      9  C   UNL     1       0.117  12.174  21.095  0.00  0.00    +0.000 A 
ATOM     10  C   UNL     1       0.337  11.090  20.236  0.00  0.00    +0.000 A 
ATOM     11  N   UNL     1       1.376  10.198  20.176  0.00  0.00    +0.000 N 
ATOM     12  C   UNL     1       1.190   9.272  19.173  0.00  0.00    +0.000 A 
ATOM     13  C   UNL     1      -0.010   9.597  18.569  0.00  0.00    +0.000 A 
ATOM     14  C   UNL     1      -0.551  10.715  19.237  0.00  0.00    +0.000 A 
ATOM     15  C   UNL     1      -1.746  11.437  19.087  0.00  0.00    +0.000 A 
ATOM     16  H   UNL     1       2.168  10.177  20.809  0.00  0.00    +0.000 HD
BRANCH   7  18
ATOM     17  N   UNL     1      -3.515  14.276  20.552  0.00  0.00    +0.000 NA
ATOM     18  C   UNL     1      -3.299  13.223  19.839  0.00  0.00    +0.000 C 
ATOM     19  N   UNL     1      -4.257  12.744  18.991  0.00  0.00    +0.000 N 
ATOM     20  H   UNL     1      -4.434  14.662  20.319  0.00  0.00    +0.000 HD
ATOM     21  H   UNL     1      -5.203  13.031  19.203  0.00  0.00    +0.000 HD
ATOM     22  H   UNL     1      -4.206  11.749  18.809  0.00  0.00    +0.000 HD
ENDBRANCH   7  18
ENDBRANCH   1  12
BRANCH   5  23
ATOM     23  C   UNL     1       2.765   4.520  20.173  0.00  0.00    +0.000 A 
ATOM     24  C   UNL     1       1.631   4.163  20.931  0.00  0.00    +0.000 A 
ATOM     25  C   UNL     1       1.574   2.967  21.657  0.00  0.00    +0.000 A 
ATOM     26  C   UNL     1       2.630   2.065  21.596  0.00  0.00    +0.000 A 
ATOM     27  C   UNL     1       3.763   2.389  20.838  0.00  0.00    +0.000 A 
ATOM     28  C   UNL     1       3.844   3.621  20.174  0.00  0.00    +0.000 A 
BRANCH  27  29
ATOM     29  N   UNL     1       4.862   1.436  20.706  0.00  0.00    +0.000 N 
ATOM     30  O   UNL     1       4.987   0.847  19.618  0.00  0.00    +0.000 OA
ATOM     31  O   UNL     1       5.613   1.283  21.673  0.00  0.00    +0.000 OA
ENDBRANCH  27  29
ENDBRANCH   5  23
BRANCH   6  32
ATOM     32  O   UNL     1       1.154   6.958  20.817  0.00  0.00    +0.000 OA
ATOM     33  H   UNL     1       0.754   6.078  20.909  0.00  0.00    +0.000 HD
ENDBRANCH   6  32
BRANCH   3  34
ATOM     34  C   UNL     1       4.823   7.209  16.473  0.00  0.00    +0.000 C 
BRANCH  34  35
ATOM     35  C   UNL     1       6.264   6.923  16.874  0.00  0.00    +0.000 C 
BRANCH  35  36
ATOM     36  O   UNL     1       6.949   6.193  15.857  0.00  0.00    +0.000 OA
BRANCH  36  37
ATOM     37  P   UNL     1       6.449   4.538  15.892  0.00  0.00    +0.000 P 
ATOM     38  O   UNL     1       6.805   4.330  14.420  0.00  0.00    +0.000 OA
BRANCH  37  39
ATOM     39  O   UNL     1       7.803   4.159  16.705  0.00  0.00    +0.000 OA
ATOM     40  H   UNL     1       8.472   3.838  16.073  0.00  0.00    +0.000 HD
ENDBRANCH  37  39
BRANCH  37  41
ATOM     41  O   UNL     1       5.950   2.881  15.926  0.00  0.00    +0.000 OA
ATOM     42  H   UNL     1       6.767   2.399  15.689  0.00  0.00    +0.000 HD
ENDBRANCH  37  41
ENDBRANCH  36  37
ENDBRANCH  35  36
ENDBRANCH  34  35
ENDBRANCH   3  34
TORSDOF 11
ENDMDL
