MODEL 1
REMARK VINA RESULT:      -8.1      0.000      0.000
REMARK  Name = 
REMARK  3 active torsions:
REMARK  status: ('A' for Active; 'I' for Inactive)
REMARK    1  A    between atoms: N_11  and  C_12
REMARK    2  A    between atoms: C_14  and  C_15
REMARK    3  A    between atoms: C_15  and  O_16
REMARK                            x       y       z     vdW  Elec       q    Type
REMARK                         _______ _______ _______ _____ _____    ______ ____
ROOT
ATOM      1  O   UNL     1       7.948   6.935  18.297  0.00  0.00    +0.000 OA
ATOM      2  C   UNL     1       7.241   6.159  17.664  0.00  0.00    +0.000 A 
ATOM      3  N   UNL     1       7.397   5.963  16.307  0.00  0.00    +0.000 N 
ATOM      4  C   UNL     1       6.595   5.136  15.552  0.00  0.00    +0.000 A 
ATOM      5  F   UNL     1       6.872   5.049  14.249  0.00  0.00    +0.000 F 
ATOM      6  N   UNL     1       5.594   4.437  16.011  0.00  0.00    +0.000 NA
ATOM      7  C   UNL     1       5.423   4.587  17.344  0.00  0.00    +0.000 A 
ATOM      8  C   UNL     1       6.161   5.362  18.212  0.00  0.00    +0.000 A 
ATOM      9  N   UNL     1       5.724   5.229  19.499  0.00  0.00    +0.000 NA
ATOM     10  C   UNL     1       4.709   4.393  19.415  0.00  0.00    +0.000 A 
ATOM     11  N   UNL     1       4.446   4.021  18.117  0.00  0.00    +0.000 N 
ATOM     12  H   UNL     1       8.134   6.480  15.854  0.00  0.00    +0.000 HD
ENDROOT
BRANCH  11  13
ATOM     13  C   UNL     1       3.302   3.260  17.629  0.00  0.00    +0.000 C 
ATOM     14  S   UNL     1       1.743   4.229  17.798  0.00  0.00    +0.000 S 
ATOM     15  C   UNL     1       1.123   3.262  19.227  0.00  0.00    +0.000 C 
ATOM     16  C   UNL     1       1.956   2.013  19.220  0.00  0.00    +0.000 C 
ATOM     17  C   UNL     1       3.029   2.017  18.420  0.00  0.00    +0.000 C 
ATOM     18  F   UNL     1       3.824   0.934  18.334  0.00  0.00    +0.000 F 
BRANCH  15  19
ATOM     19  C   UNL     1       1.263   4.073  20.525  0.00  0.00    +0.000 C 
BRANCH  19  20
ATOM     20  O   UNL     1       1.837   3.280  21.562  0.00  0.00    +0.000 OA
ATOM     21  H   UNL     1       2.803   3.389  21.516  0.00  0.00    +0.000 HD
ENDBRANCH  19  20
ENDBRANCH  15  19
ENDBRANCH  11  13
TORSDOF 3
ENDMDL
MODEL 2
REMARK VINA RESULT:      -7.9      2.643      3.240
REMARK  Name = 
REMARK  3 active torsions:
REMARK  status: ('A' for Active; 'I' for Inactive)
REMARK    1  A    between atoms: N_11  and  C_12
REMARK    2  A    between atoms: C_14  and  C_15
REMARK    3  A    between atoms: C_15  and  O_16
REMARK                            x       y       z     vdW  Elec       q    Type
REMARK                         _______ _______ _______ _____ _____    ______ ____
ROOT
ATOM      1  O   UNL     1       7.229   4.743  15.526  0.00  0.00    +0.000 OA
ATOM      2  C   UNL     1       6.918   4.887  16.703  0.00  0.00    +0.000 A 
ATOM      3  N   UNL     1       7.854   5.161  17.681  0.00  0.00    +0.000 N 
ATOM      4  C   UNL     1       7.552   5.284  19.020  0.00  0.00    +0.000 A 
ATOM      5  F   UNL     1       8.567   5.553  19.846  0.00  0.00    +0.000 F 
ATOM      6  N   UNL     1       6.362   5.158  19.536  0.00  0.00    +0.000 NA
ATOM      7  C   UNL     1       5.414   4.909  18.604  0.00  0.00    +0.000 A 
ATOM      8  C   UNL     1       5.577   4.783  17.243  0.00  0.00    +0.000 A 
ATOM      9  N   UNL     1       4.383   4.577  16.611  0.00  0.00    +0.000 NA
ATOM     10  C   UNL     1       3.497   4.557  17.586  0.00  0.00    +0.000 A 
ATOM     11  N   UNL     1       4.081   4.694  18.824  0.00  0.00    +0.000 N 
ATOM     12  H   UNL     1       8.811   5.253  17.382  0.00  0.00    +0.000 HD
ENDROOT
BRANCH  11  13
ATOM     13  C   UNL     1       3.442   4.539  20.126  0.00  0.00    +0.000 C 
ATOM     14  S   UNL     1       3.071   2.767  20.474  0.00  0.00    +0.000 S 
ATOM     15  C   UNL     1       1.268   2.935  20.184  0.00  0.00    +0.000 C 
ATOM     16  C   UNL     1       1.019   4.414  20.237  0.00  0.00    +0.000 C 
ATOM     17  C   UNL     1       2.101   5.202  20.216  0.00  0.00    +0.000 C 
ATOM     18  F   UNL     1       1.975   6.541  20.279  0.00  0.00    +0.000 F 
BRANCH  15  19
ATOM     19  C   UNL     1       0.882   2.306  18.836  0.00  0.00    +0.000 C 
BRANCH  19  20
ATOM     20  O   UNL     1       1.954   1.526  18.311  0.00  0.00    +0.000 OA
ATOM     21  H   UNL     1       2.235   0.905  19.006  0.00  0.00    +0.000 HD
ENDBRANCH  19  20
ENDBRANCH  15  19
ENDBRANCH  11  13
TORSDOF 3
ENDMDL
MODEL 3
REMARK VINA RESULT:      -7.7      1.748      1.842
REMARK  Name = 
REMARK  3 active torsions:
REMARK  status: ('A' for Active; 'I' for Inactive)
REMARK    1  A    between atoms: N_11  and  C_12
REMARK    2  A    between atoms: C_14  and  C_15
REMARK    3  A    between atoms: C_15  and  O_16
REMARK                            x       y       z     vdW  Elec       q    Type
REMARK                         _______ _______ _______ _____ _____    ______ ____
ROOT
ATOM      1  O   UNL     1       8.431   4.325  17.197  0.00  0.00    +0.000 OA
ATOM      2  C   UNL     1       7.237   4.377  16.925  0.00  0.00    +0.000 A 
ATOM      3  N   UNL     1       6.779   4.361  15.622  0.00  0.00    +0.000 N 
ATOM      4  C   UNL     1       5.450   4.463  15.274  0.00  0.00    +0.000 A 
ATOM      5  F   UNL     1       5.163   4.430  13.969  0.00  0.00    +0.000 F 
ATOM      6  N   UNL     1       4.461   4.590  16.113  0.00  0.00    +0.000 NA
ATOM      7  C   UNL     1       4.869   4.589  17.402  0.00  0.00    +0.000 A 
ATOM      8  C   UNL     1       6.154   4.475  17.884  0.00  0.00    +0.000 A 
ATOM      9  N   UNL     1       6.180   4.468  19.250  0.00  0.00    +0.000 NA
ATOM     10  C   UNL     1       4.917   4.599  19.601  0.00  0.00    +0.000 A 
ATOM     11  N   UNL     1       4.085   4.738  18.514  0.00  0.00    +0.000 N 
ATOM     12  H   UNL     1       7.474   4.289  14.897  0.00  0.00    +0.000 HD
ENDROOT
BRANCH  11  13
ATOM     13  C   UNL     1       2.668   5.080  18.522  0.00  0.00    +0.000 C 
ATOM     14  S   UNL     1       2.140   5.674  20.185  0.00  0.00    +0.000 S 
ATOM     15  C   UNL     1       1.243   4.134  20.614  0.00  0.00    +0.000 C 
ATOM     16  C   UNL     1       1.066   3.428  19.300  0.00  0.00    +0.000 C 
ATOM     17  C   UNL     1       1.769   3.908  18.267  0.00  0.00    +0.000 C 
ATOM     18  F   UNL     1       1.659   3.351  17.046  0.00  0.00    +0.000 F 
BRANCH  15  19
ATOM     19  C   UNL     1       2.046   3.313  21.636  0.00  0.00    +0.000 C 
BRANCH  19  20
ATOM     20  O   UNL     1       1.191   2.447  22.379  0.00  0.00    +0.000 OA
ATOM     21  H   UNL     1       0.554   3.004  22.861  0.00  0.00    +0.000 HD
ENDBRANCH  19  20
ENDBRANCH  15  19
ENDBRANCH  11  13
TORSDOF 3
ENDMDL
MODEL 4
REMARK VINA RESULT:      -7.6      2.474      3.092
REMARK  Name = 
REMARK  3 active torsions:
REMARK  status: ('A' for Active; 'I' for Inactive)
REMARK    1  A    between atoms: N_11  and  C_12
REMARK    2  A    between atoms: C_14  and  C_15
REMARK    3  A    between atoms: C_15  and  O_16
REMARK                            x       y       z     vdW  Elec       q    Type
REMARK                         _______ _______ _______ _____ _____    ______ ____
ROOT
ATOM      1  O   UNL     1       6.949   4.856  14.405  0.00  0.00    +0.000 OA
ATOM      2  C   UNL     1       6.694   5.209  15.550  0.00  0.00    +0.000 A 
ATOM      3  N   UNL     1       7.469   6.131  16.225  0.00  0.00    +0.000 N 
ATOM      4  C   UNL     1       7.243   6.519  17.527  0.00  0.00    +0.000 A 
ATOM      5  F   UNL     1       8.080   7.424  18.042  0.00  0.00    +0.000 F 
ATOM      6  N   UNL     1       6.282   6.074  18.287  0.00  0.00    +0.000 NA
ATOM      7  C   UNL     1       5.488   5.182  17.653  0.00  0.00    +0.000 A 
ATOM      8  C   UNL     1       5.591   4.726  16.358  0.00  0.00    +0.000 A 
ATOM      9  N   UNL     1       4.580   3.861  16.048  0.00  0.00    +0.000 NA
ATOM     10  C   UNL     1       3.875   3.773  17.156  0.00  0.00    +0.000 A 
ATOM     11  N   UNL     1       4.420   4.510  18.182  0.00  0.00    +0.000 N 
ATOM     12  H   UNL     1       8.254   6.517  15.725  0.00  0.00    +0.000 HD
ENDROOT
BRANCH  11  13
ATOM     13  C   UNL     1       4.018   4.509  19.584  0.00  0.00    +0.000 C 
ATOM     14  S   UNL     1       3.449   2.836  20.107  0.00  0.00    +0.000 S 
ATOM     15  C   UNL     1       1.671   3.286  20.132  0.00  0.00    +0.000 C 
ATOM     16  C   UNL     1       1.669   4.788  20.133  0.00  0.00    +0.000 C 
ATOM     17  C   UNL     1       2.837   5.385  19.868  0.00  0.00    +0.000 C 
ATOM     18  F   UNL     1       2.934   6.728  19.865  0.00  0.00    +0.000 F 
BRANCH  15  19
ATOM     19  C   UNL     1       0.948   2.682  18.919  0.00  0.00    +0.000 C 
BRANCH  19  20
ATOM     20  O   UNL     1       1.554   1.453  18.524  0.00  0.00    +0.000 OA
ATOM     21  H   UNL     1       1.279   0.770  19.161  0.00  0.00    +0.000 HD
ENDBRANCH  19  20
ENDBRANCH  15  19
ENDBRANCH  11  13
TORSDOF 3
ENDMDL
MODEL 5
REMARK VINA RESULT:      -7.6      1.456      1.468
REMARK  Name = 
REMARK  3 active torsions:
REMARK  status: ('A' for Active; 'I' for Inactive)
REMARK    1  A    between atoms: N_11  and  C_12
REMARK    2  A    between atoms: C_14  and  C_15
REMARK    3  A    between atoms: C_15  and  O_16
REMARK                            x       y       z     vdW  Elec       q    Type
REMARK                         _______ _______ _______ _____ _____    ______ ____
ROOT
ATOM      1  O   UNL     1       7.829   7.155  16.639  0.00  0.00    +0.000 OA
ATOM      2  C   UNL     1       7.188   6.116  16.532  0.00  0.00    +0.000 A 
ATOM      3  N   UNL     1       7.122   5.413  15.345  0.00  0.00    +0.000 N 
ATOM      4  C   UNL     1       6.377   4.268  15.171  0.00  0.00    +0.000 A 
ATOM      5  F   UNL     1       6.416   3.700  13.962  0.00  0.00    +0.000 F 
ATOM      6  N   UNL     1       5.644   3.701  16.088  0.00  0.00    +0.000 NA
ATOM      7  C   UNL     1       5.701   4.351  17.273  0.00  0.00    +0.000 A 
ATOM      8  C   UNL     1       6.415   5.486  17.584  0.00  0.00    +0.000 A 
ATOM      9  N   UNL     1       6.265   5.830  18.898  0.00  0.00    +0.000 NA
ATOM     10  C   UNL     1       5.444   4.920  19.381  0.00  0.00    +0.000 A 
ATOM     11  N   UNL     1       5.023   4.032  18.418  0.00  0.00    +0.000 N 
ATOM     12  H   UNL     1       7.640   5.787  14.566  0.00  0.00    +0.000 HD
ENDROOT
BRANCH  11  13
ATOM     13  C   UNL     1       3.987   3.015  18.545  0.00  0.00    +0.000 C 
ATOM     14  S   UNL     1       2.314   3.735  18.260  0.00  0.00    +0.000 S 
ATOM     15  C   UNL     1       1.837   3.706  20.030  0.00  0.00    +0.000 C 
ATOM     16  C   UNL     1       2.829   2.775  20.667  0.00  0.00    +0.000 C 
ATOM     17  C   UNL     1       3.887   2.431  19.921  0.00  0.00    +0.000 C 
ATOM     18  F   UNL     1       4.818   1.586  20.403  0.00  0.00    +0.000 F 
BRANCH  15  19
ATOM     19  C   UNL     1       1.877   5.124  20.620  0.00  0.00    +0.000 C 
BRANCH  19  20
ATOM     20  O   UNL     1       2.201   6.084  19.616  0.00  0.00    +0.000 OA
ATOM     21  H   UNL     1       1.665   5.880  18.829  0.00  0.00    +0.000 HD
ENDBRANCH  19  20
ENDBRANCH  15  19
ENDBRANCH  11  13
TORSDOF 3
ENDMDL
MODEL 6
REMARK VINA RESULT:      -7.5      2.077      2.257
REMARK  Name = 
REMARK  3 active torsions:
REMARK  status: ('A' for Active; 'I' for Inactive)
REMARK    1  A    between atoms: N_11  and  C_12
REMARK    2  A    between atoms: C_14  and  C_15
REMARK    3  A    between atoms: C_15  and  O_16
REMARK                            x       y       z     vdW  Elec       q    Type
REMARK                         _______ _______ _______ _____ _____    ______ ____
ROOT
ATOM      1  O   UNL     1       8.040   4.504  16.814  0.00  0.00    +0.000 OA
ATOM      2  C   UNL     1       6.889   4.924  16.809  0.00  0.00    +0.000 A 
ATOM      3  N   UNL     1       6.438   5.818  15.858  0.00  0.00    +0.000 N 
ATOM      4  C   UNL     1       5.166   6.348  15.844  0.00  0.00    +0.000 A 
ATOM      5  F   UNL     1       4.878   7.200  14.857  0.00  0.00    +0.000 F 
ATOM      6  N   UNL     1       4.233   6.084  16.715  0.00  0.00    +0.000 NA
ATOM      7  C   UNL     1       4.632   5.194  17.651  0.00  0.00    +0.000 A 
ATOM      8  C   UNL     1       5.858   4.578  17.768  0.00  0.00    +0.000 A 
ATOM      9  N   UNL     1       5.883   3.702  18.816  0.00  0.00    +0.000 NA
ATOM     10  C   UNL     1       4.683   3.799  19.350  0.00  0.00    +0.000 A 
ATOM     11  N   UNL     1       3.903   4.739  18.716  0.00  0.00    +0.000 N 
ATOM     12  H   UNL     1       7.098   6.102  15.152  0.00  0.00    +0.000 HD
ENDROOT
BRANCH  11  13
ATOM     13  C   UNL     1       2.600   5.238  19.139  0.00  0.00    +0.000 C 
ATOM     14  S   UNL     1       2.356   4.999  20.950  0.00  0.00    +0.000 S 
ATOM     15  C   UNL     1       1.183   3.603  20.757  0.00  0.00    +0.000 C 
ATOM     16  C   UNL     1       0.747   3.679  19.322  0.00  0.00    +0.000 C 
ATOM     17  C   UNL     1       1.450   4.498  18.529  0.00  0.00    +0.000 C 
ATOM     18  F   UNL     1       1.119   4.645  17.232  0.00  0.00    +0.000 F 
BRANCH  15  19
ATOM     19  C   UNL     1       1.870   2.274  21.109  0.00  0.00    +0.000 C 
BRANCH  19  20
ATOM     20  O   UNL     1       2.610   2.389  22.323  0.00  0.00    +0.000 OA
ATOM     21  H   UNL     1       2.044   2.067  23.046  0.00  0.00    +0.000 HD
ENDBRANCH  19  20
ENDBRANCH  15  19
ENDBRANCH  11  13
TORSDOF 3
ENDMDL
MODEL 7
REMARK VINA RESULT:      -7.5      1.174      1.174
REMARK  Name = 
REMARK  3 active torsions:
REMARK  status: ('A' for Active; 'I' for Inactive)
REMARK    1  A    between atoms: N_11  and  C_12
REMARK    2  A    between atoms: C_14  and  C_15
REMARK    3  A    between atoms: C_15  and  O_16
REMARK                            x       y       z     vdW  Elec       q    Type
REMARK                         _______ _______ _______ _____ _____    ______ ____
ROOT
ATOM      1  O   UNL     1       7.847   6.964  18.405  0.00  0.00    +0.000 OA
ATOM      2  C   UNL     1       6.883   6.486  17.818  0.00  0.00    +0.000 A 
ATOM      3  N   UNL     1       6.412   7.009  16.631  0.00  0.00    +0.000 N 
ATOM      4  C   UNL     1       5.306   6.529  15.965  0.00  0.00    +0.000 A 
ATOM      5  F   UNL     1       4.974   7.141  14.825  0.00  0.00    +0.000 F 
ATOM      6  N   UNL     1       4.564   5.533  16.361  0.00  0.00    +0.000 NA
ATOM      7  C   UNL     1       5.008   4.980  17.512  0.00  0.00    +0.000 A 
ATOM      8  C   UNL     1       6.102   5.347  18.263  0.00  0.00    +0.000 A 
ATOM      9  N   UNL     1       6.269   4.528  19.344  0.00  0.00    +0.000 NA
ATOM     10  C   UNL     1       5.267   3.677  19.265  0.00  0.00    +0.000 A 
ATOM     11  N   UNL     1       4.435   3.947  18.203  0.00  0.00    +0.000 N 
ATOM     12  H   UNL     1       6.908   7.801  16.254  0.00  0.00    +0.000 HD
ENDROOT
BRANCH  11  13
ATOM     13  C   UNL     1       3.144   3.334  17.912  0.00  0.00    +0.000 C 
ATOM     14  S   UNL     1       1.759   4.431  18.436  0.00  0.00    +0.000 S 
ATOM     15  C   UNL     1       1.324   3.428  19.907  0.00  0.00    +0.000 C 
ATOM     16  C   UNL     1       2.003   2.109  19.672  0.00  0.00    +0.000 C 
ATOM     17  C   UNL     1       2.897   2.069  18.676  0.00  0.00    +0.000 C 
ATOM     18  F   UNL     1       3.541   0.925  18.380  0.00  0.00    +0.000 F 
BRANCH  15  19
ATOM     19  C   UNL     1       1.795   4.128  21.192  0.00  0.00    +0.000 C 
BRANCH  19  20
ATOM     20  O   UNL     1       2.565   5.288  20.886  0.00  0.00    +0.000 OA
ATOM     21  H   UNL     1       3.292   5.015  20.299  0.00  0.00    +0.000 HD
ENDBRANCH  19  20
ENDBRANCH  15  19
ENDBRANCH  11  13
TORSDOF 3
ENDMDL
MODEL 8
REMARK VINA RESULT:      -7.3      2.595      3.037
REMARK  Name = 
REMARK  3 active torsions:
REMARK  status: ('A' for Active; 'I' for Inactive)
REMARK    1  A    between atoms: N_11  and  C_12
REMARK    2  A    between atoms: C_14  and  C_15
REMARK    3  A    between atoms: C_15  and  O_16
REMARK                            x       y       z     vdW  Elec       q    Type
REMARK                         _______ _______ _______ _____ _____    ______ ____
ROOT
ATOM      1  O   UNL     1       5.562   6.656  15.147  0.00  0.00    +0.000 OA
ATOM      2  C   UNL     1       5.683   6.069  16.216  0.00  0.00    +0.000 A 
ATOM      3  N   UNL     1       6.854   5.433  16.577  0.00  0.00    +0.000 N 
ATOM      4  C   UNL     1       7.014   4.724  17.747  0.00  0.00    +0.000 A 
ATOM      5  F   UNL     1       8.209   4.165  17.956  0.00  0.00    +0.000 F 
ATOM      6  N   UNL     1       6.095   4.559  18.657  0.00  0.00    +0.000 NA
ATOM      7  C   UNL     1       4.938   5.186  18.348  0.00  0.00    +0.000 A 
ATOM      8  C   UNL     1       4.654   5.938  17.230  0.00  0.00    +0.000 A 
ATOM      9  N   UNL     1       3.391   6.457  17.281  0.00  0.00    +0.000 NA
ATOM     10  C   UNL     1       2.899   6.006  18.416  0.00  0.00    +0.000 A 
ATOM     11  N   UNL     1       3.779   5.178  19.074  0.00  0.00    +0.000 N 
ATOM     12  H   UNL     1       7.619   5.485  15.924  0.00  0.00    +0.000 HD
ENDROOT
BRANCH  11  13
ATOM     13  C   UNL     1       3.513   4.364  20.254  0.00  0.00    +0.000 C 
ATOM     14  S   UNL     1       3.469   2.572  19.826  0.00  0.00    +0.000 S 
ATOM     15  C   UNL     1       1.645   2.434  19.955  0.00  0.00    +0.000 C 
ATOM     16  C   UNL     1       1.232   3.665  20.710  0.00  0.00    +0.000 C 
ATOM     17  C   UNL     1       2.166   4.612  20.861  0.00  0.00    +0.000 C 
ATOM     18  F   UNL     1       1.892   5.742  21.541  0.00  0.00    +0.000 F 
BRANCH  15  19
ATOM     19  C   UNL     1       1.014   2.345  18.557  0.00  0.00    +0.000 C 
BRANCH  19  20
ATOM     20  O   UNL     1       1.967   2.668  17.546  0.00  0.00    +0.000 OA
ATOM     21  H   UNL     1       2.625   1.951  17.522  0.00  0.00    +0.000 HD
ENDBRANCH  19  20
ENDBRANCH  15  19
ENDBRANCH  11  13
TORSDOF 3
ENDMDL
MODEL 9
REMARK VINA RESULT:      -7.1      1.261      1.264
REMARK  Name = 
REMARK  3 active torsions:
REMARK  status: ('A' for Active; 'I' for Inactive)
REMARK    1  A    between atoms: N_11  and  C_12
REMARK    2  A    between atoms: C_14  and  C_15
REMARK    3  A    between atoms: C_15  and  O_16
REMARK                            x       y       z     vdW  Elec       q    Type
REMARK                         _______ _______ _______ _____ _____    ______ ____
ROOT
ATOM      1  O   UNL     1       7.993   5.830  17.556  0.00  0.00    +0.000 OA
ATOM      2  C   UNL     1       6.959   5.290  17.180  0.00  0.00    +0.000 A 
ATOM      3  N   UNL     1       6.773   4.888  15.872  0.00  0.00    +0.000 N 
ATOM      4  C   UNL     1       5.609   4.320  15.401  0.00  0.00    +0.000 A 
ATOM      5  F   UNL     1       5.582   3.982  14.109  0.00  0.00    +0.000 F 
ATOM      6  N   UNL     1       4.543   4.091  16.115  0.00  0.00    +0.000 NA
ATOM      7  C   UNL     1       4.695   4.453  17.409  0.00  0.00    +0.000 A 
ATOM      8  C   UNL     1       5.803   5.008  18.009  0.00  0.00    +0.000 A 
ATOM      9  N   UNL     1       5.607   5.199  19.348  0.00  0.00    +0.000 NA
ATOM     10  C   UNL     1       4.376   4.782  19.560  0.00  0.00    +0.000 A 
ATOM     11  N   UNL     1       3.756   4.374  18.401  0.00  0.00    +0.000 N 
ATOM     12  H   UNL     1       7.537   5.046  15.235  0.00  0.00    +0.000 HD
ENDROOT
BRANCH  11  13
ATOM     13  C   UNL     1       2.352   4.024  18.225  0.00  0.00    +0.000 C 
ATOM     14  S   UNL     1       1.363   4.484  19.711  0.00  0.00    +0.000 S 
ATOM     15  C   UNL     1       1.185   2.760  20.309  0.00  0.00    +0.000 C 
ATOM     16  C   UNL     1       1.545   1.916  19.120  0.00  0.00    +0.000 C 
ATOM     17  C   UNL     1       2.115   2.551  18.089  0.00  0.00    +0.000 C 
ATOM     18  F   UNL     1       2.454   1.878  16.973  0.00  0.00    +0.000 F 
BRANCH  15  19
ATOM     19  C   UNL     1       2.098   2.516  21.521  0.00  0.00    +0.000 C 
BRANCH  19  20
ATOM     20  O   UNL     1       2.353   3.733  22.220  0.00  0.00    +0.000 OA
ATOM     21  H   UNL     1       1.751   4.410  21.863  0.00  0.00    +0.000 HD
ENDBRANCH  19  20
ENDBRANCH  15  19
ENDBRANCH  11  13
TORSDOF 3
ENDMDL
