MODEL 1
REMARK VINA RESULT:      -9.8      0.000      0.000
REMARK  Name = 
REMARK  4 active torsions:
REMARK  status: ('A' for Active; 'I' for Inactive)
REMARK    1  A    between atoms: N_3  and  C_4
REMARK    2  A    between atoms: C_9  and  C_10
REMARK    3  A    between atoms: C_11  and  C_12
REMARK    4  A    between atoms: N_23  and  C_24
REMARK                            x       y       z     vdW  Elec       q    Type
REMARK                         _______ _______ _______ _____ _____    ______ ____
ROOT
ATOM      1  C   UNL     1       0.873   9.469  20.450  0.00  0.00    +0.000 A 
ATOM      2  C   UNL     1       0.304   8.487  21.291  0.00  0.00    +0.000 A 
ATOM      3  C   UNL     1      -0.396   8.826  22.448  0.00  0.00    +0.000 A 
ATOM      4  C   UNL     1      -0.561  10.160  22.784  0.00  0.00    +0.000 A 
ATOM      5  C   UNL     1      -0.027  11.146  21.958  0.00  0.00    +0.000 A 
ATOM      6  C   UNL     1       0.698  10.827  20.787  0.00  0.00    +0.000 A 
ENDROOT
BRANCH   1   9
ATOM      7  N   UNL     1       2.902   7.845  17.902  0.00  0.00    +0.000 NA
ATOM      8  C   UNL     1       2.175   7.890  18.967  0.00  0.00    +0.000 C 
ATOM      9  N   UNL     1       1.423   9.000  19.233  0.00  0.00    +0.000 N 
ATOM     10  N   UNL     1       2.053   6.845  19.827  0.00  0.00    +0.000 N 
ATOM     11  H   UNL     1       2.837   8.718  17.375  0.00  0.00    +0.000 HD
ATOM     12  H   UNL     1       1.601   9.782  18.615  0.00  0.00    +0.000 HD
ATOM     13  H   UNL     1       1.319   6.974  20.512  0.00  0.00    +0.000 HD
BRANCH  10  14
ATOM     14  C   UNL     1       2.328   5.438  19.522  0.00  0.00    +0.000 C 
ATOM     15  C   UNL     1       3.823   5.060  19.647  0.00  0.00    +0.000 C 
ATOM     16  C   UNL     1       4.026   3.555  19.378  0.00  0.00    +0.000 C 
ATOM     17  C   UNL     1       3.223   2.742  20.403  0.00  0.00    +0.000 C 
ATOM     18  C   UNL     1       1.729   3.079  20.281  0.00  0.00    +0.000 C 
ATOM     19  C   UNL     1       1.237   2.754  18.861  0.00  0.00    +0.000 C 
ATOM     20  C   UNL     1       2.033   3.571  17.830  0.00  0.00    +0.000 C 
ATOM     21  C   UNL     1       3.525   3.216  17.962  0.00  0.00    +0.000 C 
ATOM     22  C   UNL     1       1.834   5.075  18.102  0.00  0.00    +0.000 C 
ATOM     23  C   UNL     1       1.533   4.580  20.545  0.00  0.00    +0.000 C 
ENDBRANCH  10  14
ENDBRANCH   1   9
BRANCH   6  24
ATOM     24  C   UNL     1       1.077  11.933  19.882  0.00  0.00    +0.000 C 
ATOM     25  C   UNL     1       1.750  13.018  20.302  0.00  0.00    +0.000 C 
BRANCH  25  26
ATOM     26  C   UNL     1       1.939  14.263  19.537  0.00  0.00    +0.000 A 
ATOM     27  C   UNL     1       1.147  15.367  19.893  0.00  0.00    +0.000 A 
ATOM     28  F   UNL     1       0.281  15.272  20.915  0.00  0.00    +0.000 F 
ATOM     29  C   UNL     1       1.210  16.563  19.184  0.00  0.00    +0.000 A 
ATOM     30  F   UNL     1       0.416  17.586  19.530  0.00  0.00    +0.000 F 
ATOM     31  C   UNL     1       2.080  16.687  18.114  0.00  0.00    +0.000 A 
ATOM     32  F   UNL     1       2.134  17.834  17.424  0.00  0.00    +0.000 F 
ATOM     33  C   UNL     1       2.888  15.619  17.756  0.00  0.00    +0.000 A 
ATOM     34  F   UNL     1       3.725  15.737  16.717  0.00  0.00    +0.000 F 
ATOM     35  C   UNL     1       2.822  14.418  18.463  0.00  0.00    +0.000 A 
ATOM     36  F   UNL     1       3.617  13.410  18.074  0.00  0.00    +0.000 F 
ENDBRANCH  25  26
ENDBRANCH   6  24
TORSDOF 4
ENDMDL
MODEL 2
REMARK VINA RESULT:      -9.7      0.236      1.849
REMARK  Name = 
REMARK  4 active torsions:
REMARK  status: ('A' for Active; 'I' for Inactive)
REMARK    1  A    between atoms: N_3  and  C_4
REMARK    2  A    between atoms: C_9  and  C_10
REMARK    3  A    between atoms: C_11  and  C_12
REMARK    4  A    between atoms: N_23  and  C_24
REMARK                            x       y       z     vdW  Elec       q    Type
REMARK                         _______ _______ _______ _____ _____    ______ ____
ROOT
ATOM      1  C   UNL     1       0.881   9.490  20.400  0.00  0.00    +0.000 A 
ATOM      2  C   UNL     1       0.344   8.503  21.255  0.00  0.00    +0.000 A 
ATOM      3  C   UNL     1      -0.370   8.835  22.406  0.00  0.00    +0.000 A 
ATOM      4  C   UNL     1      -0.581  10.168  22.720  0.00  0.00    +0.000 A 
ATOM      5  C   UNL     1      -0.080  11.159  21.879  0.00  0.00    +0.000 A 
ATOM      6  C   UNL     1       0.658  10.847  20.714  0.00  0.00    +0.000 A 
ENDROOT
BRANCH   1   9
ATOM      7  N   UNL     1       2.945   7.861  17.884  0.00  0.00    +0.000 NA
ATOM      8  C   UNL     1       2.200   7.907  18.936  0.00  0.00    +0.000 C 
ATOM      9  N   UNL     1       1.449   9.021  19.191  0.00  0.00    +0.000 N 
ATOM     10  N   UNL     1       2.057   6.861  19.791  0.00  0.00    +0.000 N 
ATOM     11  H   UNL     1       2.895   8.735  17.358  0.00  0.00    +0.000 HD
ATOM     12  H   UNL     1       1.643   9.803  18.579  0.00  0.00    +0.000 HD
ATOM     13  H   UNL     1       1.312   6.993  20.464  0.00  0.00    +0.000 HD
BRANCH  10  14
ATOM     14  C   UNL     1       2.330   5.453  19.488  0.00  0.00    +0.000 C 
ATOM     15  C   UNL     1       3.821   5.068  19.635  0.00  0.00    +0.000 C 
ATOM     16  C   UNL     1       4.020   3.562  19.366  0.00  0.00    +0.000 C 
ATOM     17  C   UNL     1       3.197   2.751  20.377  0.00  0.00    +0.000 C 
ATOM     18  C   UNL     1       1.707   3.096  20.232  0.00  0.00    +0.000 C 
ATOM     19  C   UNL     1       1.235   2.777  18.804  0.00  0.00    +0.000 C 
ATOM     20  C   UNL     1       2.052   3.592  17.788  0.00  0.00    +0.000 C 
ATOM     21  C   UNL     1       3.540   3.229  17.942  0.00  0.00    +0.000 C 
ATOM     22  C   UNL     1       1.856   5.095  18.060  0.00  0.00    +0.000 C 
ATOM     23  C   UNL     1       1.514   4.597  20.497  0.00  0.00    +0.000 C 
ENDBRANCH  10  14
ENDBRANCH   1   9
BRANCH   6  24
ATOM     24  C   UNL     1       1.001  11.950  19.792  0.00  0.00    +0.000 C 
ATOM     25  C   UNL     1       1.572  13.093  20.207  0.00  0.00    +0.000 C 
BRANCH  25  26
ATOM     26  C   UNL     1       1.710  14.326  19.413  0.00  0.00    +0.000 A 
ATOM     27  C   UNL     1       2.757  14.380  18.478  0.00  0.00    +0.000 A 
ATOM     28  F   UNL     1       3.567  13.320  18.314  0.00  0.00    +0.000 F 
ATOM     29  C   UNL     1       3.004  15.527  17.730  0.00  0.00    +0.000 A 
ATOM     30  F   UNL     1       4.033  15.554  16.871  0.00  0.00    +0.000 F 
ATOM     31  C   UNL     1       2.199  16.642  17.889  0.00  0.00    +0.000 A 
ATOM     32  F   UNL     1       2.443  17.751  17.179  0.00  0.00    +0.000 F 
ATOM     33  C   UNL     1       1.146  16.608  18.790  0.00  0.00    +0.000 A 
ATOM     34  F   UNL     1       0.370  17.689  18.948  0.00  0.00    +0.000 F 
ATOM     35  C   UNL     1       0.900  15.460  19.544  0.00  0.00    +0.000 A 
ATOM     36  F   UNL     1      -0.125  15.477  20.408  0.00  0.00    +0.000 F 
ENDBRANCH  25  26
ENDBRANCH   6  24
TORSDOF 4
ENDMDL
MODEL 3
REMARK VINA RESULT:      -9.7      3.979      5.026
REMARK  Name = 
REMARK  4 active torsions:
REMARK  status: ('A' for Active; 'I' for Inactive)
REMARK    1  A    between atoms: N_3  and  C_4
REMARK    2  A    between atoms: C_9  and  C_10
REMARK    3  A    between atoms: C_11  and  C_12
REMARK    4  A    between atoms: N_23  and  C_24
REMARK                            x       y       z     vdW  Elec       q    Type
REMARK                         _______ _______ _______ _____ _____    ______ ____
ROOT
ATOM      1  C   UNL     1       1.005   9.427  20.530  0.00  0.00    +0.000 A 
ATOM      2  C   UNL     1       1.562   8.865  21.701  0.00  0.00    +0.000 A 
ATOM      3  C   UNL     1       1.035   9.127  22.965  0.00  0.00    +0.000 A 
ATOM      4  C   UNL     1      -0.075   9.945  23.089  0.00  0.00    +0.000 A 
ATOM      5  C   UNL     1      -0.655  10.493  21.946  0.00  0.00    +0.000 A 
ATOM      6  C   UNL     1      -0.131  10.253  20.655  0.00  0.00    +0.000 A 
ENDROOT
BRANCH   1   9
ATOM      7  N   UNL     1       2.969   7.770  17.954  0.00  0.00    +0.000 NA
ATOM      8  C   UNL     1       2.240   7.823  19.016  0.00  0.00    +0.000 C 
ATOM      9  N   UNL     1       1.538   8.960  19.305  0.00  0.00    +0.000 N 
ATOM     10  N   UNL     1       2.068   6.766  19.853  0.00  0.00    +0.000 N 
ATOM     11  H   UNL     1       2.946   8.656  17.446  0.00  0.00    +0.000 HD
ATOM     12  H   UNL     1       1.754   9.747  18.705  0.00  0.00    +0.000 HD
ATOM     13  H   UNL     1       1.338   6.913  20.538  0.00  0.00    +0.000 HD
BRANCH  10  14
ATOM     14  C   UNL     1       2.281   5.355  19.517  0.00  0.00    +0.000 C 
ATOM     15  C   UNL     1       3.753   4.901  19.665  0.00  0.00    +0.000 C 
ATOM     16  C   UNL     1       3.887   3.395  19.361  0.00  0.00    +0.000 C 
ATOM     17  C   UNL     1       3.022   2.598  20.347  0.00  0.00    +0.000 C 
ATOM     18  C   UNL     1       1.550   3.011  20.201  0.00  0.00    +0.000 C 
ATOM     19  C   UNL     1       1.075   2.747  18.763  0.00  0.00    +0.000 C 
ATOM     20  C   UNL     1       1.934   3.549  17.771  0.00  0.00    +0.000 C 
ATOM     21  C   UNL     1       3.403   3.117  17.926  0.00  0.00    +0.000 C 
ATOM     22  C   UNL     1       1.803   5.053  18.078  0.00  0.00    +0.000 C 
ATOM     23  C   UNL     1       1.421   4.513  20.500  0.00  0.00    +0.000 C 
ENDBRANCH  10  14
ENDBRANCH   1   9
BRANCH   6  24
ATOM     24  C   UNL     1      -0.908  10.729  19.491  0.00  0.00    +0.000 C 
ATOM     25  C   UNL     1      -2.088  10.194  19.136  0.00  0.00    +0.000 C 
BRANCH  25  26
ATOM     26  C   UNL     1      -2.792  10.429  17.864  0.00  0.00    +0.000 A 
ATOM     27  C   UNL     1      -2.239   9.863  16.703  0.00  0.00    +0.000 A 
ATOM     28  F   UNL     1      -1.126   9.114  16.785  0.00  0.00    +0.000 F 
ATOM     29  C   UNL     1      -2.798  10.087  15.449  0.00  0.00    +0.000 A 
ATOM     30  F   UNL     1      -2.225   9.558  14.359  0.00  0.00    +0.000 F 
ATOM     31  C   UNL     1      -3.935  10.868  15.329  0.00  0.00    +0.000 A 
ATOM     32  F   UNL     1      -4.468  11.095  14.121  0.00  0.00    +0.000 F 
ATOM     33  C   UNL     1      -4.513  11.421  16.461  0.00  0.00    +0.000 A 
ATOM     34  F   UNL     1      -5.609  12.183  16.344  0.00  0.00    +0.000 F 
ATOM     35  C   UNL     1      -3.950  11.201  17.719  0.00  0.00    +0.000 A 
ATOM     36  F   UNL     1      -4.540  11.763  18.784  0.00  0.00    +0.000 F 
ENDBRANCH  25  26
ENDBRANCH   6  24
TORSDOF 4
ENDMDL
MODEL 4
REMARK VINA RESULT:      -9.7      3.942      4.659
REMARK  Name = 
REMARK  4 active torsions:
REMARK  status: ('A' for Active; 'I' for Inactive)
REMARK    1  A    between atoms: N_3  and  C_4
REMARK    2  A    between atoms: C_9  and  C_10
REMARK    3  A    between atoms: C_11  and  C_12
REMARK    4  A    between atoms: N_23  and  C_24
REMARK                            x       y       z     vdW  Elec       q    Type
REMARK                         _______ _______ _______ _____ _____    ______ ____
ROOT
ATOM      1  C   UNL     1       0.934   9.465  20.727  0.00  0.00    +0.000 A 
ATOM      2  C   UNL     1       1.465   8.893  21.904  0.00  0.00    +0.000 A 
ATOM      3  C   UNL     1       0.905   9.135  23.158  0.00  0.00    +0.000 A 
ATOM      4  C   UNL     1      -0.216   9.943  23.263  0.00  0.00    +0.000 A 
ATOM      5  C   UNL     1      -0.770  10.500  22.113  0.00  0.00    +0.000 A 
ATOM      6  C   UNL     1      -0.212  10.280  20.833  0.00  0.00    +0.000 A 
ENDROOT
BRANCH   1   9
ATOM      7  N   UNL     1       2.969   7.846  18.182  0.00  0.00    +0.000 NA
ATOM      8  C   UNL     1       2.209   7.884  19.223  0.00  0.00    +0.000 C 
ATOM      9  N   UNL     1       1.502   9.018  19.510  0.00  0.00    +0.000 N 
ATOM     10  N   UNL     1       2.009   6.813  20.035  0.00  0.00    +0.000 N 
ATOM     11  H   UNL     1       2.964   8.741  17.689  0.00  0.00    +0.000 HD
ATOM     12  H   UNL     1       1.738   9.814  18.931  0.00  0.00    +0.000 HD
ATOM     13  H   UNL     1       1.259   6.951  20.701  0.00  0.00    +0.000 HD
BRANCH  10  14
ATOM     14  C   UNL     1       2.227   5.407  19.682  0.00  0.00    +0.000 C 
ATOM     15  C   UNL     1       3.696   4.950  19.846  0.00  0.00    +0.000 C 
ATOM     16  C   UNL     1       3.836   3.449  19.521  0.00  0.00    +0.000 C 
ATOM     17  C   UNL     1       2.954   2.637  20.480  0.00  0.00    +0.000 C 
ATOM     18  C   UNL     1       1.485   3.053  20.317  0.00  0.00    +0.000 C 
ATOM     19  C   UNL     1       1.034   2.811  18.867  0.00  0.00    +0.000 C 
ATOM     20  C   UNL     1       1.909   3.628  17.902  0.00  0.00    +0.000 C 
ATOM     21  C   UNL     1       3.375   3.193  18.074  0.00  0.00    +0.000 C 
ATOM     22  C   UNL     1       1.772   5.127  18.230  0.00  0.00    +0.000 C 
ATOM     23  C   UNL     1       1.351   4.549  20.637  0.00  0.00    +0.000 C 
ENDBRANCH  10  14
ENDBRANCH   1   9
BRANCH   6  24
ATOM     24  C   UNL     1      -0.963  10.765  19.655  0.00  0.00    +0.000 C 
ATOM     25  C   UNL     1      -1.952  10.059  19.083  0.00  0.00    +0.000 C 
BRANCH  25  26
ATOM     26  C   UNL     1      -2.569  10.342  17.776  0.00  0.00    +0.000 A 
ATOM     27  C   UNL     1      -3.729  11.135  17.766  0.00  0.00    +0.000 A 
ATOM     28  F   UNL     1      -4.216  11.628  18.916  0.00  0.00    +0.000 F 
ATOM     29  C   UNL     1      -4.416  11.400  16.585  0.00  0.00    +0.000 A 
ATOM     30  F   UNL     1      -5.538  12.133  16.617  0.00  0.00    +0.000 F 
ATOM     31  C   UNL     1      -3.949  10.891  15.385  0.00  0.00    +0.000 A 
ATOM     32  F   UNL     1      -4.617  11.135  14.250  0.00  0.00    +0.000 F 
ATOM     33  C   UNL     1      -2.795  10.123  15.365  0.00  0.00    +0.000 A 
ATOM     34  F   UNL     1      -2.348   9.626  14.204  0.00  0.00    +0.000 F 
ATOM     35  C   UNL     1      -2.108   9.853  16.548  0.00  0.00    +0.000 A 
ATOM     36  F   UNL     1      -1.001   9.099  16.480  0.00  0.00    +0.000 F 
ENDBRANCH  25  26
ENDBRANCH   6  24
TORSDOF 4
ENDMDL
MODEL 5
REMARK VINA RESULT:      -9.7      3.970      4.841
REMARK  Name = 
REMARK  4 active torsions:
REMARK  status: ('A' for Active; 'I' for Inactive)
REMARK    1  A    between atoms: N_3  and  C_4
REMARK    2  A    between atoms: C_9  and  C_10
REMARK    3  A    between atoms: C_11  and  C_12
REMARK    4  A    between atoms: N_23  and  C_24
REMARK                            x       y       z     vdW  Elec       q    Type
REMARK                         _______ _______ _______ _____ _____    ______ ____
ROOT
ATOM      1  C   UNL     1       1.068   9.342  20.638  0.00  0.00    +0.000 A 
ATOM      2  C   UNL     1       1.525   8.795  21.857  0.00  0.00    +0.000 A 
ATOM      3  C   UNL     1       0.914   9.097  23.074  0.00  0.00    +0.000 A 
ATOM      4  C   UNL     1      -0.183   9.942  23.099  0.00  0.00    +0.000 A 
ATOM      5  C   UNL     1      -0.665  10.476  21.906  0.00  0.00    +0.000 A 
ATOM      6  C   UNL     1      -0.054  10.195  20.662  0.00  0.00    +0.000 A 
ENDROOT
BRANCH   1   9
ATOM      7  N   UNL     1       3.120   7.524  18.245  0.00  0.00    +0.000 NA
ATOM      8  C   UNL     1       2.293   7.639  19.228  0.00  0.00    +0.000 C 
ATOM      9  N   UNL     1       1.678   8.836  19.465  0.00  0.00    +0.000 N 
ATOM     10  N   UNL     1       1.933   6.596  20.022  0.00  0.00    +0.000 N 
ATOM     11  H   UNL     1       3.236   8.412  17.755  0.00  0.00    +0.000 HD
ATOM     12  H   UNL     1       2.031   9.603  18.906  0.00  0.00    +0.000 HD
ATOM     13  H   UNL     1       1.153   6.808  20.632  0.00  0.00    +0.000 HD
BRANCH  10  14
ATOM     14  C   UNL     1       2.042   5.174  19.683  0.00  0.00    +0.000 C 
ATOM     15  C   UNL     1       1.723   4.867  18.201  0.00  0.00    +0.000 C 
ATOM     16  C   UNL     1       1.922   3.366  17.905  0.00  0.00    +0.000 C 
ATOM     17  C   UNL     1       3.381   2.981  18.187  0.00  0.00    +0.000 C 
ATOM     18  C   UNL     1       3.715   3.252  19.662  0.00  0.00    +0.000 C 
ATOM     19  C   UNL     1       2.778   2.434  20.567  0.00  0.00    +0.000 C 
ATOM     20  C   UNL     1       1.316   2.822  20.292  0.00  0.00    +0.000 C 
ATOM     21  C   UNL     1       0.996   2.537  18.814  0.00  0.00    +0.000 C 
ATOM     22  C   UNL     1       1.119   4.321  20.584  0.00  0.00    +0.000 C 
ATOM     23  C   UNL     1       3.511   4.746  19.954  0.00  0.00    +0.000 C 
ENDBRANCH  10  14
ENDBRANCH   1   9
BRANCH   6  24
ATOM     24  C   UNL     1      -0.733  10.662  19.434  0.00  0.00    +0.000 C 
ATOM     25  C   UNL     1      -1.956  10.238  19.074  0.00  0.00    +0.000 C 
BRANCH  25  26
ATOM     26  C   UNL     1      -2.589  10.449  17.760  0.00  0.00    +0.000 A 
ATOM     27  C   UNL     1      -3.765  11.216  17.724  0.00  0.00    +0.000 A 
ATOM     28  F   UNL     1      -4.253  11.752  18.855  0.00  0.00    +0.000 F 
ATOM     29  C   UNL     1      -4.467  11.412  16.539  0.00  0.00    +0.000 A 
ATOM     30  F   UNL     1      -5.603  12.123  16.546  0.00  0.00    +0.000 F 
ATOM     31  C   UNL     1      -3.999  10.858  15.359  0.00  0.00    +0.000 A 
ATOM     32  F   UNL     1      -4.680  11.036  14.220  0.00  0.00    +0.000 F 
ATOM     33  C   UNL     1      -2.830  10.114  15.364  0.00  0.00    +0.000 A 
ATOM     34  F   UNL     1      -2.381   9.573  14.223  0.00  0.00    +0.000 F 
ATOM     35  C   UNL     1      -2.127   9.913  16.552  0.00  0.00    +0.000 A 
ATOM     36  F   UNL     1      -1.005   9.179  16.509  0.00  0.00    +0.000 F 
ENDBRANCH  25  26
ENDBRANCH   6  24
TORSDOF 4
ENDMDL
MODEL 6
REMARK VINA RESULT:      -9.6      3.752      9.077
REMARK  Name = 
REMARK  4 active torsions:
REMARK  status: ('A' for Active; 'I' for Inactive)
REMARK    1  A    between atoms: N_3  and  C_4
REMARK    2  A    between atoms: C_9  and  C_10
REMARK    3  A    between atoms: C_11  and  C_12
REMARK    4  A    between atoms: N_23  and  C_24
REMARK                            x       y       z     vdW  Elec       q    Type
REMARK                         _______ _______ _______ _____ _____    ______ ____
ROOT
ATOM      1  C   UNL     1      -0.169  10.494  20.599  0.00  0.00    +0.000 A 
ATOM      2  C   UNL     1      -0.811  11.160  21.666  0.00  0.00    +0.000 A 
ATOM      3  C   UNL     1      -0.746  10.685  22.976  0.00  0.00    +0.000 A 
ATOM      4  C   UNL     1      -0.020   9.538  23.253  0.00  0.00    +0.000 A 
ATOM      5  C   UNL     1       0.639   8.876  22.220  0.00  0.00    +0.000 A 
ATOM      6  C   UNL     1       0.578   9.331  20.883  0.00  0.00    +0.000 A 
ENDROOT
BRANCH   1   9
ATOM      7  N   UNL     1      -0.247  12.979  17.942  0.00  0.00    +0.000 NA
ATOM      8  C   UNL     1       0.208  12.428  19.015  0.00  0.00    +0.000 C 
ATOM      9  N   UNL     1      -0.186  11.163  19.352  0.00  0.00    +0.000 N 
ATOM     10  N   UNL     1       1.134  13.016  19.818  0.00  0.00    +0.000 N 
ATOM     11  H   UNL     1      -0.910  12.366  17.465  0.00  0.00    +0.000 HD
ATOM     12  H   UNL     1      -0.932  10.792  18.776  0.00  0.00    +0.000 HD
ATOM     13  H   UNL     1       1.512  12.390  20.518  0.00  0.00    +0.000 HD
BRANCH  10  14
ATOM     14  C   UNL     1       2.055  14.089  19.432  0.00  0.00    +0.000 C 
ATOM     15  C   UNL     1       1.340  15.390  18.999  0.00  0.00    +0.000 C 
ATOM     16  C   UNL     1       2.369  16.491  18.673  0.00  0.00    +0.000 C 
ATOM     17  C   UNL     1       3.215  16.783  19.921  0.00  0.00    +0.000 C 
ATOM     18  C   UNL     1       3.958  15.511  20.356  0.00  0.00    +0.000 C 
ATOM     19  C   UNL     1       4.867  15.023  19.215  0.00  0.00    +0.000 C 
ATOM     20  C   UNL     1       4.024  14.723  17.965  0.00  0.00    +0.000 C 
ATOM     21  C   UNL     1       3.293  16.009  17.539  0.00  0.00    +0.000 C 
ATOM     22  C   UNL     1       2.993  13.627  18.292  0.00  0.00    +0.000 C 
ATOM     23  C   UNL     1       2.929  14.416  20.675  0.00  0.00    +0.000 C 
ENDBRANCH  10  14
ENDBRANCH   1   9
BRANCH   6  24
ATOM     24  C   UNL     1       1.445   8.672  19.884  0.00  0.00    +0.000 C 
ATOM     25  C   UNL     1       1.747   7.364  19.934  0.00  0.00    +0.000 C 
BRANCH  25  26
ATOM     26  C   UNL     1       2.792   6.690  19.144  0.00  0.00    +0.000 A 
ATOM     27  C   UNL     1       3.344   5.511  19.672  0.00  0.00    +0.000 A 
ATOM     28  F   UNL     1       2.894   5.023  20.841  0.00  0.00    +0.000 F 
ATOM     29  C   UNL     1       4.381   4.843  19.029  0.00  0.00    +0.000 A 
ATOM     30  F   UNL     1       4.906   3.739  19.578  0.00  0.00    +0.000 F 
ATOM     31  C   UNL     1       4.878   5.331  17.832  0.00  0.00    +0.000 A 
ATOM     32  F   UNL     1       5.885   4.695  17.217  0.00  0.00    +0.000 F 
ATOM     33  C   UNL     1       4.337   6.480  17.278  0.00  0.00    +0.000 A 
ATOM     34  F   UNL     1       4.823   6.955  16.123  0.00  0.00    +0.000 F 
ATOM     35  C   UNL     1       3.300   7.153  17.925  0.00  0.00    +0.000 A 
ATOM     36  F   UNL     1       2.814   8.266  17.355  0.00  0.00    +0.000 F 
ENDBRANCH  25  26
ENDBRANCH   6  24
TORSDOF 4
ENDMDL
MODEL 7
REMARK VINA RESULT:      -9.6      0.193      1.300
REMARK  Name = 
REMARK  4 active torsions:
REMARK  status: ('A' for Active; 'I' for Inactive)
REMARK    1  A    between atoms: N_3  and  C_4
REMARK    2  A    between atoms: C_9  and  C_10
REMARK    3  A    between atoms: C_11  and  C_12
REMARK    4  A    between atoms: N_23  and  C_24
REMARK                            x       y       z     vdW  Elec       q    Type
REMARK                         _______ _______ _______ _____ _____    ______ ____
ROOT
ATOM      1  C   UNL     1       0.886   9.428  20.412  0.00  0.00    +0.000 A 
ATOM      2  C   UNL     1       0.302   8.443  21.239  0.00  0.00    +0.000 A 
ATOM      3  C   UNL     1      -0.409   8.776  22.392  0.00  0.00    +0.000 A 
ATOM      4  C   UNL     1      -0.569  10.108  22.736  0.00  0.00    +0.000 A 
ATOM      5  C   UNL     1      -0.021  11.098  21.923  0.00  0.00    +0.000 A 
ATOM      6  C   UNL     1       0.715  10.784  20.757  0.00  0.00    +0.000 A 
ENDROOT
BRANCH   1   9
ATOM      7  N   UNL     1       2.950   7.837  17.872  0.00  0.00    +0.000 NA
ATOM      8  C   UNL     1       2.223   7.871  18.936  0.00  0.00    +0.000 C 
ATOM      9  N   UNL     1       1.445   8.964  19.197  0.00  0.00    +0.000 N 
ATOM     10  N   UNL     1       2.126   6.828  19.802  0.00  0.00    +0.000 N 
ATOM     11  H   UNL     1       2.866   8.705  17.341  0.00  0.00    +0.000 HD
ATOM     12  H   UNL     1       1.606   9.747  18.575  0.00  0.00    +0.000 HD
ATOM     13  H   UNL     1       1.389   6.944  20.487  0.00  0.00    +0.000 HD
BRANCH  10  14
ATOM     14  C   UNL     1       2.433   5.426  19.505  0.00  0.00    +0.000 C 
ATOM     15  C   UNL     1       1.768   4.428  20.483  0.00  0.00    +0.000 C 
ATOM     16  C   UNL     1       2.081   2.976  20.070  0.00  0.00    +0.000 C 
ATOM     17  C   UNL     1       1.539   2.720  18.656  0.00  0.00    +0.000 C 
ATOM     18  C   UNL     1       2.204   3.682  17.661  0.00  0.00    +0.000 C 
ATOM     19  C   UNL     1       3.728   3.475  17.677  0.00  0.00    +0.000 C 
ATOM     20  C   UNL     1       4.278   3.736  19.088  0.00  0.00    +0.000 C 
ATOM     21  C   UNL     1       3.606   2.760  20.071  0.00  0.00    +0.000 C 
ATOM     22  C   UNL     1       3.961   5.186  19.503  0.00  0.00    +0.000 C 
ATOM     23  C   UNL     1       1.894   5.127  18.079  0.00  0.00    +0.000 C 
ENDBRANCH  10  14
ENDBRANCH   1   9
BRANCH   6  24
ATOM     24  C   UNL     1       1.109  11.895  19.865  0.00  0.00    +0.000 C 
ATOM     25  C   UNL     1       1.709  13.010  20.314  0.00  0.00    +0.000 C 
BRANCH  25  26
ATOM     26  C   UNL     1       1.900  14.254  19.548  0.00  0.00    +0.000 A 
ATOM     27  C   UNL     1       1.108  15.359  19.900  0.00  0.00    +0.000 A 
ATOM     28  F   UNL     1       0.241  15.266  20.922  0.00  0.00    +0.000 F 
ATOM     29  C   UNL     1       1.172  16.554  19.190  0.00  0.00    +0.000 A 
ATOM     30  F   UNL     1       0.379  17.578  19.534  0.00  0.00    +0.000 F 
ATOM     31  C   UNL     1       2.043  16.675  18.120  0.00  0.00    +0.000 A 
ATOM     32  F   UNL     1       2.098  17.821  17.428  0.00  0.00    +0.000 F 
ATOM     33  C   UNL     1       2.851  15.606  17.765  0.00  0.00    +0.000 A 
ATOM     34  F   UNL     1       3.689  15.722  16.726  0.00  0.00    +0.000 F 
ATOM     35  C   UNL     1       2.784  14.406  18.473  0.00  0.00    +0.000 A 
ATOM     36  F   UNL     1       3.578  13.397  18.088  0.00  0.00    +0.000 F 
ENDBRANCH  25  26
ENDBRANCH   6  24
TORSDOF 4
ENDMDL
MODEL 8
REMARK VINA RESULT:      -9.6      0.121      1.294
REMARK  Name = 
REMARK  4 active torsions:
REMARK  status: ('A' for Active; 'I' for Inactive)
REMARK    1  A    between atoms: N_3  and  C_4
REMARK    2  A    between atoms: C_9  and  C_10
REMARK    3  A    between atoms: C_11  and  C_12
REMARK    4  A    between atoms: N_23  and  C_24
REMARK                            x       y       z     vdW  Elec       q    Type
REMARK                         _______ _______ _______ _____ _____    ______ ____
ROOT
ATOM      1  C   UNL     1       0.894   9.451  20.435  0.00  0.00    +0.000 A 
ATOM      2  C   UNL     1       0.255   8.482  21.242  0.00  0.00    +0.000 A 
ATOM      3  C   UNL     1      -0.465   8.834  22.383  0.00  0.00    +0.000 A 
ATOM      4  C   UNL     1      -0.578  10.168  22.738  0.00  0.00    +0.000 A 
ATOM      5  C   UNL     1       0.026  11.142  21.946  0.00  0.00    +0.000 A 
ATOM      6  C   UNL     1       0.771  10.810  20.791  0.00  0.00    +0.000 A 
ENDROOT
BRANCH   1   9
ATOM      7  N   UNL     1       2.927   7.783  17.921  0.00  0.00    +0.000 NA
ATOM      8  C   UNL     1       2.173   7.841  18.965  0.00  0.00    +0.000 C 
ATOM      9  N   UNL     1       1.458   8.976  19.227  0.00  0.00    +0.000 N 
ATOM     10  N   UNL     1       1.987   6.791  19.806  0.00  0.00    +0.000 N 
ATOM     11  H   UNL     1       2.912   8.664  17.405  0.00  0.00    +0.000 HD
ATOM     12  H   UNL     1       1.684   9.759  18.626  0.00  0.00    +0.000 HD
ATOM     13  H   UNL     1       1.240   6.940  20.473  0.00  0.00    +0.000 HD
BRANCH  10  14
ATOM     14  C   UNL     1       2.215   5.378  19.489  0.00  0.00    +0.000 C 
ATOM     15  C   UNL     1       1.862   5.009  18.028  0.00  0.00    +0.000 C 
ATOM     16  C   UNL     1       2.190   3.528  17.750  0.00  0.00    +0.000 C 
ATOM     17  C   UNL     1       3.689   3.287  17.973  0.00  0.00    +0.000 C 
ATOM     18  C   UNL     1       4.060   3.621  19.426  0.00  0.00    +0.000 C 
ATOM     19  C   UNL     1       3.245   2.739  20.387  0.00  0.00    +0.000 C 
ATOM     20  C   UNL     1       1.742   2.981  20.172  0.00  0.00    +0.000 C 
ATOM     21  C   UNL     1       1.387   2.636  18.715  0.00  0.00    +0.000 C 
ATOM     22  C   UNL     1       1.417   4.462  20.446  0.00  0.00    +0.000 C 
ATOM     23  C   UNL     1       3.729   5.096  19.700  0.00  0.00    +0.000 C 
ENDBRANCH  10  14
ENDBRANCH   1   9
BRANCH   6  24
ATOM     24  C   UNL     1       1.228  11.912  19.918  0.00  0.00    +0.000 C 
ATOM     25  C   UNL     1       1.607  13.108  20.396  0.00  0.00    +0.000 C 
BRANCH  25  26
ATOM     26  C   UNL     1       1.827  14.326  19.596  0.00  0.00    +0.000 A 
ATOM     27  C   UNL     1       1.048  15.453  19.906  0.00  0.00    +0.000 A 
ATOM     28  F   UNL     1       0.167  15.403  20.919  0.00  0.00    +0.000 F 
ATOM     29  C   UNL     1       1.139  16.625  19.162  0.00  0.00    +0.000 A 
ATOM     30  F   UNL     1       0.356  17.670  19.465  0.00  0.00    +0.000 F 
ATOM     31  C   UNL     1       2.025  16.701  18.100  0.00  0.00    +0.000 A 
ATOM     32  F   UNL     1       2.105  17.825  17.375  0.00  0.00    +0.000 F 
ATOM     33  C   UNL     1       2.820  15.611  17.787  0.00  0.00    +0.000 A 
ATOM     34  F   UNL     1       3.673  15.683  16.755  0.00  0.00    +0.000 F 
ATOM     35  C   UNL     1       2.726  14.433  18.529  0.00  0.00    +0.000 A 
ATOM     36  F   UNL     1       3.510  13.401  18.184  0.00  0.00    +0.000 F 
ENDBRANCH  25  26
ENDBRANCH   6  24
TORSDOF 4
ENDMDL
MODEL 9
REMARK VINA RESULT:      -9.6      0.284      2.255
REMARK  Name = 
REMARK  4 active torsions:
REMARK  status: ('A' for Active; 'I' for Inactive)
REMARK    1  A    between atoms: N_3  and  C_4
REMARK    2  A    between atoms: C_9  and  C_10
REMARK    3  A    between atoms: C_11  and  C_12
REMARK    4  A    between atoms: N_23  and  C_24
REMARK                            x       y       z     vdW  Elec       q    Type
REMARK                         _______ _______ _______ _____ _____    ______ ____
ROOT
ATOM      1  C   UNL     1       0.905   9.460  20.406  0.00  0.00    +0.000 A 
ATOM      2  C   UNL     1       0.369   8.481  21.271  0.00  0.00    +0.000 A 
ATOM      3  C   UNL     1      -0.351   8.825  22.415  0.00  0.00    +0.000 A 
ATOM      4  C   UNL     1      -0.567  10.160  22.713  0.00  0.00    +0.000 A 
ATOM      5  C   UNL     1      -0.065  11.143  21.862  0.00  0.00    +0.000 A 
ATOM      6  C   UNL     1       0.678  10.819  20.704  0.00  0.00    +0.000 A 
ENDROOT
BRANCH   1   9
ATOM      7  N   UNL     1       2.955   7.772  17.918  0.00  0.00    +0.000 NA
ATOM      8  C   UNL     1       2.192   7.839  18.954  0.00  0.00    +0.000 C 
ATOM      9  N   UNL     1       1.479   8.978  19.205  0.00  0.00    +0.000 N 
ATOM     10  N   UNL     1       1.992   6.792  19.798  0.00  0.00    +0.000 N 
ATOM     11  H   UNL     1       2.949   8.651  17.398  0.00  0.00    +0.000 HD
ATOM     12  H   UNL     1       1.715   9.757  18.603  0.00  0.00    +0.000 HD
ATOM     13  H   UNL     1       1.239   6.948  20.457  0.00  0.00    +0.000 HD
BRANCH  10  14
ATOM     14  C   UNL     1       2.216   5.377  19.488  0.00  0.00    +0.000 C 
ATOM     15  C   UNL     1       1.863   5.001  18.030  0.00  0.00    +0.000 C 
ATOM     16  C   UNL     1       2.187   3.517  17.760  0.00  0.00    +0.000 C 
ATOM     17  C   UNL     1       3.686   3.274  17.985  0.00  0.00    +0.000 C 
ATOM     18  C   UNL     1       4.057   3.615  19.435  0.00  0.00    +0.000 C 
ATOM     19  C   UNL     1       3.240   2.741  20.401  0.00  0.00    +0.000 C 
ATOM     20  C   UNL     1       1.737   2.986  20.185  0.00  0.00    +0.000 C 
ATOM     21  C   UNL     1       1.381   2.633  18.730  0.00  0.00    +0.000 C 
ATOM     22  C   UNL     1       1.416   4.469  20.450  0.00  0.00    +0.000 C 
ATOM     23  C   UNL     1       3.729   5.092  19.701  0.00  0.00    +0.000 C 
ENDBRANCH  10  14
ENDBRANCH   1   9
BRANCH   6  24
ATOM     24  C   UNL     1       1.021  11.913  19.771  0.00  0.00    +0.000 C 
ATOM     25  C   UNL     1       1.603  13.056  20.172  0.00  0.00    +0.000 C 
BRANCH  25  26
ATOM     26  C   UNL     1       1.743  14.281  19.367  0.00  0.00    +0.000 A 
ATOM     27  C   UNL     1       2.813  14.340  18.458  0.00  0.00    +0.000 A 
ATOM     28  F   UNL     1       3.642  13.291  18.328  0.00  0.00    +0.000 F 
ATOM     29  C   UNL     1       3.063  15.482  17.704  0.00  0.00    +0.000 A 
ATOM     30  F   UNL     1       4.112  15.515  16.871  0.00  0.00    +0.000 F 
ATOM     31  C   UNL     1       2.237  16.586  17.829  0.00  0.00    +0.000 A 
ATOM     32  F   UNL     1       2.483  17.691  17.112  0.00  0.00    +0.000 F 
ATOM     33  C   UNL     1       1.161  16.547  18.703  0.00  0.00    +0.000 A 
ATOM     34  F   UNL     1       0.366  17.618  18.828  0.00  0.00    +0.000 F 
ATOM     35  C   UNL     1       0.913  15.404  19.463  0.00  0.00    +0.000 A 
ATOM     36  F   UNL     1      -0.134  15.415  20.301  0.00  0.00    +0.000 F 
ENDBRANCH  25  26
ENDBRANCH   6  24
TORSDOF 4
ENDMDL
