MODEL 1
REMARK VINA RESULT:      -9.1      0.000      0.000
REMARK  Name = 
REMARK  6 active torsions:
REMARK  status: ('A' for Active; 'I' for Inactive)
REMARK    1  A    between atoms: C_2  and  C_4
REMARK    2  A    between atoms: C_4  and  N_5
REMARK    3  A    between atoms: C_10  and  C_11
REMARK    4  A    between atoms: C_11  and  N_12
REMARK    5  A    between atoms: C_16  and  N_17
REMARK    6  A    between atoms: N_17  and  C_18
REMARK                            x       y       z     vdW  Elec       q    Type
REMARK                         _______ _______ _______ _____ _____    ______ ____
ROOT
ATOM      1  N   UNL     1       2.245   3.823  20.340  0.00  0.00    +0.000 NA
ATOM      2  C   UNL     1       0.995   3.683  19.595  0.00  0.00    +0.000 C 
ATOM      3  C   UNL     1       1.000   2.459  18.693  0.00  0.00    +0.000 C 
ATOM      4  C   UNL     1       2.171   2.502  17.726  0.00  0.00    +0.000 C 
ATOM      5  C   UNL     1       3.512   2.612  18.469  0.00  0.00    +0.000 C 
ATOM      6  C   UNL     1       3.452   3.775  19.503  0.00  0.00    +0.000 C 
ENDROOT
BRANCH   5   7
ATOM      7  N   UNL     1       4.615   2.875  17.514  0.00  0.00    +0.000 N 
ATOM      8  H   UNL     1       4.428   2.505  16.584  0.00  0.00    +0.000 HD
BRANCH   7   9
ATOM      9  C   UNL     1       5.163   4.164  17.433  0.00  0.00    +0.000 A 
ATOM     10  C   UNL     1       4.630   5.086  16.513  0.00  0.00    +0.000 A 
ATOM     11  C   UNL     1       5.162   6.373  16.339  0.00  0.00    +0.000 A 
ATOM     12  C   UNL     1       6.268   6.708  17.115  0.00  0.00    +0.000 A 
ATOM     13  N   UNL     1       7.022   7.850  17.217  0.00  0.00    +0.000 N 
ATOM     14  N   UNL     1       8.030   7.772  18.106  0.00  0.00    +0.000 NA
ATOM     15  C   UNL     1       7.921   6.532  18.589  0.00  0.00    +0.000 A 
ATOM     16  C   UNL     1       6.846   5.822  18.012  0.00  0.00    +0.000 A 
ATOM     17  C   UNL     1       6.303   4.543  18.153  0.00  0.00    +0.000 A 
ATOM     18  H   UNL     1       6.896   8.716  16.712  0.00  0.00    +0.000 HD
ENDBRANCH   7   9
ENDBRANCH   5   7
BRANCH   1  19
ATOM     19  C   UNL     1       2.219   4.978  21.255  0.00  0.00    +0.000 C 
BRANCH  19  25
ATOM     20  N   UNL     1       1.208   9.978  18.773  0.00  0.00    +0.000 N 
ATOM     21  C   UNL     1       1.940   9.844  17.623  0.00  0.00    +0.000 A 
ATOM     22  C   UNL     1       2.581   8.626  17.675  0.00  0.00    +0.000 A 
ATOM     23  C   UNL     1       2.186   7.982  18.876  0.00  0.00    +0.000 A 
ATOM     24  C   UNL     1       2.482   6.727  19.447  0.00  0.00    +0.000 A 
ATOM     25  C   UNL     1       1.891   6.339  20.656  0.00  0.00    +0.000 A 
ATOM     26  C   UNL     1       1.005   7.223  21.296  0.00  0.00    +0.000 A 
ATOM     27  C   UNL     1       0.702   8.481  20.753  0.00  0.00    +0.000 A 
ATOM     28  C   UNL     1       1.309   8.836  19.543  0.00  0.00    +0.000 A 
BRANCH  20  29
ATOM     29  C   UNL     1       0.408  11.149  19.116  0.00  0.00    +0.000 C 
BRANCH  29  31
ATOM     30  N   UNL     1      -1.224  12.539  17.864  0.00  0.00    +0.000 N 
ATOM     31  C   UNL     1      -0.866  11.299  18.310  0.00  0.00    +0.000 C 
ATOM     32  O   UNL     1      -1.587  10.335  18.055  0.00  0.00    +0.000 OA
ATOM     33  H   UNL     1      -2.052  12.615  17.292  0.00  0.00    +0.000 HD
ATOM     34  H   UNL     1      -0.594  13.334  17.890  0.00  0.00    +0.000 HD
ENDBRANCH  29  31
ENDBRANCH  20  29
ENDBRANCH  19  25
ENDBRANCH   1  19
TORSDOF 6
ENDMDL
MODEL 2
REMARK VINA RESULT:      -9.0      1.144      1.224
REMARK  Name = 
REMARK  6 active torsions:
REMARK  status: ('A' for Active; 'I' for Inactive)
REMARK    1  A    between atoms: C_2  and  C_4
REMARK    2  A    between atoms: C_4  and  N_5
REMARK    3  A    between atoms: C_10  and  C_11
REMARK    4  A    between atoms: C_11  and  N_12
REMARK    5  A    between atoms: C_16  and  N_17
REMARK    6  A    between atoms: N_17  and  C_18
REMARK                            x       y       z     vdW  Elec       q    Type
REMARK                         _______ _______ _______ _____ _____    ______ ____
ROOT
ATOM      1  N   UNL     1       2.293   3.725  20.299  0.00  0.00    +0.000 NA
ATOM      2  C   UNL     1       1.050   3.617  19.537  0.00  0.00    +0.000 C 
ATOM      3  C   UNL     1       1.054   2.420  18.601  0.00  0.00    +0.000 C 
ATOM      4  C   UNL     1       2.236   2.479  17.648  0.00  0.00    +0.000 C 
ATOM      5  C   UNL     1       3.570   2.556  18.408  0.00  0.00    +0.000 C 
ATOM      6  C   UNL     1       3.508   3.690  19.474  0.00  0.00    +0.000 C 
ENDROOT
BRANCH   5   7
ATOM      7  N   UNL     1       4.686   2.836  17.473  0.00  0.00    +0.000 N 
ATOM      8  H   UNL     1       4.526   2.454  16.543  0.00  0.00    +0.000 HD
BRANCH   7   9
ATOM      9  C   UNL     1       5.206   4.137  17.391  0.00  0.00    +0.000 A 
ATOM     10  C   UNL     1       4.656   5.045  16.469  0.00  0.00    +0.000 A 
ATOM     11  C   UNL     1       5.161   6.344  16.295  0.00  0.00    +0.000 A 
ATOM     12  C   UNL     1       6.257   6.703  17.074  0.00  0.00    +0.000 A 
ATOM     13  N   UNL     1       6.986   7.861  17.175  0.00  0.00    +0.000 N 
ATOM     14  N   UNL     1       7.993   7.806  18.067  0.00  0.00    +0.000 NA
ATOM     15  C   UNL     1       7.910   6.564  18.553  0.00  0.00    +0.000 A 
ATOM     16  C   UNL     1       6.852   5.831  17.973  0.00  0.00    +0.000 A 
ATOM     17  C   UNL     1       6.335   4.541  18.114  0.00  0.00    +0.000 A 
ATOM     18  H   UNL     1       6.843   8.724  16.669  0.00  0.00    +0.000 HD
ENDBRANCH   7   9
ENDBRANCH   5   7
BRANCH   1  19
ATOM     19  C   UNL     1       2.267   4.854  21.247  0.00  0.00    +0.000 C 
BRANCH  19  25
ATOM     20  N   UNL     1       1.270   9.918  18.892  0.00  0.00    +0.000 N 
ATOM     21  C   UNL     1       1.941   9.783  17.705  0.00  0.00    +0.000 A 
ATOM     22  C   UNL     1       2.551   8.549  17.708  0.00  0.00    +0.000 A 
ATOM     23  C   UNL     1       2.198   7.896  18.917  0.00  0.00    +0.000 A 
ATOM     24  C   UNL     1       2.488   6.624  19.454  0.00  0.00    +0.000 A 
ATOM     25  C   UNL     1       1.946   6.233  20.684  0.00  0.00    +0.000 A 
ATOM     26  C   UNL     1       1.117   7.128  21.380  0.00  0.00    +0.000 A 
ATOM     27  C   UNL     1       0.820   8.403  20.872  0.00  0.00    +0.000 A 
ATOM     28  C   UNL     1       1.378   8.762  19.639  0.00  0.00    +0.000 A 
BRANCH  20  29
ATOM     29  C   UNL     1       0.519  11.104  19.292  0.00  0.00    +0.000 C 
BRANCH  29  31
ATOM     30  N   UNL     1       2.122  12.989  19.482  0.00  0.00    +0.000 N 
ATOM     31  C   UNL     1       1.307  12.099  20.119  0.00  0.00    +0.000 C 
ATOM     32  O   UNL     1       1.236  12.117  21.348  0.00  0.00    +0.000 OA
ATOM     33  H   UNL     1       2.606  13.674  20.045  0.00  0.00    +0.000 HD
ATOM     34  H   UNL     1       2.093  13.140  18.479  0.00  0.00    +0.000 HD
ENDBRANCH  29  31
ENDBRANCH  20  29
ENDBRANCH  19  25
ENDBRANCH   1  19
TORSDOF 6
ENDMDL
MODEL 3
REMARK VINA RESULT:      -8.5      3.845      6.708
REMARK  Name = 
REMARK  6 active torsions:
REMARK  status: ('A' for Active; 'I' for Inactive)
REMARK    1  A    between atoms: C_2  and  C_4
REMARK    2  A    between atoms: C_4  and  N_5
REMARK    3  A    between atoms: C_10  and  C_11
REMARK    4  A    between atoms: C_11  and  N_12
REMARK    5  A    between atoms: C_16  and  N_17
REMARK    6  A    between atoms: N_17  and  C_18
REMARK                            x       y       z     vdW  Elec       q    Type
REMARK                         _______ _______ _______ _____ _____    ______ ____
ROOT
ATOM      1  N   UNL     1       0.497  10.304  20.204  0.00  0.00    +0.000 NA
ATOM      2  C   UNL     1       1.158  10.786  18.992  0.00  0.00    +0.000 C 
ATOM      3  C   UNL     1       1.320   9.689  17.954  0.00  0.00    +0.000 C 
ATOM      4  C   UNL     1       2.091   8.510  18.524  0.00  0.00    +0.000 C 
ATOM      5  C   UNL     1       1.410   7.947  19.781  0.00  0.00    +0.000 C 
ATOM      6  C   UNL     1       1.107   9.100  20.783  0.00  0.00    +0.000 C 
ENDROOT
BRANCH   5   7
ATOM      7  N   UNL     1       2.285   6.951  20.445  0.00  0.00    +0.000 N 
ATOM      8  H   UNL     1       2.258   7.018  21.461  0.00  0.00    +0.000 HD
BRANCH   7   9
ATOM      9  C   UNL     1       2.238   5.610  20.035  0.00  0.00    +0.000 A 
ATOM     10  C   UNL     1       1.264   4.754  20.582  0.00  0.00    +0.000 A 
ATOM     11  C   UNL     1       1.191   3.390  20.260  0.00  0.00    +0.000 A 
ATOM     12  C   UNL     1       2.146   2.900  19.372  0.00  0.00    +0.000 A 
ATOM     13  N   UNL     1       2.367   1.656  18.837  0.00  0.00    +0.000 N 
ATOM     14  N   UNL     1       3.417   1.592  17.997  0.00  0.00    +0.000 NA
ATOM     15  C   UNL     1       3.890   2.842  17.997  0.00  0.00    +0.000 A 
ATOM     16  C   UNL     1       3.143   3.699  18.832  0.00  0.00    +0.000 A 
ATOM     17  C   UNL     1       3.197   5.050  19.183  0.00  0.00    +0.000 A 
ATOM     18  H   UNL     1       1.834   0.813  19.001  0.00  0.00    +0.000 HD
ENDBRANCH   7   9
ENDBRANCH   5   7
BRANCH   1  19
ATOM     19  C   UNL     1       0.291  11.382  21.189  0.00  0.00    +0.000 C 
BRANCH  19  25
ATOM     20  N   UNL     1      -4.992  13.001  22.471  0.00  0.00    +0.000 N 
ATOM     21  C   UNL     1      -4.953  12.938  23.839  0.00  0.00    +0.000 A 
ATOM     22  C   UNL     1      -3.710  12.469  24.200  0.00  0.00    +0.000 A 
ATOM     23  C   UNL     1      -2.955  12.288  23.012  0.00  0.00    +0.000 A 
ATOM     24  C   UNL     1      -1.633  11.870  22.756  0.00  0.00    +0.000 A 
ATOM     25  C   UNL     1      -1.141  11.832  21.446  0.00  0.00    +0.000 A 
ATOM     26  C   UNL     1      -1.988  12.206  20.389  0.00  0.00    +0.000 A 
ATOM     27  C   UNL     1      -3.311  12.617  20.616  0.00  0.00    +0.000 A 
ATOM     28  C   UNL     1      -3.769  12.644  21.938  0.00  0.00    +0.000 A 
BRANCH  20  29
ATOM     29  C   UNL     1      -6.154  13.419  21.692  0.00  0.00    +0.000 C 
BRANCH  29  31
ATOM     30  N   UNL     1      -7.310  12.303  19.800  0.00  0.00    +0.000 N 
ATOM     31  C   UNL     1      -6.973  12.279  21.123  0.00  0.00    +0.000 C 
ATOM     32  O   UNL     1      -7.348  11.340  21.824  0.00  0.00    +0.000 OA
ATOM     33  H   UNL     1      -7.819  11.514  19.427  0.00  0.00    +0.000 HD
ATOM     34  H   UNL     1      -6.891  12.949  19.139  0.00  0.00    +0.000 HD
ENDBRANCH  29  31
ENDBRANCH  20  29
ENDBRANCH  19  25
ENDBRANCH   1  19
TORSDOF 6
ENDMDL
MODEL 4
REMARK VINA RESULT:      -8.3      3.002      5.325
REMARK  Name = 
REMARK  6 active torsions:
REMARK  status: ('A' for Active; 'I' for Inactive)
REMARK    1  A    between atoms: C_2  and  C_4
REMARK    2  A    between atoms: C_4  and  N_5
REMARK    3  A    between atoms: C_10  and  C_11
REMARK    4  A    between atoms: C_11  and  N_12
REMARK    5  A    between atoms: C_16  and  N_17
REMARK    6  A    between atoms: N_17  and  C_18
REMARK                            x       y       z     vdW  Elec       q    Type
REMARK                         _______ _______ _______ _____ _____    ______ ____
ROOT
ATOM      1  N   UNL     1       1.243   9.951  19.410  0.00  0.00    +0.000 NA
ATOM      2  C   UNL     1       0.332   9.510  20.464  0.00  0.00    +0.000 C 
ATOM      3  C   UNL     1       0.924   8.388  21.301  0.00  0.00    +0.000 C 
ATOM      4  C   UNL     1       1.311   7.205  20.429  0.00  0.00    +0.000 C 
ATOM      5  C   UNL     1       2.299   7.616  19.327  0.00  0.00    +0.000 C 
ATOM      6  C   UNL     1       1.758   8.863  18.567  0.00  0.00    +0.000 C 
ENDROOT
BRANCH   5   7
ATOM      7  N   UNL     1       2.490   6.509  18.360  0.00  0.00    +0.000 N 
ATOM      8  H   UNL     1       2.108   6.720  17.439  0.00  0.00    +0.000 HD
BRANCH   7   9
ATOM      9  C   UNL     1       3.750   5.903  18.246  0.00  0.00    +0.000 A 
ATOM     10  C   UNL     1       4.377   5.391  19.397  0.00  0.00    +0.000 A 
ATOM     11  C   UNL     1       5.659   4.820  19.368  0.00  0.00    +0.000 A 
ATOM     12  C   UNL     1       6.308   4.791  18.136  0.00  0.00    +0.000 A 
ATOM     13  N   UNL     1       7.531   4.312  17.740  0.00  0.00    +0.000 N 
ATOM     14  N   UNL     1       7.794   4.477  16.430  0.00  0.00    +0.000 NA
ATOM     15  C   UNL     1       6.700   5.089  15.969  0.00  0.00    +0.000 A 
ATOM     16  C   UNL     1       5.742   5.312  16.982  0.00  0.00    +0.000 A 
ATOM     17  C   UNL     1       4.470   5.885  17.046  0.00  0.00    +0.000 A 
ATOM     18  H   UNL     1       8.228   3.858  18.314  0.00  0.00    +0.000 HD
ENDBRANCH   7   9
ENDBRANCH   5   7
BRANCH   1  19
ATOM     19  C   UNL     1       0.690  11.076  18.633  0.00  0.00    +0.000 C 
BRANCH  19  25
ATOM     20  N   UNL     1      -4.909  11.949  18.882  0.00  0.00    +0.000 N 
ATOM     21  C   UNL     1      -5.335  11.167  17.842  0.00  0.00    +0.000 A 
ATOM     22  C   UNL     1      -4.220  10.628  17.240  0.00  0.00    +0.000 A 
ATOM     23  C   UNL     1      -3.084  11.061  17.971  0.00  0.00    +0.000 A 
ATOM     24  C   UNL     1      -1.701  10.812  17.853  0.00  0.00    +0.000 A 
ATOM     25  C   UNL     1      -0.800  11.359  18.775  0.00  0.00    +0.000 A 
ATOM     26  C   UNL     1      -1.292  12.166  19.813  0.00  0.00    +0.000 A 
ATOM     27  C   UNL     1      -2.663  12.436  19.948  0.00  0.00    +0.000 A 
ATOM     28  C   UNL     1      -3.536  11.874  19.010  0.00  0.00    +0.000 A 
BRANCH  20  29
ATOM     29  C   UNL     1      -5.788  12.724  19.753  0.00  0.00    +0.000 C 
BRANCH  29  31
ATOM     30  N   UNL     1      -5.850  12.468  22.222  0.00  0.00    +0.000 N 
ATOM     31  C   UNL     1      -6.239  11.994  21.002  0.00  0.00    +0.000 C 
ATOM     32  O   UNL     1      -6.938  10.983  20.942  0.00  0.00    +0.000 OA
ATOM     33  H   UNL     1      -6.196  11.996  23.045  0.00  0.00    +0.000 HD
ATOM     34  H   UNL     1      -5.427  13.382  22.345  0.00  0.00    +0.000 HD
ENDBRANCH  29  31
ENDBRANCH  20  29
ENDBRANCH  19  25
ENDBRANCH   1  19
TORSDOF 6
ENDMDL
MODEL 5
REMARK VINA RESULT:      -8.3      2.708      3.610
REMARK  Name = 
REMARK  6 active torsions:
REMARK  status: ('A' for Active; 'I' for Inactive)
REMARK    1  A    between atoms: C_2  and  C_4
REMARK    2  A    between atoms: C_4  and  N_5
REMARK    3  A    between atoms: C_10  and  C_11
REMARK    4  A    between atoms: C_11  and  N_12
REMARK    5  A    between atoms: C_16  and  N_17
REMARK    6  A    between atoms: N_17  and  C_18
REMARK                            x       y       z     vdW  Elec       q    Type
REMARK                         _______ _______ _______ _____ _____    ______ ____
ROOT
ATOM      1  N   UNL     1       2.457   6.274  19.003  0.00  0.00    +0.000 NA
ATOM      2  C   UNL     1       1.483   5.456  18.282  0.00  0.00    +0.000 C 
ATOM      3  C   UNL     1       1.481   4.013  18.760  0.00  0.00    +0.000 C 
ATOM      4  C   UNL     1       2.864   3.396  18.632  0.00  0.00    +0.000 C 
ATOM      5  C   UNL     1       3.916   4.205  19.407  0.00  0.00    +0.000 C 
ATOM      6  C   UNL     1       3.814   5.711  19.026  0.00  0.00    +0.000 C 
ENDROOT
BRANCH   5   7
ATOM      7  N   UNL     1       5.281   3.721  19.091  0.00  0.00    +0.000 N 
ATOM      8  H   UNL     1       5.372   2.711  19.183  0.00  0.00    +0.000 HD
BRANCH   7   9
ATOM      9  C   UNL     1       5.919   4.172  17.926  0.00  0.00    +0.000 A 
ATOM     10  C   UNL     1       6.837   5.235  18.007  0.00  0.00    +0.000 A 
ATOM     11  C   UNL     1       7.471   5.774  16.877  0.00  0.00    +0.000 A 
ATOM     12  C   UNL     1       7.142   5.216  15.644  0.00  0.00    +0.000 A 
ATOM     13  N   UNL     1       7.563   5.475  14.364  0.00  0.00    +0.000 N 
ATOM     14  N   UNL     1       6.992   4.697  13.425  0.00  0.00    +0.000 NA
ATOM     15  C   UNL     1       6.172   3.913  14.129  0.00  0.00    +0.000 A 
ATOM     16  C   UNL     1       6.220   4.188  15.512  0.00  0.00    +0.000 A 
ATOM     17  C   UNL     1       5.595   3.683  16.655  0.00  0.00    +0.000 A 
ATOM     18  H   UNL     1       8.240   6.164  14.067  0.00  0.00    +0.000 HD
ENDBRANCH   7   9
ENDBRANCH   5   7
BRANCH   1  19
ATOM     19  C   UNL     1       2.420   7.685  18.577  0.00  0.00    +0.000 C 
BRANCH  19  25
ATOM     20  N   UNL     1      -0.633  11.053  21.971  0.00  0.00    +0.000 N 
ATOM     21  C   UNL     1      -0.642  10.313  23.123  0.00  0.00    +0.000 A 
ATOM     22  C   UNL     1       0.021   9.133  22.867  0.00  0.00    +0.000 A 
ATOM     23  C   UNL     1       0.488   9.183  21.528  0.00  0.00    +0.000 A 
ATOM     24  C   UNL     1       1.245   8.299  20.730  0.00  0.00    +0.000 A 
ATOM     25  C   UNL     1       1.599   8.650  19.422  0.00  0.00    +0.000 A 
ATOM     26  C   UNL     1       1.183   9.891  18.913  0.00  0.00    +0.000 A 
ATOM     27  C   UNL     1       0.421  10.785  19.683  0.00  0.00    +0.000 A 
ATOM     28  C   UNL     1       0.085  10.402  20.987  0.00  0.00    +0.000 A 
BRANCH  20  29
ATOM     29  C   UNL     1      -1.265  12.360  21.818  0.00  0.00    +0.000 C 
BRANCH  29  31
ATOM     30  N   UNL     1      -1.226  14.123  23.566  0.00  0.00    +0.000 N 
ATOM     31  C   UNL     1      -0.567  13.486  22.554  0.00  0.00    +0.000 C 
ATOM     32  O   UNL     1       0.572  13.844  22.257  0.00  0.00    +0.000 OA
ATOM     33  H   UNL     1      -0.731  14.841  24.074  0.00  0.00    +0.000 HD
ATOM     34  H   UNL     1      -2.086  13.766  23.969  0.00  0.00    +0.000 HD
ENDBRANCH  29  31
ENDBRANCH  20  29
ENDBRANCH  19  25
ENDBRANCH   1  19
TORSDOF 6
ENDMDL
MODEL 6
REMARK VINA RESULT:      -8.2      2.993      5.299
REMARK  Name = 
REMARK  6 active torsions:
REMARK  status: ('A' for Active; 'I' for Inactive)
REMARK    1  A    between atoms: C_2  and  C_4
REMARK    2  A    between atoms: C_4  and  N_5
REMARK    3  A    between atoms: C_10  and  C_11
REMARK    4  A    between atoms: C_11  and  N_12
REMARK    5  A    between atoms: C_16  and  N_17
REMARK    6  A    between atoms: N_17  and  C_18
REMARK                            x       y       z     vdW  Elec       q    Type
REMARK                         _______ _______ _______ _____ _____    ______ ____
ROOT
ATOM      1  N   UNL     1       1.261   9.593  19.250  0.00  0.00    +0.000 NA
ATOM      2  C   UNL     1       0.458   9.567  20.472  0.00  0.00    +0.000 C 
ATOM      3  C   UNL     1       1.110   8.739  21.568  0.00  0.00    +0.000 C 
ATOM      4  C   UNL     1       1.370   7.319  21.094  0.00  0.00    +0.000 C 
ATOM      5  C   UNL     1       2.243   7.297  19.830  0.00  0.00    +0.000 C 
ATOM      6  C   UNL     1       1.654   8.264  18.762  0.00  0.00    +0.000 C 
ENDROOT
BRANCH   5   7
ATOM      7  N   UNL     1       2.300   5.929  19.261  0.00  0.00    +0.000 N 
ATOM      8  H   UNL     1       1.480   5.700  18.703  0.00  0.00    +0.000 HD
BRANCH   7   9
ATOM      9  C   UNL     1       3.471   5.498  18.620  0.00  0.00    +0.000 A 
ATOM     10  C   UNL     1       3.374   4.749  17.433  0.00  0.00    +0.000 A 
ATOM     11  C   UNL     1       4.500   4.240  16.767  0.00  0.00    +0.000 A 
ATOM     12  C   UNL     1       5.742   4.495  17.343  0.00  0.00    +0.000 A 
ATOM     13  N   UNL     1       7.023   4.170  16.973  0.00  0.00    +0.000 N 
ATOM     14  N   UNL     1       7.973   4.613  17.818  0.00  0.00    +0.000 NA
ATOM     15  C   UNL     1       7.274   5.242  18.767  0.00  0.00    +0.000 A 
ATOM     16  C   UNL     1       5.884   5.201  18.528  0.00  0.00    +0.000 A 
ATOM     17  C   UNL     1       4.743   5.684  19.174  0.00  0.00    +0.000 A 
ATOM     18  H   UNL     1       7.314   3.654  16.155  0.00  0.00    +0.000 HD
ENDBRANCH   7   9
ENDBRANCH   5   7
BRANCH   1  19
ATOM     19  C   UNL     1       0.655  10.440  18.207  0.00  0.00    +0.000 C 
BRANCH  19  25
ATOM     20  N   UNL     1      -4.858  11.646  18.785  0.00  0.00    +0.000 N 
ATOM     21  C   UNL     1      -4.798  12.695  19.663  0.00  0.00    +0.000 A 
ATOM     22  C   UNL     1      -3.477  12.883  20.000  0.00  0.00    +0.000 A 
ATOM     23  C   UNL     1      -2.706  11.946  19.264  0.00  0.00    +0.000 A 
ATOM     24  C   UNL     1      -1.323  11.688  19.169  0.00  0.00    +0.000 A 
ATOM     25  C   UNL     1      -0.843  10.701  18.299  0.00  0.00    +0.000 A 
ATOM     26  C   UNL     1      -1.759   9.966  17.530  0.00  0.00    +0.000 A 
ATOM     27  C   UNL     1      -3.142  10.197  17.614  0.00  0.00    +0.000 A 
ATOM     28  C   UNL     1      -3.587  11.191  18.492  0.00  0.00    +0.000 A 
BRANCH  20  29
ATOM     29  C   UNL     1      -6.089  11.110  18.214  0.00  0.00    +0.000 C 
BRANCH  29  31
ATOM     30  N   UNL     1      -7.214   9.099  19.139  0.00  0.00    +0.000 N 
ATOM     31  C   UNL     1      -7.012  10.447  19.217  0.00  0.00    +0.000 C 
ATOM     32  O   UNL     1      -7.587  11.094  20.092  0.00  0.00    +0.000 OA
ATOM     33  H   UNL     1      -7.797   8.667  19.841  0.00  0.00    +0.000 HD
ATOM     34  H   UNL     1      -6.643   8.492  18.560  0.00  0.00    +0.000 HD
ENDBRANCH  29  31
ENDBRANCH  20  29
ENDBRANCH  19  25
ENDBRANCH   1  19
TORSDOF 6
ENDMDL
MODEL 7
REMARK VINA RESULT:      -8.2      2.709      3.439
REMARK  Name = 
REMARK  6 active torsions:
REMARK  status: ('A' for Active; 'I' for Inactive)
REMARK    1  A    between atoms: C_2  and  C_4
REMARK    2  A    between atoms: C_4  and  N_5
REMARK    3  A    between atoms: C_10  and  C_11
REMARK    4  A    between atoms: C_11  and  N_12
REMARK    5  A    between atoms: C_16  and  N_17
REMARK    6  A    between atoms: N_17  and  C_18
REMARK                            x       y       z     vdW  Elec       q    Type
REMARK                         _______ _______ _______ _____ _____    ______ ____
ROOT
ATOM      1  N   UNL     1       2.501   6.084  19.071  0.00  0.00    +0.000 NA
ATOM      2  C   UNL     1       1.525   5.268  18.349  0.00  0.00    +0.000 C 
ATOM      3  C   UNL     1       1.559   3.814  18.787  0.00  0.00    +0.000 C 
ATOM      4  C   UNL     1       2.949   3.225  18.611  0.00  0.00    +0.000 C 
ATOM      5  C   UNL     1       4.004   4.031  19.385  0.00  0.00    +0.000 C 
ATOM      6  C   UNL     1       3.868   5.544  19.048  0.00  0.00    +0.000 C 
ENDROOT
BRANCH   5   7
ATOM      7  N   UNL     1       5.370   3.579  19.025  0.00  0.00    +0.000 N 
ATOM      8  H   UNL     1       5.480   2.569  19.088  0.00  0.00    +0.000 HD
BRANCH   7   9
ATOM      9  C   UNL     1       5.973   4.071  17.858  0.00  0.00    +0.000 A 
ATOM     10  C   UNL     1       6.838   5.178  17.939  0.00  0.00    +0.000 A 
ATOM     11  C   UNL     1       7.433   5.757  16.807  0.00  0.00    +0.000 A 
ATOM     12  C   UNL     1       7.118   5.194  15.573  0.00  0.00    +0.000 A 
ATOM     13  N   UNL     1       7.512   5.485  14.291  0.00  0.00    +0.000 N 
ATOM     14  N   UNL     1       6.971   4.688  13.351  0.00  0.00    +0.000 NA
ATOM     15  C   UNL     1       6.198   3.858  14.056  0.00  0.00    +0.000 A 
ATOM     16  C   UNL     1       6.247   4.123  15.441  0.00  0.00    +0.000 A 
ATOM     17  C   UNL     1       5.660   3.578  16.585  0.00  0.00    +0.000 A 
ATOM     18  H   UNL     1       8.151   6.209  13.994  0.00  0.00    +0.000 HD
ENDBRANCH   7   9
ENDBRANCH   5   7
BRANCH   1  19
ATOM     19  C   UNL     1       2.431   7.505  18.684  0.00  0.00    +0.000 C 
BRANCH  19  25
ATOM     20  N   UNL     1      -0.845  11.109  21.593  0.00  0.00    +0.000 N 
ATOM     21  C   UNL     1      -1.222  11.970  20.597  0.00  0.00    +0.000 A 
ATOM     22  C   UNL     1      -0.588  11.576  19.441  0.00  0.00    +0.000 A 
ATOM     23  C   UNL     1       0.161  10.407  19.737  0.00  0.00    +0.000 A 
ATOM     24  C   UNL     1       0.972   9.552  18.962  0.00  0.00    +0.000 A 
ATOM     25  C   UNL     1       1.562   8.420  19.538  0.00  0.00    +0.000 A 
ATOM     26  C   UNL     1       1.344   8.155  20.900  0.00  0.00    +0.000 A 
ATOM     27  C   UNL     1       0.549   8.996  21.694  0.00  0.00    +0.000 A 
ATOM     28  C   UNL     1      -0.026  10.118  21.087  0.00  0.00    +0.000 A 
BRANCH  20  29
ATOM     29  C   UNL     1      -1.276  11.207  22.984  0.00  0.00    +0.000 C 
BRANCH  29  31
ATOM     30  N   UNL     1      -1.915  13.533  23.573  0.00  0.00    +0.000 N 
ATOM     31  C   UNL     1      -2.322  12.271  23.245  0.00  0.00    +0.000 C 
ATOM     32  O   UNL     1      -3.526  12.025  23.177  0.00  0.00    +0.000 OA
ATOM     33  H   UNL     1      -2.623  14.241  23.700  0.00  0.00    +0.000 HD
ATOM     34  H   UNL     1      -0.953  13.840  23.476  0.00  0.00    +0.000 HD
ENDBRANCH  29  31
ENDBRANCH  20  29
ENDBRANCH  19  25
ENDBRANCH   1  19
TORSDOF 6
ENDMDL
MODEL 8
REMARK VINA RESULT:      -8.2      1.958      4.889
REMARK  Name = 
REMARK  6 active torsions:
REMARK  status: ('A' for Active; 'I' for Inactive)
REMARK    1  A    between atoms: C_2  and  C_4
REMARK    2  A    between atoms: C_4  and  N_5
REMARK    3  A    between atoms: C_10  and  C_11
REMARK    4  A    between atoms: C_11  and  N_12
REMARK    5  A    between atoms: C_16  and  N_17
REMARK    6  A    between atoms: N_17  and  C_18
REMARK                            x       y       z     vdW  Elec       q    Type
REMARK                         _______ _______ _______ _____ _____    ______ ____
ROOT
ATOM      1  N   UNL     1       5.139   6.530  16.479  0.00  0.00    +0.000 NA
ATOM      2  C   UNL     1       6.041   6.870  17.578  0.00  0.00    +0.000 C 
ATOM      3  C   UNL     1       7.148   5.843  17.749  0.00  0.00    +0.000 C 
ATOM      4  C   UNL     1       6.572   4.454  17.970  0.00  0.00    +0.000 C 
ATOM      5  C   UNL     1       5.643   4.039  16.818  0.00  0.00    +0.000 C 
ATOM      6  C   UNL     1       4.602   5.163  16.545  0.00  0.00    +0.000 C 
ENDROOT
BRANCH   5   7
ATOM      7  N   UNL     1       4.923   2.788  17.156  0.00  0.00    +0.000 N 
ATOM      8  H   UNL     1       5.550   2.033  17.425  0.00  0.00    +0.000 HD
BRANCH   7   9
ATOM      9  C   UNL     1       3.815   2.842  18.015  0.00  0.00    +0.000 A 
ATOM     10  C   UNL     1       2.553   3.186  17.497  0.00  0.00    +0.000 A 
ATOM     11  C   UNL     1       1.413   3.313  18.306  0.00  0.00    +0.000 A 
ATOM     12  C   UNL     1       1.581   3.095  19.670  0.00  0.00    +0.000 A 
ATOM     13  N   UNL     1       0.711   3.121  20.731  0.00  0.00    +0.000 N 
ATOM     14  N   UNL     1       1.278   2.848  21.921  0.00  0.00    +0.000 NA
ATOM     15  C   UNL     1       2.561   2.644  21.613  0.00  0.00    +0.000 A 
ATOM     16  C   UNL     1       2.812   2.785  20.231  0.00  0.00    +0.000 A 
ATOM     17  C   UNL     1       3.931   2.679  19.401  0.00  0.00    +0.000 A 
ATOM     18  H   UNL     1      -0.281   3.311  20.707  0.00  0.00    +0.000 HD
ENDBRANCH   7   9
ENDBRANCH   5   7
BRANCH   1  19
ATOM     19  C   UNL     1       4.098   7.554  16.279  0.00  0.00    +0.000 C 
BRANCH  19  25
ATOM     20  N   UNL     1       0.626   9.001  20.525  0.00  0.00    +0.000 N 
ATOM     21  C   UNL     1       0.155  10.204  20.070  0.00  0.00    +0.000 A 
ATOM     22  C   UNL     1       0.787  10.477  18.878  0.00  0.00    +0.000 A 
ATOM     23  C   UNL     1       1.634   9.378  18.578  0.00  0.00    +0.000 A 
ATOM     24  C   UNL     1       2.489   9.078  17.497  0.00  0.00    +0.000 A 
ATOM     25  C   UNL     1       3.183   7.863  17.456  0.00  0.00    +0.000 A 
ATOM     26  C   UNL     1       3.022   6.951  18.513  0.00  0.00    +0.000 A 
ATOM     27  C   UNL     1       2.185   7.230  19.605  0.00  0.00    +0.000 A 
ATOM     28  C   UNL     1       1.506   8.453  19.613  0.00  0.00    +0.000 A 
BRANCH  20  29
ATOM     29  C   UNL     1       0.226   8.373  21.780  0.00  0.00    +0.000 C 
BRANCH  29  31
ATOM     30  N   UNL     1      -1.042   9.831  23.340  0.00  0.00    +0.000 N 
ATOM     31  C   UNL     1       0.165   9.316  22.965  0.00  0.00    +0.000 C 
ATOM     32  O   UNL     1       1.177   9.635  23.589  0.00  0.00    +0.000 OA
ATOM     33  H   UNL     1      -1.071  10.423  24.158  0.00  0.00    +0.000 HD
ATOM     34  H   UNL     1      -1.923   9.477  22.983  0.00  0.00    +0.000 HD
ENDBRANCH  29  31
ENDBRANCH  20  29
ENDBRANCH  19  25
ENDBRANCH   1  19
TORSDOF 6
ENDMDL
MODEL 9
REMARK VINA RESULT:      -8.0      3.485      5.407
REMARK  Name = 
REMARK  6 active torsions:
REMARK  status: ('A' for Active; 'I' for Inactive)
REMARK    1  A    between atoms: C_2  and  C_4
REMARK    2  A    between atoms: C_4  and  N_5
REMARK    3  A    between atoms: C_10  and  C_11
REMARK    4  A    between atoms: C_11  and  N_12
REMARK    5  A    between atoms: C_16  and  N_17
REMARK    6  A    between atoms: N_17  and  C_18
REMARK                            x       y       z     vdW  Elec       q    Type
REMARK                         _______ _______ _______ _____ _____    ______ ____
ROOT
ATOM      1  N   UNL     1       0.953   9.346  20.295  0.00  0.00    +0.000 NA
ATOM      2  C   UNL     1       1.456  10.034  19.107  0.00  0.00    +0.000 C 
ATOM      3  C   UNL     1       1.599   9.097  17.920  0.00  0.00    +0.000 C 
ATOM      4  C   UNL     1       2.508   7.926  18.258  0.00  0.00    +0.000 C 
ATOM      5  C   UNL     1       1.995   7.150  19.481  0.00  0.00    +0.000 C 
ATOM      6  C   UNL     1       1.705   8.135  20.651  0.00  0.00    +0.000 C 
ENDROOT
BRANCH   5   7
ATOM      7  N   UNL     1       3.003   6.158  19.926  0.00  0.00    +0.000 N 
ATOM      8  H   UNL     1       2.605   5.430  20.517  0.00  0.00    +0.000 HD
BRANCH   7   9
ATOM      9  C   UNL     1       3.887   5.605  18.988  0.00  0.00    +0.000 A 
ATOM     10  C   UNL     1       3.376   4.843  17.922  0.00  0.00    +0.000 A 
ATOM     11  C   UNL     1       4.203   4.215  16.977  0.00  0.00    +0.000 A 
ATOM     12  C   UNL     1       5.577   4.365  17.144  0.00  0.00    +0.000 A 
ATOM     13  N   UNL     1       6.656   3.914  16.427  0.00  0.00    +0.000 N 
ATOM     14  N   UNL     1       7.850   4.284  16.928  0.00  0.00    +0.000 NA
ATOM     15  C   UNL     1       7.523   4.996  18.010  0.00  0.00    +0.000 A 
ATOM     16  C   UNL     1       6.127   5.081  18.197  0.00  0.00    +0.000 A 
ATOM     17  C   UNL     1       5.278   5.683  19.129  0.00  0.00    +0.000 A 
ATOM     18  H   UNL     1       6.644   3.355  15.585  0.00  0.00    +0.000 HD
ENDBRANCH   7   9
ENDBRANCH   5   7
BRANCH   1  19
ATOM     19  C   UNL     1       0.763  10.266  21.431  0.00  0.00    +0.000 C 
BRANCH  19  25
ATOM     20  N   UNL     1      -4.134  13.070  22.016  0.00  0.00    +0.000 N 
ATOM     21  C   UNL     1      -4.261  13.078  23.379  0.00  0.00    +0.000 A 
ATOM     22  C   UNL     1      -3.202  12.371  23.902  0.00  0.00    +0.000 A 
ATOM     23  C   UNL     1      -2.380  11.962  22.820  0.00  0.00    +0.000 A 
ATOM     24  C   UNL     1      -1.165  11.252  22.738  0.00  0.00    +0.000 A 
ATOM     25  C   UNL     1      -0.552  11.032  21.499  0.00  0.00    +0.000 A 
ATOM     26  C   UNL     1      -1.171  11.521  20.336  0.00  0.00    +0.000 A 
ATOM     27  C   UNL     1      -2.386  12.223  20.390  0.00  0.00    +0.000 A 
ATOM     28  C   UNL     1      -2.970  12.426  21.645  0.00  0.00    +0.000 A 
BRANCH  20  29
ATOM     29  C   UNL     1      -5.079  13.687  21.090  0.00  0.00    +0.000 C 
BRANCH  29  31
ATOM     30  N   UNL     1      -7.090  13.234  19.706  0.00  0.00    +0.000 N 
ATOM     31  C   UNL     1      -6.198  12.774  20.633  0.00  0.00    +0.000 C 
ATOM     32  O   UNL     1      -6.328  11.635  21.081  0.00  0.00    +0.000 OA
ATOM     33  H   UNL     1      -7.803  12.598  19.380  0.00  0.00    +0.000 HD
ATOM     34  H   UNL     1      -6.939  14.085  19.176  0.00  0.00    +0.000 HD
ENDBRANCH  29  31
ENDBRANCH  20  29
ENDBRANCH  19  25
ENDBRANCH   1  19
TORSDOF 6
ENDMDL
