MODEL 1
REMARK VINA RESULT:      -9.6      0.000      0.000
REMARK  Name = 
REMARK  5 active torsions:
REMARK  status: ('A' for Active; 'I' for Inactive)
REMARK    1  A    between atoms: S_2  and  N_4
REMARK    2  A    between atoms: S_2  and  C_24
REMARK    3  A    between atoms: N_4  and  C_5
REMARK    4  A    between atoms: C_10  and  C_11
REMARK    5  A    between atoms: C_12  and  C_13
REMARK                            x       y       z     vdW  Elec       q    Type
REMARK                         _______ _______ _______ _____ _____    ______ ____
ROOT
ATOM      1  C   UNL     1       4.081   4.663  17.764  0.00  0.00    +0.000 A 
ATOM      2  C   UNL     1       4.112   3.484  18.511  0.00  0.00    +0.000 A 
ATOM      3  C   UNL     1       3.562   3.464  19.794  0.00  0.00    +0.000 A 
ATOM      4  C   UNL     1       2.945   4.609  20.302  0.00  0.00    +0.000 A 
ATOM      5  F   UNL     1       2.404   4.556  21.529  0.00  0.00    +0.000 F 
ATOM      6  C   UNL     1       2.881   5.782  19.552  0.00  0.00    +0.000 A 
ATOM      7  C   UNL     1       3.476   5.805  18.293  0.00  0.00    +0.000 A 
ATOM      8  F   UNL     1       3.456   6.927  17.555  0.00  0.00    +0.000 F 
ENDROOT
BRANCH   1   9
ATOM      9  N   UNL     1       4.593   4.662  16.430  0.00  0.00    +0.000 N 
ATOM     10  H   UNL     1       4.409   3.812  15.893  0.00  0.00    +0.000 HD
BRANCH   9  12
ATOM     11  O   UNL     1       6.220   6.588  16.392  0.00  0.00    +0.000 OA
ATOM     12  S   UNL     1       6.206   5.153  16.216  0.00  0.00    +0.000 S 
ATOM     13  O   UNL     1       7.065   4.287  16.993  0.00  0.00    +0.000 OA
BRANCH  12  14
ATOM     14  C   UNL     1       6.545   4.841  14.493  0.00  0.00    +0.000 A 
ATOM     15  C   UNL     1       7.600   5.514  13.857  0.00  0.00    +0.000 A 
ATOM     16  C   UNL     1       7.940   5.179  12.546  0.00  0.00    +0.000 A 
ATOM     17  C   UNL     1       7.235   4.179  11.875  0.00  0.00    +0.000 A 
ATOM     18  C   UNL     1       6.183   3.521  12.513  0.00  0.00    +0.000 A 
ATOM     19 CL   UNL     1       5.316   2.290  11.680  0.00  0.00    +0.000 Cl
ATOM     20  C   UNL     1       5.837   3.839  13.822  0.00  0.00    +0.000 A 
ENDBRANCH  12  14
ENDBRANCH   9  12
ENDBRANCH   1   9
BRANCH   6  21
ATOM     21  C   UNL     1       2.183   6.935  20.026  0.00  0.00    +0.000 C 
ATOM     22  C   UNL     1       1.592   7.869  20.495  0.00  0.00    +0.000 C 
BRANCH  22  23
ATOM     23  C   UNL     1       0.864   8.942  21.093  0.00  0.00    +0.000 A 
ATOM     24  C   UNL     1       0.896   9.151  22.471  0.00  0.00    +0.000 A 
ATOM     25  N   UNL     1       0.245  10.137  23.141  0.00  0.00    +0.000 NA
ATOM     26  C   UNL     1      -0.468  10.930  22.318  0.00  0.00    +0.000 A 
ATOM     27  N   UNL     1      -1.222  12.009  22.682  0.00  0.00    +0.000 N 
ATOM     28  N   UNL     1      -1.836  12.620  21.645  0.00  0.00    +0.000 NA
ATOM     29  C   UNL     1      -1.446  11.895  20.589  0.00  0.00    +0.000 A 
ATOM     30  C   UNL     1      -0.592  10.828  20.940  0.00  0.00    +0.000 A 
ATOM     31  C   UNL     1       0.097   9.793  20.292  0.00  0.00    +0.000 A 
ATOM     32  H   UNL     1      -1.351  12.370  23.618  0.00  0.00    +0.000 HD
ENDBRANCH  22  23
ENDBRANCH   6  21
TORSDOF 5
ENDMDL
MODEL 2
REMARK VINA RESULT:      -9.4      0.674      1.131
REMARK  Name = 
REMARK  5 active torsions:
REMARK  status: ('A' for Active; 'I' for Inactive)
REMARK    1  A    between atoms: S_2  and  N_4
REMARK    2  A    between atoms: S_2  and  C_24
REMARK    3  A    between atoms: N_4  and  C_5
REMARK    4  A    between atoms: C_10  and  C_11
REMARK    5  A    between atoms: C_12  and  C_13
REMARK                            x       y       z     vdW  Elec       q    Type
REMARK                         _______ _______ _______ _____ _____    ______ ____
ROOT
ATOM      1  C   UNL     1       4.168   4.547  17.687  0.00  0.00    +0.000 A 
ATOM      2  C   UNL     1       4.160   3.379  18.451  0.00  0.00    +0.000 A 
ATOM      3  C   UNL     1       3.602   3.395  19.732  0.00  0.00    +0.000 A 
ATOM      4  C   UNL     1       3.018   4.565  20.219  0.00  0.00    +0.000 A 
ATOM      5  F   UNL     1       2.469   4.546  21.444  0.00  0.00    +0.000 F 
ATOM      6  C   UNL     1       2.993   5.729  19.452  0.00  0.00    +0.000 A 
ATOM      7  C   UNL     1       3.595   5.715  18.196  0.00  0.00    +0.000 A 
ATOM      8  F   UNL     1       3.612   6.826  17.442  0.00  0.00    +0.000 F 
ENDROOT
BRANCH   1   9
ATOM      9  N   UNL     1       4.686   4.511  16.356  0.00  0.00    +0.000 N 
ATOM     10  H   UNL     1       4.559   3.626  15.862  0.00  0.00    +0.000 HD
BRANCH   9  12
ATOM     11  O   UNL     1       6.203   6.524  16.298  0.00  0.00    +0.000 OA
ATOM     12  S   UNL     1       6.266   5.091  16.121  0.00  0.00    +0.000 S 
ATOM     13  O   UNL     1       7.183   4.275  16.887  0.00  0.00    +0.000 OA
BRANCH  12  14
ATOM     14  C   UNL     1       6.600   4.798  14.394  0.00  0.00    +0.000 A 
ATOM     15  C   UNL     1       7.619   5.516  13.749  0.00  0.00    +0.000 A 
ATOM     16  C   UNL     1       7.959   5.198  12.433  0.00  0.00    +0.000 A 
ATOM     17  C   UNL     1       7.289   4.171  11.767  0.00  0.00    +0.000 A 
ATOM     18  C   UNL     1       6.272   3.468  12.414  0.00  0.00    +0.000 A 
ATOM     19 CL   UNL     1       5.448   2.205  11.587  0.00  0.00    +0.000 Cl
ATOM     20  C   UNL     1       5.927   3.769  13.727  0.00  0.00    +0.000 A 
ENDBRANCH  12  14
ENDBRANCH   9  12
ENDBRANCH   1   9
BRANCH   6  21
ATOM     21  C   UNL     1       2.328   6.908  19.904  0.00  0.00    +0.000 C 
ATOM     22  C   UNL     1       1.702   7.875  20.249  0.00  0.00    +0.000 C 
BRANCH  22  23
ATOM     23  C   UNL     1       0.925   9.016  20.610  0.00  0.00    +0.000 A 
ATOM     24  C   UNL     1       0.765  10.083  19.728  0.00  0.00    +0.000 A 
ATOM     25  N   UNL     1       0.049  11.213  19.968  0.00  0.00    +0.000 NA
ATOM     26  C   UNL     1      -0.517  11.210  21.191  0.00  0.00    +0.000 A 
ATOM     27  N   UNL     1      -1.300  12.192  21.725  0.00  0.00    +0.000 N 
ATOM     28  N   UNL     1      -1.730  11.925  22.978  0.00  0.00    +0.000 NA
ATOM     29  C   UNL     1      -1.197  10.724  23.235  0.00  0.00    +0.000 A 
ATOM     30  C   UNL     1      -0.430  10.223  22.161  0.00  0.00    +0.000 A 
ATOM     31  C   UNL     1       0.321   9.076  21.870  0.00  0.00    +0.000 A 
ATOM     32  H   UNL     1      -1.571  13.060  21.281  0.00  0.00    +0.000 HD
ENDBRANCH  22  23
ENDBRANCH   6  21
TORSDOF 5
ENDMDL
MODEL 3
REMARK VINA RESULT:      -9.3      2.717      3.296
REMARK  Name = 
REMARK  5 active torsions:
REMARK  status: ('A' for Active; 'I' for Inactive)
REMARK    1  A    between atoms: S_2  and  N_4
REMARK    2  A    between atoms: S_2  and  C_24
REMARK    3  A    between atoms: N_4  and  C_5
REMARK    4  A    between atoms: C_10  and  C_11
REMARK    5  A    between atoms: C_12  and  C_13
REMARK                            x       y       z     vdW  Elec       q    Type
REMARK                         _______ _______ _______ _____ _____    ______ ____
ROOT
ATOM      1  C   UNL     1       3.984   5.052  17.437  0.00  0.00    +0.000 A 
ATOM      2  C   UNL     1       4.100   3.841  18.120  0.00  0.00    +0.000 A 
ATOM      3  C   UNL     1       3.633   3.740  19.433  0.00  0.00    +0.000 A 
ATOM      4  C   UNL     1       3.014   4.837  20.035  0.00  0.00    +0.000 A 
ATOM      5  F   UNL     1       2.555   4.706  21.289  0.00  0.00    +0.000 F 
ATOM      6  C   UNL     1       2.866   6.042  19.350  0.00  0.00    +0.000 A 
ATOM      7  C   UNL     1       3.379   6.146  18.059  0.00  0.00    +0.000 A 
ATOM      8  F   UNL     1       3.276   7.301  17.382  0.00  0.00    +0.000 F 
ENDROOT
BRANCH   1   9
ATOM      9  N   UNL     1       4.409   5.134  16.075  0.00  0.00    +0.000 N 
ATOM     10  H   UNL     1       3.853   4.590  15.412  0.00  0.00    +0.000 HD
BRANCH   9  12
ATOM     11  O   UNL     1       6.328   3.507  15.920  0.00  0.00    +0.000 OA
ATOM     12  S   UNL     1       6.067   4.919  15.765  0.00  0.00    +0.000 S 
ATOM     13  O   UNL     1       6.409   5.623  14.549  0.00  0.00    +0.000 OA
BRANCH  12  14
ATOM     14  C   UNL     1       6.886   5.748  17.115  0.00  0.00    +0.000 A 
ATOM     15  C   UNL     1       7.388   4.999  18.191  0.00  0.00    +0.000 A 
ATOM     16  C   UNL     1       8.135   5.634  19.184  0.00  0.00    +0.000 A 
ATOM     17  C   UNL     1       8.382   7.005  19.103  0.00  0.00    +0.000 A 
ATOM     18  C   UNL     1       7.873   7.743  18.033  0.00  0.00    +0.000 A 
ATOM     19 CL   UNL     1       8.179   9.433  17.940  0.00  0.00    +0.000 Cl
ATOM     20  C   UNL     1       7.132   7.122  17.032  0.00  0.00    +0.000 A 
ENDBRANCH  12  14
ENDBRANCH   9  12
ENDBRANCH   1   9
BRANCH   6  21
ATOM     21  C   UNL     1       2.164   7.146  19.924  0.00  0.00    +0.000 C 
ATOM     22  C   UNL     1       1.565   8.031  20.473  0.00  0.00    +0.000 C 
BRANCH  22  23
ATOM     23  C   UNL     1       0.825   9.042  21.158  0.00  0.00    +0.000 A 
ATOM     24  C   UNL     1       0.835   9.119  22.549  0.00  0.00    +0.000 A 
ATOM     25  N   UNL     1       0.171  10.036  23.300  0.00  0.00    +0.000 NA
ATOM     26  C   UNL     1      -0.532  10.903  22.545  0.00  0.00    +0.000 A 
ATOM     27  N   UNL     1      -1.295  11.941  22.997  0.00  0.00    +0.000 N 
ATOM     28  N   UNL     1      -1.894  12.646  22.013  0.00  0.00    +0.000 NA
ATOM     29  C   UNL     1      -1.486  12.025  20.899  0.00  0.00    +0.000 A 
ATOM     30  C   UNL     1      -0.634  10.931  21.162  0.00  0.00    +0.000 A 
ATOM     31  C   UNL     1       0.067   9.963  20.429  0.00  0.00    +0.000 A 
ATOM     32  H   UNL     1      -1.439  12.211  23.961  0.00  0.00    +0.000 HD
ENDBRANCH  22  23
ENDBRANCH   6  21
TORSDOF 5
ENDMDL
MODEL 4
REMARK VINA RESULT:      -9.0      5.519      7.859
REMARK  Name = 
REMARK  5 active torsions:
REMARK  status: ('A' for Active; 'I' for Inactive)
REMARK    1  A    between atoms: S_2  and  N_4
REMARK    2  A    between atoms: S_2  and  C_24
REMARK    3  A    between atoms: N_4  and  C_5
REMARK    4  A    between atoms: C_10  and  C_11
REMARK    5  A    between atoms: C_12  and  C_13
REMARK                            x       y       z     vdW  Elec       q    Type
REMARK                         _______ _______ _______ _____ _____    ______ ____
ROOT
ATOM      1  C   UNL     1       5.373   4.064  17.719  0.00  0.00    +0.000 A 
ATOM      2  C   UNL     1       5.613   3.514  16.459  0.00  0.00    +0.000 A 
ATOM      3  C   UNL     1       6.388   4.218  15.534  0.00  0.00    +0.000 A 
ATOM      4  C   UNL     1       6.953   5.444  15.892  0.00  0.00    +0.000 A 
ATOM      5  F   UNL     1       7.711   6.088  14.992  0.00  0.00    +0.000 F 
ATOM      6  C   UNL     1       6.744   5.987  17.159  0.00  0.00    +0.000 A 
ATOM      7  C   UNL     1       5.930   5.299  18.056  0.00  0.00    +0.000 A 
ATOM      8  F   UNL     1       5.687   5.807  19.275  0.00  0.00    +0.000 F 
ENDROOT
BRANCH   1   9
ATOM      9  N   UNL     1       4.630   3.314  18.682  0.00  0.00    +0.000 N 
ATOM     10  H   UNL     1       4.964   2.362  18.845  0.00  0.00    +0.000 HD
BRANCH   9  12
ATOM     11  O   UNL     1       2.652   3.249  17.120  0.00  0.00    +0.000 OA
ATOM     12  S   UNL     1       2.936   3.323  18.535  0.00  0.00    +0.000 S 
ATOM     13  O   UNL     1       2.381   2.370  19.470  0.00  0.00    +0.000 OA
BRANCH  12  14
ATOM     14  C   UNL     1       2.449   4.952  19.074  0.00  0.00    +0.000 A 
ATOM     15  C   UNL     1       2.040   5.153  20.402  0.00  0.00    +0.000 A 
ATOM     16  C   UNL     1       1.778   6.448  20.853  0.00  0.00    +0.000 A 
ATOM     17  C   UNL     1       1.925   7.533  19.988  0.00  0.00    +0.000 A 
ATOM     18  C   UNL     1       2.325   7.322  18.668  0.00  0.00    +0.000 A 
ATOM     19 CL   UNL     1       2.502   8.663  17.606  0.00  0.00    +0.000 Cl
ATOM     20  C   UNL     1       2.597   6.038  18.206  0.00  0.00    +0.000 A 
ENDBRANCH  12  14
ENDBRANCH   9  12
ENDBRANCH   1   9
BRANCH   6  21
ATOM     21  C   UNL     1       7.381   7.198  17.566  0.00  0.00    +0.000 C 
ATOM     22  C   UNL     1       7.858   8.258  17.872  0.00  0.00    +0.000 C 
BRANCH  22  23
ATOM     23  C   UNL     1       8.399   9.541  18.187  0.00  0.00    +0.000 A 
ATOM     24  C   UNL     1       8.064  10.665  17.435  0.00  0.00    +0.000 A 
ATOM     25  N   UNL     1       8.519  11.928  17.646  0.00  0.00    +0.000 NA
ATOM     26  C   UNL     1       9.362  11.999  18.695  0.00  0.00    +0.000 A 
ATOM     27  N   UNL     1       9.979  13.122  19.166  0.00  0.00    +0.000 N 
ATOM     28  N   UNL     1      10.777  12.899  20.233  0.00  0.00    +0.000 NA
ATOM     29  C   UNL     1      10.651  11.582  20.439  0.00  0.00    +0.000 A 
ATOM     30  C   UNL     1       9.782  10.963  19.516  0.00  0.00    +0.000 A 
ATOM     31  C   UNL     1       9.288   9.677  19.258  0.00  0.00    +0.000 A 
ATOM     32  H   UNL     1       9.890  14.061  18.799  0.00  0.00    +0.000 HD
ENDBRANCH  22  23
ENDBRANCH   6  21
TORSDOF 5
ENDMDL
MODEL 5
REMARK VINA RESULT:      -8.9      1.819      2.350
REMARK  Name = 
REMARK  5 active torsions:
REMARK  status: ('A' for Active; 'I' for Inactive)
REMARK    1  A    between atoms: S_2  and  N_4
REMARK    2  A    between atoms: S_2  and  C_24
REMARK    3  A    between atoms: N_4  and  C_5
REMARK    4  A    between atoms: C_10  and  C_11
REMARK    5  A    between atoms: C_12  and  C_13
REMARK                            x       y       z     vdW  Elec       q    Type
REMARK                         _______ _______ _______ _____ _____    ______ ____
ROOT
ATOM      1  C   UNL     1       4.910   4.002  18.713  0.00  0.00    +0.000 A 
ATOM      2  C   UNL     1       4.293   3.103  17.842  0.00  0.00    +0.000 A 
ATOM      3  C   UNL     1       2.946   3.273  17.514  0.00  0.00    +0.000 A 
ATOM      4  C   UNL     1       2.241   4.366  18.022  0.00  0.00    +0.000 A 
ATOM      5  F   UNL     1       0.955   4.518  17.672  0.00  0.00    +0.000 F 
ATOM      6  C   UNL     1       2.857   5.287  18.868  0.00  0.00    +0.000 A 
ATOM      7  C   UNL     1       4.187   5.080  19.228  0.00  0.00    +0.000 A 
ATOM      8  F   UNL     1       4.802   5.933  20.062  0.00  0.00    +0.000 F 
ENDROOT
BRANCH   1   9
ATOM      9  N   UNL     1       6.303   3.858  19.000  0.00  0.00    +0.000 N 
ATOM     10  H   UNL     1       6.552   3.908  19.990  0.00  0.00    +0.000 HD
BRANCH   9  12
ATOM     11  O   UNL     1       7.515   6.055  18.757  0.00  0.00    +0.000 OA
ATOM     12  S   UNL     1       7.386   4.787  18.076  0.00  0.00    +0.000 S 
ATOM     13  O   UNL     1       8.542   3.978  17.757  0.00  0.00    +0.000 OA
BRANCH  12  14
ATOM     14  C   UNL     1       6.516   5.106  16.552  0.00  0.00    +0.000 A 
ATOM     15  C   UNL     1       5.762   6.282  16.413  0.00  0.00    +0.000 A 
ATOM     16  C   UNL     1       5.185   6.587  15.179  0.00  0.00    +0.000 A 
ATOM     17  C   UNL     1       5.359   5.728  14.094  0.00  0.00    +0.000 A 
ATOM     18  C   UNL     1       6.104   4.558  14.244  0.00  0.00    +0.000 A 
ATOM     19 CL   UNL     1       6.314   3.502  12.903  0.00  0.00    +0.000 Cl
ATOM     20  C   UNL     1       6.692   4.244  15.465  0.00  0.00    +0.000 A 
ENDBRANCH  12  14
ENDBRANCH   9  12
ENDBRANCH   1   9
BRANCH   6  21
ATOM     21  C   UNL     1       2.172   6.452  19.330  0.00  0.00    +0.000 C 
ATOM     22  C   UNL     1       1.663   7.452  19.757  0.00  0.00    +0.000 C 
BRANCH  22  23
ATOM     23  C   UNL     1       1.095   8.640  20.310  0.00  0.00    +0.000 A 
ATOM     24  C   UNL     1       1.151   9.850  19.621  0.00  0.00    +0.000 A 
ATOM     25  N   UNL     1       0.645  11.035  20.052  0.00  0.00    +0.000 NA
ATOM     26  C   UNL     1       0.058  10.931  21.261  0.00  0.00    +0.000 A 
ATOM     27  N   UNL     1      -0.547  11.936  21.959  0.00  0.00    +0.000 N 
ATOM     28  N   UNL     1      -1.049  11.546  23.151  0.00  0.00    +0.000 NA
ATOM     29  C   UNL     1      -0.746  10.243  23.199  0.00  0.00    +0.000 A 
ATOM     30  C   UNL     1      -0.058   9.797  22.051  0.00  0.00    +0.000 A 
ATOM     31  C   UNL     1       0.482   8.598  21.566  0.00  0.00    +0.000 A 
ATOM     32  H   UNL     1      -0.647  12.900  21.669  0.00  0.00    +0.000 HD
ENDBRANCH  22  23
ENDBRANCH   6  21
TORSDOF 5
ENDMDL
MODEL 6
REMARK VINA RESULT:      -8.7      1.674      2.290
REMARK  Name = 
REMARK  5 active torsions:
REMARK  status: ('A' for Active; 'I' for Inactive)
REMARK    1  A    between atoms: S_2  and  N_4
REMARK    2  A    between atoms: S_2  and  C_24
REMARK    3  A    between atoms: N_4  and  C_5
REMARK    4  A    between atoms: C_10  and  C_11
REMARK    5  A    between atoms: C_12  and  C_13
REMARK                            x       y       z     vdW  Elec       q    Type
REMARK                         _______ _______ _______ _____ _____    ______ ____
ROOT
ATOM      1  C   UNL     1       4.924   4.163  16.948  0.00  0.00    +0.000 A 
ATOM      2  C   UNL     1       4.104   3.059  16.708  0.00  0.00    +0.000 A 
ATOM      3  C   UNL     1       2.807   3.036  17.225  0.00  0.00    +0.000 A 
ATOM      4  C   UNL     1       2.325   4.135  17.939  0.00  0.00    +0.000 A 
ATOM      5  F   UNL     1       1.067   4.095  18.405  0.00  0.00    +0.000 F 
ATOM      6  C   UNL     1       3.125   5.255  18.157  0.00  0.00    +0.000 A 
ATOM      7  C   UNL     1       4.433   5.247  17.679  0.00  0.00    +0.000 A 
ATOM      8  F   UNL     1       5.239   6.299  17.896  0.00  0.00    +0.000 F 
ENDROOT
BRANCH   1   9
ATOM      9  N   UNL     1       6.229   4.208  16.368  0.00  0.00    +0.000 N 
ATOM     10  H   UNL     1       6.992   4.383  17.024  0.00  0.00    +0.000 HD
BRANCH   9  12
ATOM     11  O   UNL     1       5.434   6.207  15.054  0.00  0.00    +0.000 OA
ATOM     12  S   UNL     1       6.426   5.160  14.973  0.00  0.00    +0.000 S 
ATOM     13  O   UNL     1       7.831   5.459  14.806  0.00  0.00    +0.000 OA
BRANCH  12  14
ATOM     14  C   UNL     1       5.941   4.091  13.629  0.00  0.00    +0.000 A 
ATOM     15  C   UNL     1       4.600   4.059  13.215  0.00  0.00    +0.000 A 
ATOM     16  C   UNL     1       4.247   3.317  12.086  0.00  0.00    +0.000 A 
ATOM     17  C   UNL     1       5.222   2.616  11.377  0.00  0.00    +0.000 A 
ATOM     18  C   UNL     1       6.551   2.649  11.801  0.00  0.00    +0.000 A 
ATOM     19 CL   UNL     1       7.749   1.781  10.924  0.00  0.00    +0.000 Cl
ATOM     20  C   UNL     1       6.920   3.389  12.920  0.00  0.00    +0.000 A 
ENDBRANCH  12  14
ENDBRANCH   9  12
ENDBRANCH   1   9
BRANCH   6  21
ATOM     21  C   UNL     1       2.619   6.418  18.815  0.00  0.00    +0.000 C 
ATOM     22  C   UNL     1       2.130   7.352  19.389  0.00  0.00    +0.000 C 
BRANCH  22  23
ATOM     23  C   UNL     1       1.495   8.440  20.062  0.00  0.00    +0.000 A 
ATOM     24  C   UNL     1       1.324   9.671  19.432  0.00  0.00    +0.000 A 
ATOM     25  N   UNL     1       0.736  10.769  19.977  0.00  0.00    +0.000 NA
ATOM     26  C   UNL     1       0.315  10.550  21.238  0.00  0.00    +0.000 A 
ATOM     27  N   UNL     1      -0.319  11.447  22.049  0.00  0.00    +0.000 N 
ATOM     28  N   UNL     1      -0.625  10.956  23.270  0.00  0.00    +0.000 NA
ATOM     29  C   UNL     1      -0.166   9.699  23.219  0.00  0.00    +0.000 A 
ATOM     30  C   UNL     1       0.429   9.383  21.979  0.00  0.00    +0.000 A 
ATOM     31  C   UNL     1       1.046   8.278  21.376  0.00  0.00    +0.000 A 
ATOM     32  H   UNL     1      -0.566  12.401  21.821  0.00  0.00    +0.000 HD
ENDBRANCH  22  23
ENDBRANCH   6  21
TORSDOF 5
ENDMDL
MODEL 7
REMARK VINA RESULT:      -8.7      1.974      2.269
REMARK  Name = 
REMARK  5 active torsions:
REMARK  status: ('A' for Active; 'I' for Inactive)
REMARK    1  A    between atoms: S_2  and  N_4
REMARK    2  A    between atoms: S_2  and  C_24
REMARK    3  A    between atoms: N_4  and  C_5
REMARK    4  A    between atoms: C_10  and  C_11
REMARK    5  A    between atoms: C_12  and  C_13
REMARK                            x       y       z     vdW  Elec       q    Type
REMARK                         _______ _______ _______ _____ _____    ______ ____
ROOT
ATOM      1  C   UNL     1       4.036   5.059  17.579  0.00  0.00    +0.000 A 
ATOM      2  C   UNL     1       3.849   4.158  18.628  0.00  0.00    +0.000 A 
ATOM      3  C   UNL     1       3.159   4.563  19.773  0.00  0.00    +0.000 A 
ATOM      4  C   UNL     1       2.624   5.850  19.841  0.00  0.00    +0.000 A 
ATOM      5  F   UNL     1       1.946   6.206  20.943  0.00  0.00    +0.000 F 
ATOM      6  C   UNL     1       2.778   6.748  18.785  0.00  0.00    +0.000 A 
ATOM      7  C   UNL     1       3.509   6.350  17.669  0.00  0.00    +0.000 A 
ATOM      8  F   UNL     1       3.699   7.199  16.647  0.00  0.00    +0.000 F 
ENDROOT
BRANCH   1   9
ATOM      9  N   UNL     1       4.690   4.623  16.386  0.00  0.00    +0.000 N 
ATOM     10  H   UNL     1       4.583   3.630  16.168  0.00  0.00    +0.000 HD
BRANCH   9  12
ATOM     11  O   UNL     1       6.339   6.530  16.369  0.00  0.00    +0.000 OA
ATOM     12  S   UNL     1       6.307   5.099  16.168  0.00  0.00    +0.000 S 
ATOM     13  O   UNL     1       7.163   4.209  16.923  0.00  0.00    +0.000 OA
BRANCH  12  14
ATOM     14  C   UNL     1       6.629   4.814  14.437  0.00  0.00    +0.000 A 
ATOM     15  C   UNL     1       7.672   5.504  13.799  0.00  0.00    +0.000 A 
ATOM     16  C   UNL     1       8.000   5.189  12.479  0.00  0.00    +0.000 A 
ATOM     17  C   UNL     1       7.295   4.193  11.802  0.00  0.00    +0.000 A 
ATOM     18  C   UNL     1       6.255   3.518  12.443  0.00  0.00    +0.000 A 
ATOM     19 CL   UNL     1       5.389   2.292  11.603  0.00  0.00    +0.000 Cl
ATOM     20  C   UNL     1       5.922   3.815  13.760  0.00  0.00    +0.000 A 
ENDBRANCH  12  14
ENDBRANCH   9  12
ENDBRANCH   1   9
BRANCH   6  21
ATOM     21  C   UNL     1       2.167   8.039  18.807  0.00  0.00    +0.000 C 
ATOM     22  C   UNL     1       1.588   9.091  18.793  0.00  0.00    +0.000 C 
BRANCH  22  23
ATOM     23  C   UNL     1       0.869  10.323  18.729  0.00  0.00    +0.000 A 
ATOM     24  C   UNL     1      -0.512  10.338  18.538  0.00  0.00    +0.000 A 
ATOM     25  N   UNL     1      -1.292  11.448  18.463  0.00  0.00    +0.000 NA
ATOM     26  C   UNL     1      -0.580  12.584  18.594  0.00  0.00    +0.000 A 
ATOM     27  N   UNL     1      -1.071  13.858  18.571  0.00  0.00    +0.000 N 
ATOM     28  N   UNL     1      -0.125  14.810  18.723  0.00  0.00    +0.000 NA
ATOM     29  C   UNL     1       1.005  14.101  18.850  0.00  0.00    +0.000 A 
ATOM     30  C   UNL     1       0.789  12.708  18.779  0.00  0.00    +0.000 A 
ATOM     31  C   UNL     1       1.554  11.536  18.848  0.00  0.00    +0.000 A 
ATOM     32  H   UNL     1      -2.038  14.132  18.457  0.00  0.00    +0.000 HD
ENDBRANCH  22  23
ENDBRANCH   6  21
TORSDOF 5
ENDMDL
MODEL 8
REMARK VINA RESULT:      -8.7      3.386      4.836
REMARK  Name = 
REMARK  5 active torsions:
REMARK  status: ('A' for Active; 'I' for Inactive)
REMARK    1  A    between atoms: S_2  and  N_4
REMARK    2  A    between atoms: S_2  and  C_24
REMARK    3  A    between atoms: N_4  and  C_5
REMARK    4  A    between atoms: C_10  and  C_11
REMARK    5  A    between atoms: C_12  and  C_13
REMARK                            x       y       z     vdW  Elec       q    Type
REMARK                         _______ _______ _______ _____ _____    ______ ____
ROOT
ATOM      1  C   UNL     1       2.320   7.086  19.692  0.00  0.00    +0.000 A 
ATOM      2  C   UNL     1       2.624   7.382  18.362  0.00  0.00    +0.000 A 
ATOM      3  C   UNL     1       2.156   8.569  17.794  0.00  0.00    +0.000 A 
ATOM      4  C   UNL     1       1.428   9.471  18.573  0.00  0.00    +0.000 A 
ATOM      5  F   UNL     1       1.010  10.614  18.008  0.00  0.00    +0.000 F 
ATOM      6  C   UNL     1       1.146   9.198  19.910  0.00  0.00    +0.000 A 
ATOM      7  C   UNL     1       1.575   7.989  20.453  0.00  0.00    +0.000 A 
ATOM      8  F   UNL     1       1.297   7.684  21.730  0.00  0.00    +0.000 F 
ENDROOT
BRANCH   1   9
ATOM      9  N   UNL     1       2.850   5.899  20.286  0.00  0.00    +0.000 N 
ATOM     10  H   UNL     1       3.769   6.002  20.720  0.00  0.00    +0.000 HD
BRANCH   9  12
ATOM     11  O   UNL     1       2.845   3.378  20.295  0.00  0.00    +0.000 OA
ATOM     12  S   UNL     1       2.798   4.476  19.357  0.00  0.00    +0.000 S 
ATOM     13  O   UNL     1       1.737   4.593  18.381  0.00  0.00    +0.000 OA
BRANCH  12  14
ATOM     14  C   UNL     1       4.345   4.463  18.469  0.00  0.00    +0.000 A 
ATOM     15  C   UNL     1       4.382   4.017  17.139  0.00  0.00    +0.000 A 
ATOM     16  C   UNL     1       5.567   4.123  16.409  0.00  0.00    +0.000 A 
ATOM     17  C   UNL     1       6.705   4.671  17.001  0.00  0.00    +0.000 A 
ATOM     18  C   UNL     1       6.661   5.106  18.327  0.00  0.00    +0.000 A 
ATOM     19 CL   UNL     1       8.068   5.779  19.051  0.00  0.00    +0.000 Cl
ATOM     20  C   UNL     1       5.485   5.013  19.064  0.00  0.00    +0.000 A 
ENDBRANCH  12  14
ENDBRANCH   9  12
ENDBRANCH   1   9
BRANCH   6  21
ATOM     21  C   UNL     1       0.472  10.146  20.740  0.00  0.00    +0.000 C 
ATOM     22  C   UNL     1      -0.108  10.987  21.372  0.00  0.00    +0.000 C 
BRANCH  22  23
ATOM     23  C   UNL     1      -0.782  12.026  22.082  0.00  0.00    +0.000 A 
ATOM     24  C   UNL     1      -0.263  13.319  22.125  0.00  0.00    +0.000 A 
ATOM     25  N   UNL     1      -0.820  14.379  22.768  0.00  0.00    +0.000 NA
ATOM     26  C   UNL     1      -1.970  14.053  23.389  0.00  0.00    +0.000 A 
ATOM     27  N   UNL     1      -2.769  14.893  24.110  0.00  0.00    +0.000 N 
ATOM     28  N   UNL     1      -3.864  14.293  24.627  0.00  0.00    +0.000 NA
ATOM     29  C   UNL     1      -3.746  13.027  24.208  0.00  0.00    +0.000 A 
ATOM     30  C   UNL     1      -2.588  12.812  23.431  0.00  0.00    +0.000 A 
ATOM     31  C   UNL     1      -1.975  11.748  22.755  0.00  0.00    +0.000 A 
ATOM     32  H   UNL     1      -2.616  15.879  24.280  0.00  0.00    +0.000 HD
ENDBRANCH  22  23
ENDBRANCH   6  21
TORSDOF 5
ENDMDL
MODEL 9
REMARK VINA RESULT:      -8.7      5.499      7.784
REMARK  Name = 
REMARK  5 active torsions:
REMARK  status: ('A' for Active; 'I' for Inactive)
REMARK    1  A    between atoms: S_2  and  N_4
REMARK    2  A    between atoms: S_2  and  C_24
REMARK    3  A    between atoms: N_4  and  C_5
REMARK    4  A    between atoms: C_10  and  C_11
REMARK    5  A    between atoms: C_12  and  C_13
REMARK                            x       y       z     vdW  Elec       q    Type
REMARK                         _______ _______ _______ _____ _____    ______ ____
ROOT
ATOM      1  C   UNL     1       5.491   4.118  17.607  0.00  0.00    +0.000 A 
ATOM      2  C   UNL     1       5.841   3.576  16.370  0.00  0.00    +0.000 A 
ATOM      3  C   UNL     1       6.624   4.322  15.486  0.00  0.00    +0.000 A 
ATOM      4  C   UNL     1       7.088   5.583  15.865  0.00  0.00    +0.000 A 
ATOM      5  F   UNL     1       7.857   6.269  15.005  0.00  0.00    +0.000 F 
ATOM      6  C   UNL     1       6.769   6.120  17.111  0.00  0.00    +0.000 A 
ATOM      7  C   UNL     1       5.947   5.388  17.965  0.00  0.00    +0.000 A 
ATOM      8  F   UNL     1       5.600   5.888  19.162  0.00  0.00    +0.000 F 
ENDROOT
BRANCH   1   9
ATOM      9  N   UNL     1       4.740   3.328  18.531  0.00  0.00    +0.000 N 
ATOM     10  H   UNL     1       5.085   2.377  18.674  0.00  0.00    +0.000 HD
BRANCH   9  12
ATOM     11  O   UNL     1       2.796   3.320  16.926  0.00  0.00    +0.000 OA
ATOM     12  S   UNL     1       3.049   3.316  18.348  0.00  0.00    +0.000 S 
ATOM     13  O   UNL     1       2.493   2.299  19.213  0.00  0.00    +0.000 OA
BRANCH  12  14
ATOM     14  C   UNL     1       2.520   4.902  18.971  0.00  0.00    +0.000 A 
ATOM     15  C   UNL     1       2.162   5.035  20.322  0.00  0.00    +0.000 A 
ATOM     16  C   UNL     1       1.867   6.300  20.834  0.00  0.00    +0.000 A 
ATOM     17  C   UNL     1       1.930   7.421  20.007  0.00  0.00    +0.000 A 
ATOM     18  C   UNL     1       2.280   7.277  18.663  0.00  0.00    +0.000 A 
ATOM     19 CL   UNL     1       2.355   8.663  17.648  0.00  0.00    +0.000 Cl
ATOM     20  C   UNL     1       2.584   6.024  18.140  0.00  0.00    +0.000 A 
ENDBRANCH  12  14
ENDBRANCH   9  12
ENDBRANCH   1   9
BRANCH   6  21
ATOM     21  C   UNL     1       7.302   7.372  17.544  0.00  0.00    +0.000 C 
ATOM     22  C   UNL     1       7.819   8.406  17.871  0.00  0.00    +0.000 C 
BRANCH  22  23
ATOM     23  C   UNL     1       8.486   9.609  18.257  0.00  0.00    +0.000 A 
ATOM     24  C   UNL     1       9.301   9.645  19.387  0.00  0.00    +0.000 A 
ATOM     25  N   UNL     1       9.980  10.730  19.843  0.00  0.00    +0.000 NA
ATOM     26  C   UNL     1       9.785  11.817  19.071  0.00  0.00    +0.000 A 
ATOM     27  N   UNL     1      10.331  13.054  19.258  0.00  0.00    +0.000 N 
ATOM     28  N   UNL     1       9.957  13.961  18.330  0.00  0.00    +0.000 NA
ATOM     29  C   UNL     1       9.145  13.261  17.527  0.00  0.00    +0.000 A 
ATOM     30  C   UNL     1       8.997  11.918  17.934  0.00  0.00    +0.000 A 
ATOM     31  C   UNL     1       8.313  10.773  17.503  0.00  0.00    +0.000 A 
ATOM     32  H   UNL     1      10.963  13.332  19.998  0.00  0.00    +0.000 HD
ENDBRANCH  22  23
ENDBRANCH   6  21
TORSDOF 5
ENDMDL
