MODEL 1
REMARK VINA RESULT:      -8.1      0.000      0.000
REMARK  Name = 
REMARK  8 active torsions:
REMARK  status: ('A' for Active; 'I' for Inactive)
REMARK    1  A    between atoms: C_1  and  O_2
REMARK    2  A    between atoms: O_2  and  C_3
REMARK    3  A    between atoms: N_10  and  C_11
REMARK    4  A    between atoms: C_23  and  O_24
REMARK    5  A    between atoms: O_24  and  C_25
REMARK    6  A    between atoms: C_25  and  C_26
REMARK    7  A    between atoms: C_26  and  C_27
REMARK    8  A    between atoms: C_27  and  N_28
REMARK                            x       y       z     vdW  Elec       q    Type
REMARK                         _______ _______ _______ _____ _____    ______ ____
ROOT
ATOM      1  C   UNL     1       6.340   5.031  16.201  0.00  0.00    +0.000 A 
ATOM      2  C   UNL     1       5.158   4.293  16.333  0.00  0.00    +0.000 A 
ATOM      3  C   UNL     1       4.052   4.767  17.024  0.00  0.00    +0.000 A 
ATOM      4  N   UNL     1       2.972   3.988  17.080  0.00  0.00    +0.000 NA
ATOM      5  C   UNL     1       1.913   4.481  17.725  0.00  0.00    +0.000 A 
ATOM      6  N   UNL     1       1.830   5.688  18.287  0.00  0.00    +0.000 NA
ATOM      7  C   UNL     1       2.931   6.465  18.238  0.00  0.00    +0.000 A 
ATOM      8  N   UNL     1       2.858   7.772  18.799  0.00  0.00    +0.000 N 
ATOM      9  C   UNL     1       4.111   6.036  17.610  0.00  0.00    +0.000 A 
ATOM     10  C   UNL     1       5.302   6.788  17.503  0.00  0.00    +0.000 A 
ATOM     11  C   UNL     1       6.385   6.320  16.749  0.00  0.00    +0.000 A 
ATOM     12  H   UNL     1       2.956   8.446  18.039  0.00  0.00    +0.000 HD
ENDROOT
BRANCH   8  13
ATOM     13  C   UNL     1       1.807   8.179  19.662  0.00  0.00    +0.000 A 
ATOM     14  C   UNL     1       1.340   7.413  20.752  0.00  0.00    +0.000 A 
ATOM     15 CL   UNL     1       2.156   5.983  21.296  0.00  0.00    +0.000 Cl
ATOM     16  C   UNL     1       0.220   7.823  21.502  0.00  0.00    +0.000 A 
ATOM     17  C   UNL     1      -0.432   9.022  21.215  0.00  0.00    +0.000 A 
ATOM     18  C   UNL     1       0.084   9.800  20.204  0.00  0.00    +0.000 A 
ATOM     19  C   UNL     1       1.171   9.399  19.457  0.00  0.00    +0.000 A 
ATOM     20  O   UNL     1       1.508  10.328  18.512  0.00  0.00    +0.000 OA
ATOM     21  C   UNL     1       0.563  11.378  18.812  0.00  0.00    +0.000 C 
ATOM     22  O   UNL     1      -0.394  11.015  19.826  0.00  0.00    +0.000 OA
ENDBRANCH   8  13
BRANCH   1  24
ATOM     23  C   UNL     1       7.441   4.749  14.082  0.00  0.00    +0.000 C 
ATOM     24  O   UNL     1       7.421   4.584  15.497  0.00  0.00    +0.000 OA
ENDBRANCH   1  24
BRANCH  11  25
ATOM     25  O   UNL     1       7.402   7.225  16.622  0.00  0.00    +0.000 OA
BRANCH  25  26
ATOM     26  C   UNL     1       7.887   7.849  17.818  0.00  0.00    +0.000 C 
BRANCH  26  27
ATOM     27  C   UNL     1       7.915   9.386  17.792  0.00  0.00    +0.000 C 
BRANCH  27  28
ATOM     28  C   UNL     1       9.072   9.950  18.628  0.00  0.00    +0.000 C 
BRANCH  28  29
ATOM     29  N   UNL     1       9.253  11.410  18.510  0.00  0.00    +0.000 NA
ATOM     30  C   UNL     1      10.562  11.717  17.877  0.00  0.00    +0.000 C 
ATOM     31  C   UNL     1      11.771  11.438  18.789  0.00  0.00    +0.000 C 
ATOM     32  O   UNL     1      11.671  12.146  20.031  0.00  0.00    +0.000 OA
ATOM     33  C   UNL     1      10.439  11.847  20.700  0.00  0.00    +0.000 C 
ATOM     34  C   UNL     1       9.222  12.129  19.805  0.00  0.00    +0.000 C 
ENDBRANCH  28  29
ENDBRANCH  27  28
ENDBRANCH  26  27
ENDBRANCH  25  26
ENDBRANCH  11  25
TORSDOF 7
ENDMDL
MODEL 2
REMARK VINA RESULT:      -7.6      4.257      9.582
REMARK  Name = 
REMARK  8 active torsions:
REMARK  status: ('A' for Active; 'I' for Inactive)
REMARK    1  A    between atoms: C_1  and  O_2
REMARK    2  A    between atoms: O_2  and  C_3
REMARK    3  A    between atoms: N_10  and  C_11
REMARK    4  A    between atoms: C_23  and  O_24
REMARK    5  A    between atoms: O_24  and  C_25
REMARK    6  A    between atoms: C_25  and  C_26
REMARK    7  A    between atoms: C_26  and  C_27
REMARK    8  A    between atoms: C_27  and  N_28
REMARK                            x       y       z     vdW  Elec       q    Type
REMARK                         _______ _______ _______ _____ _____    ______ ____
ROOT
ATOM      1  C   UNL     1       0.754  11.088  20.571  0.00  0.00    +0.000 A 
ATOM      2  C   UNL     1       1.087  10.751  19.254  0.00  0.00    +0.000 A 
ATOM      3  C   UNL     1       1.550   9.492  18.898  0.00  0.00    +0.000 A 
ATOM      4  N   UNL     1       1.827   9.272  17.612  0.00  0.00    +0.000 NA
ATOM      5  C   UNL     1       2.242   8.044  17.293  0.00  0.00    +0.000 A 
ATOM      6  N   UNL     1       2.373   7.018  18.134  0.00  0.00    +0.000 NA
ATOM      7  C   UNL     1       2.104   7.252  19.435  0.00  0.00    +0.000 A 
ATOM      8  N   UNL     1       2.203   6.165  20.350  0.00  0.00    +0.000 N 
ATOM      9  C   UNL     1       1.689   8.514  19.888  0.00  0.00    +0.000 A 
ATOM     10  C   UNL     1       1.375   8.842  21.227  0.00  0.00    +0.000 A 
ATOM     11  C   UNL     1       0.850  10.097  21.557  0.00  0.00    +0.000 A 
ATOM     12  H   UNL     1       1.267   5.969  20.705  0.00  0.00    +0.000 HD
ENDROOT
BRANCH   8  13
ATOM     13  C   UNL     1       2.852   4.945  20.024  0.00  0.00    +0.000 A 
ATOM     14  C   UNL     1       2.227   3.681  20.071  0.00  0.00    +0.000 A 
ATOM     15 CL   UNL     1       0.520   3.501  20.317  0.00  0.00    +0.000 Cl
ATOM     16  C   UNL     1       2.958   2.499  19.842  0.00  0.00    +0.000 A 
ATOM     17  C   UNL     1       4.314   2.549  19.519  0.00  0.00    +0.000 A 
ATOM     18  C   UNL     1       4.892   3.791  19.394  0.00  0.00    +0.000 A 
ATOM     19  C   UNL     1       4.187   4.952  19.630  0.00  0.00    +0.000 A 
ATOM     20  O   UNL     1       4.961   6.063  19.445  0.00  0.00    +0.000 OA
ATOM     21  C   UNL     1       6.195   5.464  18.992  0.00  0.00    +0.000 C 
ATOM     22  O   UNL     1       6.184   4.025  19.038  0.00  0.00    +0.000 OA
ENDBRANCH   8  13
BRANCH   1  24
ATOM     23  C   UNL     1      -0.426  13.089  19.952  0.00  0.00    +0.000 C 
ATOM     24  O   UNL     1       0.269  12.314  20.925  0.00  0.00    +0.000 OA
ENDBRANCH   1  24
BRANCH  11  25
ATOM     25  O   UNL     1       0.463  10.206  22.863  0.00  0.00    +0.000 OA
BRANCH  25  26
ATOM     26  C   UNL     1      -0.938  10.348  23.132  0.00  0.00    +0.000 C 
BRANCH  26  27
ATOM     27  C   UNL     1      -1.408  11.779  23.438  0.00  0.00    +0.000 C 
BRANCH  27  28
ATOM     28  C   UNL     1      -2.924  11.933  23.258  0.00  0.00    +0.000 C 
BRANCH  28  29
ATOM     29  N   UNL     1      -3.320  13.001  22.319  0.00  0.00    +0.000 NA
ATOM     30  C   UNL     1      -2.923  14.329  22.852  0.00  0.00    +0.000 C 
ATOM     31  C   UNL     1      -3.769  14.793  24.053  0.00  0.00    +0.000 C 
ATOM     32  O   UNL     1      -5.167  14.812  23.738  0.00  0.00    +0.000 OA
ATOM     33  C   UNL     1      -5.606  13.535  23.258  0.00  0.00    +0.000 C 
ATOM     34  C   UNL     1      -4.777  13.063  22.054  0.00  0.00    +0.000 C 
ENDBRANCH  28  29
ENDBRANCH  27  28
ENDBRANCH  26  27
ENDBRANCH  25  26
ENDBRANCH  11  25
TORSDOF 7
ENDMDL
MODEL 3
REMARK VINA RESULT:      -7.5      4.260      9.619
REMARK  Name = 
REMARK  8 active torsions:
REMARK  status: ('A' for Active; 'I' for Inactive)
REMARK    1  A    between atoms: C_1  and  O_2
REMARK    2  A    between atoms: O_2  and  C_3
REMARK    3  A    between atoms: N_10  and  C_11
REMARK    4  A    between atoms: C_23  and  O_24
REMARK    5  A    between atoms: O_24  and  C_25
REMARK    6  A    between atoms: C_25  and  C_26
REMARK    7  A    between atoms: C_26  and  C_27
REMARK    8  A    between atoms: C_27  and  N_28
REMARK                            x       y       z     vdW  Elec       q    Type
REMARK                         _______ _______ _______ _____ _____    ______ ____
ROOT
ATOM      1  C   UNL     1       0.818  11.177  20.428  0.00  0.00    +0.000 A 
ATOM      2  C   UNL     1       1.190  10.818  19.127  0.00  0.00    +0.000 A 
ATOM      3  C   UNL     1       1.641   9.547  18.801  0.00  0.00    +0.000 A 
ATOM      4  N   UNL     1       1.958   9.307  17.529  0.00  0.00    +0.000 NA
ATOM      5  C   UNL     1       2.361   8.068  17.238  0.00  0.00    +0.000 A 
ATOM      6  N   UNL     1       2.444   7.050  18.095  0.00  0.00    +0.000 NA
ATOM      7  C   UNL     1       2.135   7.304  19.383  0.00  0.00    +0.000 A 
ATOM      8  N   UNL     1       2.181   6.226  20.313  0.00  0.00    +0.000 N 
ATOM      9  C   UNL     1       1.727   8.579  19.807  0.00  0.00    +0.000 A 
ATOM     10  C   UNL     1       1.373   8.928  21.130  0.00  0.00    +0.000 A 
ATOM     11  C   UNL     1       0.860  10.197  21.428  0.00  0.00    +0.000 A 
ATOM     12  H   UNL     1       1.230   6.052  20.637  0.00  0.00    +0.000 HD
ENDROOT
BRANCH   8  13
ATOM     13  C   UNL     1       2.819   4.991  20.024  0.00  0.00    +0.000 A 
ATOM     14  C   UNL     1       2.181   3.736  20.105  0.00  0.00    +0.000 A 
ATOM     15 CL   UNL     1       0.471   3.580  20.352  0.00  0.00    +0.000 Cl
ATOM     16  C   UNL     1       2.900   2.540  19.912  0.00  0.00    +0.000 A 
ATOM     17  C   UNL     1       4.257   2.567  19.591  0.00  0.00    +0.000 A 
ATOM     18  C   UNL     1       4.848   3.799  19.432  0.00  0.00    +0.000 A 
ATOM     19  C   UNL     1       4.154   4.973  19.633  0.00  0.00    +0.000 A 
ATOM     20  O   UNL     1       4.940   6.070  19.418  0.00  0.00    +0.000 OA
ATOM     21  C   UNL     1       6.169   5.446  18.986  0.00  0.00    +0.000 C 
ATOM     22  O   UNL     1       6.142   4.009  19.073  0.00  0.00    +0.000 OA
ENDBRANCH   8  13
BRANCH   1  24
ATOM     23  C   UNL     1      -0.546  13.072  19.851  0.00  0.00    +0.000 C 
ATOM     24  O   UNL     1       0.343  12.417  20.750  0.00  0.00    +0.000 OA
ENDBRANCH   1  24
BRANCH  11  25
ATOM     25  O   UNL     1       0.431  10.328  22.719  0.00  0.00    +0.000 OA
BRANCH  25  26
ATOM     26  C   UNL     1      -0.977  10.490  22.937  0.00  0.00    +0.000 C 
BRANCH  26  27
ATOM     27  C   UNL     1      -1.425  11.912  23.310  0.00  0.00    +0.000 C 
BRANCH  27  28
ATOM     28  C   UNL     1      -2.949  12.009  23.465  0.00  0.00    +0.000 C 
BRANCH  28  29
ATOM     29  N   UNL     1      -3.463  13.388  23.577  0.00  0.00    +0.000 NA
ATOM     30  C   UNL     1      -4.928  13.372  23.824  0.00  0.00    +0.000 C 
ATOM     31  C   UNL     1      -5.759  12.947  22.599  0.00  0.00    +0.000 C 
ATOM     32  O   UNL     1      -5.482  13.773  21.461  0.00  0.00    +0.000 OA
ATOM     33  C   UNL     1      -4.082  13.785  21.158  0.00  0.00    +0.000 C 
ATOM     34  C   UNL     1      -3.240  14.216  22.368  0.00  0.00    +0.000 C 
ENDBRANCH  28  29
ENDBRANCH  27  28
ENDBRANCH  26  27
ENDBRANCH  25  26
ENDBRANCH  11  25
TORSDOF 7
ENDMDL
MODEL 4
REMARK VINA RESULT:      -7.4      4.166      6.399
REMARK  Name = 
REMARK  8 active torsions:
REMARK  status: ('A' for Active; 'I' for Inactive)
REMARK    1  A    between atoms: C_1  and  O_2
REMARK    2  A    between atoms: O_2  and  C_3
REMARK    3  A    between atoms: N_10  and  C_11
REMARK    4  A    between atoms: C_23  and  O_24
REMARK    5  A    between atoms: O_24  and  C_25
REMARK    6  A    between atoms: C_25  and  C_26
REMARK    7  A    between atoms: C_26  and  C_27
REMARK    8  A    between atoms: C_27  and  N_28
REMARK                            x       y       z     vdW  Elec       q    Type
REMARK                         _______ _______ _______ _____ _____    ______ ____
ROOT
ATOM      1  C   UNL     1       1.937   6.524  20.274  0.00  0.00    +0.000 A 
ATOM      2  C   UNL     1       1.289   7.174  21.330  0.00  0.00    +0.000 A 
ATOM      3  C   UNL     1       0.929   8.513  21.277  0.00  0.00    +0.000 A 
ATOM      4  N   UNL     1       0.304   9.032  22.334  0.00  0.00    +0.000 NA
ATOM      5  C   UNL     1      -0.057  10.314  22.244  0.00  0.00    +0.000 A 
ATOM      6  N   UNL     1       0.123  11.106  21.187  0.00  0.00    +0.000 NA
ATOM      7  C   UNL     1       0.767  10.578  20.127  0.00  0.00    +0.000 A 
ATOM      8  N   UNL     1       0.941  11.391  18.970  0.00  0.00    +0.000 N 
ATOM      9  C   UNL     1       1.218   9.248  20.123  0.00  0.00    +0.000 A 
ATOM     10  C   UNL     1       1.889   8.613  19.053  0.00  0.00    +0.000 A 
ATOM     11  C   UNL     1       2.187   7.246  19.100  0.00  0.00    +0.000 A 
ATOM     12  H   UNL     1       0.395  10.980  18.213  0.00  0.00    +0.000 HD
ENDROOT
BRANCH   8  13
ATOM     13  C   UNL     1       0.749  12.798  18.986  0.00  0.00    +0.000 A 
ATOM     14  C   UNL     1      -0.495  13.426  18.764  0.00  0.00    +0.000 A 
ATOM     15 CL   UNL     1      -1.980  12.534  18.671  0.00  0.00    +0.000 Cl
ATOM     16  C   UNL     1      -0.598  14.829  18.684  0.00  0.00    +0.000 A 
ATOM     17  C   UNL     1       0.524  15.639  18.866  0.00  0.00    +0.000 A 
ATOM     18  C   UNL     1       1.715  15.017  19.164  0.00  0.00    +0.000 A 
ATOM     19  C   UNL     1       1.825  13.644  19.230  0.00  0.00    +0.000 A 
ATOM     20  O   UNL     1       3.097  13.252  19.541  0.00  0.00    +0.000 OA
ATOM     21  C   UNL     1       3.738  14.532  19.738  0.00  0.00    +0.000 C 
ATOM     22  O   UNL     1       2.890  15.651  19.419  0.00  0.00    +0.000 OA
ENDBRANCH   8  13
BRANCH   1  24
ATOM     23  C   UNL     1       1.229   4.226  20.235  0.00  0.00    +0.000 C 
ATOM     24  O   UNL     1       2.267   5.199  20.307  0.00  0.00    +0.000 OA
ENDBRANCH   1  24
BRANCH  11  25
ATOM     25  O   UNL     1       2.702   6.754  17.933  0.00  0.00    +0.000 OA
BRANCH  25  26
ATOM     26  C   UNL     1       3.769   7.487  17.316  0.00  0.00    +0.000 C 
BRANCH  26  27
ATOM     27  C   UNL     1       4.607   6.697  16.299  0.00  0.00    +0.000 C 
BRANCH  27  28
ATOM     28  C   UNL     1       6.053   6.507  16.776  0.00  0.00    +0.000 C 
BRANCH  28  29
ATOM     29  N   UNL     1       6.406   5.113  17.110  0.00  0.00    +0.000 NA
ATOM     30  C   UNL     1       5.441   4.560  18.095  0.00  0.00    +0.000 C 
ATOM     31  C   UNL     1       5.592   5.150  19.510  0.00  0.00    +0.000 C 
ATOM     32  O   UNL     1       6.924   4.983  20.011  0.00  0.00    +0.000 OA
ATOM     33  C   UNL     1       7.890   5.542  19.112  0.00  0.00    +0.000 C 
ATOM     34  C   UNL     1       7.757   4.956  17.698  0.00  0.00    +0.000 C 
ENDBRANCH  28  29
ENDBRANCH  27  28
ENDBRANCH  26  27
ENDBRANCH  25  26
ENDBRANCH  11  25
TORSDOF 7
ENDMDL
MODEL 5
REMARK VINA RESULT:      -7.3      3.796      6.337
REMARK  Name = 
REMARK  8 active torsions:
REMARK  status: ('A' for Active; 'I' for Inactive)
REMARK    1  A    between atoms: C_1  and  O_2
REMARK    2  A    between atoms: O_2  and  C_3
REMARK    3  A    between atoms: N_10  and  C_11
REMARK    4  A    between atoms: C_23  and  O_24
REMARK    5  A    between atoms: O_24  and  C_25
REMARK    6  A    between atoms: C_25  and  C_26
REMARK    7  A    between atoms: C_26  and  C_27
REMARK    8  A    between atoms: C_27  and  N_28
REMARK                            x       y       z     vdW  Elec       q    Type
REMARK                         _______ _______ _______ _____ _____    ______ ____
ROOT
ATOM      1  C   UNL     1       1.902   6.370  20.513  0.00  0.00    +0.000 A 
ATOM      2  C   UNL     1       1.007   6.974  21.403  0.00  0.00    +0.000 A 
ATOM      3  C   UNL     1       0.637   8.308  21.305  0.00  0.00    +0.000 A 
ATOM      4  N   UNL     1      -0.233   8.780  22.198  0.00  0.00    +0.000 NA
ATOM      5  C   UNL     1      -0.593  10.058  22.062  0.00  0.00    +0.000 A 
ATOM      6  N   UNL     1      -0.187  10.888  21.101  0.00  0.00    +0.000 NA
ATOM      7  C   UNL     1       0.703  10.407  20.209  0.00  0.00    +0.000 A 
ATOM      8  N   UNL     1       1.127  11.262  19.152  0.00  0.00    +0.000 N 
ATOM      9  C   UNL     1       1.174   9.086  20.274  0.00  0.00    +0.000 A 
ATOM     10  C   UNL     1       2.094   8.499  19.377  0.00  0.00    +0.000 A 
ATOM     11  C   UNL     1       2.406   7.136  19.454  0.00  0.00    +0.000 A 
ATOM     12  H   UNL     1       0.786  10.868  18.275  0.00  0.00    +0.000 HD
ENDROOT
BRANCH   8  13
ATOM     13  C   UNL     1       0.903  12.664  19.162  0.00  0.00    +0.000 A 
ATOM     14  C   UNL     1      -0.187  13.293  18.523  0.00  0.00    +0.000 A 
ATOM     15 CL   UNL     1      -1.504  12.395  17.839  0.00  0.00    +0.000 Cl
ATOM     16  C   UNL     1      -0.292  14.697  18.478  0.00  0.00    +0.000 A 
ATOM     17  C   UNL     1       0.658  15.505  19.104  0.00  0.00    +0.000 A 
ATOM     18  C   UNL     1       1.669  14.878  19.795  0.00  0.00    +0.000 A 
ATOM     19  C   UNL     1       1.786  13.505  19.831  0.00  0.00    +0.000 A 
ATOM     20  O   UNL     1       2.862  13.107  20.575  0.00  0.00    +0.000 OA
ATOM     21  C   UNL     1       3.346  14.379  21.058  0.00  0.00    +0.000 C 
ATOM     22  O   UNL     1       2.646  15.508  20.500  0.00  0.00    +0.000 OA
ENDBRANCH   8  13
BRANCH   1  24
ATOM     23  C   UNL     1       1.216   4.068  20.617  0.00  0.00    +0.000 C 
ATOM     24  O   UNL     1       2.246   5.051  20.585  0.00  0.00    +0.000 OA
ENDBRANCH   1  24
BRANCH  11  25
ATOM     25  O   UNL     1       3.195   6.692  18.429  0.00  0.00    +0.000 OA
BRANCH  25  26
ATOM     26  C   UNL     1       2.713   5.589  17.650  0.00  0.00    +0.000 C 
BRANCH  26  27
ATOM     27  C   UNL     1       3.667   4.388  17.551  0.00  0.00    +0.000 C 
BRANCH  27  28
ATOM     28  C   UNL     1       5.025   4.683  18.201  0.00  0.00    +0.000 C 
BRANCH  28  29
ATOM     29  N   UNL     1       6.153   4.753  17.251  0.00  0.00    +0.000 NA
ATOM     30  C   UNL     1       7.445   4.665  17.979  0.00  0.00    +0.000 C 
ATOM     31  C   UNL     1       7.787   5.930  18.790  0.00  0.00    +0.000 C 
ATOM     32  O   UNL     1       7.790   7.101  17.965  0.00  0.00    +0.000 OA
ATOM     33  C   UNL     1       6.544   7.252  17.274  0.00  0.00    +0.000 C 
ATOM     34  C   UNL     1       6.194   6.002  16.453  0.00  0.00    +0.000 C 
ENDBRANCH  28  29
ENDBRANCH  27  28
ENDBRANCH  26  27
ENDBRANCH  25  26
ENDBRANCH  11  25
TORSDOF 7
ENDMDL
MODEL 6
REMARK VINA RESULT:      -7.2      4.358      7.049
REMARK  Name = 
REMARK  8 active torsions:
REMARK  status: ('A' for Active; 'I' for Inactive)
REMARK    1  A    between atoms: C_1  and  O_2
REMARK    2  A    between atoms: O_2  and  C_3
REMARK    3  A    between atoms: N_10  and  C_11
REMARK    4  A    between atoms: C_23  and  O_24
REMARK    5  A    between atoms: O_24  and  C_25
REMARK    6  A    between atoms: C_25  and  C_26
REMARK    7  A    between atoms: C_26  and  C_27
REMARK    8  A    between atoms: C_27  and  N_28
REMARK                            x       y       z     vdW  Elec       q    Type
REMARK                         _______ _______ _______ _____ _____    ______ ____
ROOT
ATOM      1  C   UNL     1       1.743   7.318  20.323  0.00  0.00    +0.000 A 
ATOM      2  C   UNL     1       1.202   7.706  21.555  0.00  0.00    +0.000 A 
ATOM      3  C   UNL     1       0.576   8.929  21.745  0.00  0.00    +0.000 A 
ATOM      4  N   UNL     1       0.085   9.194  22.956  0.00  0.00    +0.000 NA
ATOM      5  C   UNL     1      -0.538  10.365  23.104  0.00  0.00    +0.000 A 
ATOM      6  N   UNL     1      -0.738  11.272  22.147  0.00  0.00    +0.000 NA
ATOM      7  C   UNL     1      -0.227  11.003  20.929  0.00  0.00    +0.000 A 
ATOM      8  N   UNL     1      -0.456  11.938  19.879  0.00  0.00    +0.000 N 
ATOM      9  C   UNL     1       0.473   9.814  20.668  0.00  0.00    +0.000 A 
ATOM     10  C   UNL     1       1.029   9.448  19.421  0.00  0.00    +0.000 A 
ATOM     11  C   UNL     1       1.601   8.183  19.231  0.00  0.00    +0.000 A 
ATOM     12  H   UNL     1      -1.049  11.488  19.182  0.00  0.00    +0.000 HD
ENDROOT
BRANCH   8  13
ATOM     13  C   UNL     1      -0.922  13.258  20.117  0.00  0.00    +0.000 A 
ATOM     14  C   UNL     1      -0.089  14.396  20.141  0.00  0.00    +0.000 A 
ATOM     15 CL   UNL     1       1.575  14.336  19.655  0.00  0.00    +0.000 Cl
ATOM     16  C   UNL     1      -0.596  15.663  20.492  0.00  0.00    +0.000 A 
ATOM     17  C   UNL     1      -1.950  15.834  20.784  0.00  0.00    +0.000 A 
ATOM     18  C   UNL     1      -2.767  14.733  20.675  0.00  0.00    +0.000 A 
ATOM     19  C   UNL     1      -2.275  13.488  20.346  0.00  0.00    +0.000 A 
ATOM     20  O   UNL     1      -3.266  12.548  20.297  0.00  0.00    +0.000 OA
ATOM     21  C   UNL     1      -4.430  13.363  20.552  0.00  0.00    +0.000 C 
ATOM     22  O   UNL     1      -4.112  14.730  20.874  0.00  0.00    +0.000 OA
ENDBRANCH   8  13
BRANCH   1  24
ATOM     23  C   UNL     1       1.566   4.920  20.319  0.00  0.00    +0.000 C 
ATOM     24  O   UNL     1       2.333   6.103  20.119  0.00  0.00    +0.000 OA
ENDBRANCH   1  24
BRANCH  11  25
ATOM     25  O   UNL     1       1.960   7.930  17.937  0.00  0.00    +0.000 OA
BRANCH  25  26
ATOM     26  C   UNL     1       3.308   8.229  17.550  0.00  0.00    +0.000 C 
BRANCH  26  27
ATOM     27  C   UNL     1       4.315   7.084  17.741  0.00  0.00    +0.000 C 
BRANCH  27  28
ATOM     28  C   UNL     1       4.843   6.558  16.399  0.00  0.00    +0.000 C 
BRANCH  28  29
ATOM     29  N   UNL     1       4.930   5.087  16.313  0.00  0.00    +0.000 NA
ATOM     30  C   UNL     1       5.723   4.552  17.450  0.00  0.00    +0.000 C 
ATOM     31  C   UNL     1       7.231   4.849  17.348  0.00  0.00    +0.000 C 
ATOM     32  O   UNL     1       7.783   4.363  16.119  0.00  0.00    +0.000 OA
ATOM     33  C   UNL     1       7.075   4.888  14.989  0.00  0.00    +0.000 C 
ATOM     34  C   UNL     1       5.570   4.592  15.072  0.00  0.00    +0.000 C 
ENDBRANCH  28  29
ENDBRANCH  27  28
ENDBRANCH  26  27
ENDBRANCH  25  26
ENDBRANCH  11  25
TORSDOF 7
ENDMDL
MODEL 7
REMARK VINA RESULT:      -7.2      4.566      8.810
REMARK  Name = 
REMARK  8 active torsions:
REMARK  status: ('A' for Active; 'I' for Inactive)
REMARK    1  A    between atoms: C_1  and  O_2
REMARK    2  A    between atoms: O_2  and  C_3
REMARK    3  A    between atoms: N_10  and  C_11
REMARK    4  A    between atoms: C_23  and  O_24
REMARK    5  A    between atoms: O_24  and  C_25
REMARK    6  A    between atoms: C_25  and  C_26
REMARK    7  A    between atoms: C_26  and  C_27
REMARK    8  A    between atoms: C_27  and  N_28
REMARK                            x       y       z     vdW  Elec       q    Type
REMARK                         _______ _______ _______ _____ _____    ______ ____
ROOT
ATOM      1  C   UNL     1      -0.933  10.740  18.595  0.00  0.00    +0.000 A 
ATOM      2  C   UNL     1      -1.386  11.969  19.088  0.00  0.00    +0.000 A 
ATOM      3  C   UNL     1      -0.526  13.013  19.398  0.00  0.00    +0.000 A 
ATOM      4  N   UNL     1      -1.062  14.147  19.850  0.00  0.00    +0.000 NA
ATOM      5  C   UNL     1      -0.215  15.145  20.112  0.00  0.00    +0.000 A 
ATOM      6  N   UNL     1       1.106  15.118  19.933  0.00  0.00    +0.000 NA
ATOM      7  C   UNL     1       1.642  13.963  19.489  0.00  0.00    +0.000 A 
ATOM      8  N   UNL     1       3.047  13.918  19.256  0.00  0.00    +0.000 N 
ATOM      9  C   UNL     1       0.849  12.840  19.209  0.00  0.00    +0.000 A 
ATOM     10  C   UNL     1       1.326  11.598  18.730  0.00  0.00    +0.000 A 
ATOM     11  C   UNL     1       0.438  10.579  18.363  0.00  0.00    +0.000 A 
ATOM     12  H   UNL     1       3.195  13.794  18.255  0.00  0.00    +0.000 HD
ENDROOT
BRANCH   8  13
ATOM     13  C   UNL     1       3.938  14.908  19.749  0.00  0.00    +0.000 A 
ATOM     14  C   UNL     1       4.295  16.072  19.037  0.00  0.00    +0.000 A 
ATOM     15 CL   UNL     1       3.503  16.538  17.565  0.00  0.00    +0.000 Cl
ATOM     16  C   UNL     1       5.269  16.960  19.535  0.00  0.00    +0.000 A 
ATOM     17  C   UNL     1       5.877  16.733  20.770  0.00  0.00    +0.000 A 
ATOM     18  C   UNL     1       5.460  15.639  21.492  0.00  0.00    +0.000 A 
ATOM     19  C   UNL     1       4.518  14.759  21.005  0.00  0.00    +0.000 A 
ATOM     20  O   UNL     1       4.259  13.751  21.891  0.00  0.00    +0.000 OA
ATOM     21  C   UNL     1       5.083  14.150  23.008  0.00  0.00    +0.000 C 
ATOM     22  O   UNL     1       5.908  15.297  22.729  0.00  0.00    +0.000 OA
ENDBRANCH   8  13
BRANCH   1  24
ATOM     23  C   UNL     1      -2.612   9.861  17.116  0.00  0.00    +0.000 C 
ATOM     24  O   UNL     1      -1.775   9.718  18.259  0.00  0.00    +0.000 OA
ENDBRANCH   1  24
BRANCH  11  25
ATOM     25  O   UNL     1       1.047   9.501  17.783  0.00  0.00    +0.000 OA
BRANCH  25  26
ATOM     26  C   UNL     1       1.829   8.646  18.628  0.00  0.00    +0.000 C 
BRANCH  26  27
ATOM     27  C   UNL     1       2.904   7.816  17.909  0.00  0.00    +0.000 C 
BRANCH  27  28
ATOM     28  C   UNL     1       2.921   6.360  18.395  0.00  0.00    +0.000 C 
BRANCH  28  29
ATOM     29  N   UNL     1       3.753   5.455  17.577  0.00  0.00    +0.000 NA
ATOM     30  C   UNL     1       3.539   4.045  17.991  0.00  0.00    +0.000 C 
ATOM     31  C   UNL     1       4.156   3.701  19.361  0.00  0.00    +0.000 C 
ATOM     32  O   UNL     1       5.557   3.995  19.397  0.00  0.00    +0.000 OA
ATOM     33  C   UNL     1       5.810   5.361  19.045  0.00  0.00    +0.000 C 
ATOM     34  C   UNL     1       5.208   5.717  17.677  0.00  0.00    +0.000 C 
ENDBRANCH  28  29
ENDBRANCH  27  28
ENDBRANCH  26  27
ENDBRANCH  25  26
ENDBRANCH  11  25
TORSDOF 7
ENDMDL
MODEL 8
REMARK VINA RESULT:      -7.2      4.011     10.415
REMARK  Name = 
REMARK  8 active torsions:
REMARK  status: ('A' for Active; 'I' for Inactive)
REMARK    1  A    between atoms: C_1  and  O_2
REMARK    2  A    between atoms: O_2  and  C_3
REMARK    3  A    between atoms: N_10  and  C_11
REMARK    4  A    between atoms: C_23  and  O_24
REMARK    5  A    between atoms: O_24  and  C_25
REMARK    6  A    between atoms: C_25  and  C_26
REMARK    7  A    between atoms: C_26  and  C_27
REMARK    8  A    between atoms: C_27  and  N_28
REMARK                            x       y       z     vdW  Elec       q    Type
REMARK                         _______ _______ _______ _____ _____    ______ ____
ROOT
ATOM      1  C   UNL     1      -1.496  11.638  19.673  0.00  0.00    +0.000 A 
ATOM      2  C   UNL     1      -0.867  11.296  20.875  0.00  0.00    +0.000 A 
ATOM      3  C   UNL     1       0.058  10.266  20.969  0.00  0.00    +0.000 A 
ATOM      4  N   UNL     1       0.607  10.030  22.161  0.00  0.00    +0.000 NA
ATOM      5  C   UNL     1       1.516   9.053  22.216  0.00  0.00    +0.000 A 
ATOM      6  N   UNL     1       1.941   8.320  21.187  0.00  0.00    +0.000 NA
ATOM      7  C   UNL     1       1.371   8.555  19.988  0.00  0.00    +0.000 A 
ATOM      8  N   UNL     1       1.832   7.810  18.865  0.00  0.00    +0.000 N 
ATOM      9  C   UNL     1       0.383   9.539  19.820  0.00  0.00    +0.000 A 
ATOM     10  C   UNL     1      -0.255   9.858  18.600  0.00  0.00    +0.000 A 
ATOM     11  C   UNL     1      -1.139  10.941  18.512  0.00  0.00    +0.000 A 
ATOM     12  H   UNL     1       2.283   8.461  18.221  0.00  0.00    +0.000 HD
ENDROOT
BRANCH   8  13
ATOM     13  C   UNL     1       2.627   6.642  18.994  0.00  0.00    +0.000 A 
ATOM     14  C   UNL     1       2.262   5.521  19.769  0.00  0.00    +0.000 A 
ATOM     15 CL   UNL     1       0.686   5.355  20.474  0.00  0.00    +0.000 Cl
ATOM     16  C   UNL     1       3.146   4.438  19.945  0.00  0.00    +0.000 A 
ATOM     17  C   UNL     1       4.393   4.425  19.319  0.00  0.00    +0.000 A 
ATOM     18  C   UNL     1       4.703   5.486  18.499  0.00  0.00    +0.000 A 
ATOM     19  C   UNL     1       3.849   6.555  18.334  0.00  0.00    +0.000 A 
ATOM     20  O   UNL     1       4.362   7.487  17.476  0.00  0.00    +0.000 OA
ATOM     21  C   UNL     1       5.587   6.839  17.069  0.00  0.00    +0.000 C 
ATOM     22  O   UNL     1       5.848   5.611  17.776  0.00  0.00    +0.000 OA
ENDBRANCH   8  13
BRANCH   1  24
ATOM     23  C   UNL     1      -2.708  13.427  20.729  0.00  0.00    +0.000 C 
ATOM     24  O   UNL     1      -2.385  12.670  19.566  0.00  0.00    +0.000 OA
ENDBRANCH   1  24
BRANCH  11  25
ATOM     25  O   UNL     1      -1.557  11.208  17.238  0.00  0.00    +0.000 OA
BRANCH  25  26
ATOM     26  C   UNL     1      -2.668  10.455  16.733  0.00  0.00    +0.000 C 
BRANCH  26  27
ATOM     27  C   UNL     1      -4.030  11.164  16.804  0.00  0.00    +0.000 C 
BRANCH  27  28
ATOM     28  C   UNL     1      -4.807  10.781  18.070  0.00  0.00    +0.000 C 
BRANCH  28  29
ATOM     29  N   UNL     1      -6.259  11.037  17.994  0.00  0.00    +0.000 NA
ATOM     30  C   UNL     1      -6.515  12.482  17.760  0.00  0.00    +0.000 C 
ATOM     31  C   UNL     1      -6.218  13.370  18.983  0.00  0.00    +0.000 C 
ATOM     32  O   UNL     1      -6.953  12.942  20.136  0.00  0.00    +0.000 OA
ATOM     33  C   UNL     1      -6.704  11.561  20.427  0.00  0.00    +0.000 C 
ATOM     34  C   UNL     1      -7.004  10.662  19.219  0.00  0.00    +0.000 C 
ENDBRANCH  28  29
ENDBRANCH  27  28
ENDBRANCH  26  27
ENDBRANCH  25  26
ENDBRANCH  11  25
TORSDOF 7
ENDMDL
MODEL 9
REMARK VINA RESULT:      -7.1      3.933      6.897
REMARK  Name = 
REMARK  8 active torsions:
REMARK  status: ('A' for Active; 'I' for Inactive)
REMARK    1  A    between atoms: C_1  and  O_2
REMARK    2  A    between atoms: O_2  and  C_3
REMARK    3  A    between atoms: N_10  and  C_11
REMARK    4  A    between atoms: C_23  and  O_24
REMARK    5  A    between atoms: O_24  and  C_25
REMARK    6  A    between atoms: C_25  and  C_26
REMARK    7  A    between atoms: C_26  and  C_27
REMARK    8  A    between atoms: C_27  and  N_28
REMARK                            x       y       z     vdW  Elec       q    Type
REMARK                         _______ _______ _______ _____ _____    ______ ____
ROOT
ATOM      1  C   UNL     1       1.652   7.431  20.382  0.00  0.00    +0.000 A 
ATOM      2  C   UNL     1       1.107   7.816  21.613  0.00  0.00    +0.000 A 
ATOM      3  C   UNL     1       0.492   9.044  21.809  0.00  0.00    +0.000 A 
ATOM      4  N   UNL     1      -0.004   9.305  23.018  0.00  0.00    +0.000 NA
ATOM      5  C   UNL     1      -0.616  10.482  23.170  0.00  0.00    +0.000 A 
ATOM      6  N   UNL     1      -0.800  11.398  22.218  0.00  0.00    +0.000 NA
ATOM      7  C   UNL     1      -0.283  11.132  21.002  0.00  0.00    +0.000 A 
ATOM      8  N   UNL     1      -0.496  12.077  19.958  0.00  0.00    +0.000 N 
ATOM      9  C   UNL     1       0.406   9.938  20.737  0.00  0.00    +0.000 A 
ATOM     10  C   UNL     1       0.967   9.575  19.491  0.00  0.00    +0.000 A 
ATOM     11  C   UNL     1       1.527   8.306  19.296  0.00  0.00    +0.000 A 
ATOM     12  H   UNL     1      -1.088  11.638  19.253  0.00  0.00    +0.000 HD
ENDROOT
BRANCH   8  13
ATOM     13  C   UNL     1      -0.949  13.400  20.202  0.00  0.00    +0.000 A 
ATOM     14  C   UNL     1      -0.105  14.530  20.237  0.00  0.00    +0.000 A 
ATOM     15 CL   UNL     1       1.561  14.456  19.758  0.00  0.00    +0.000 Cl
ATOM     16  C   UNL     1      -0.601  15.799  20.593  0.00  0.00    +0.000 A 
ATOM     17  C   UNL     1      -1.954  15.982  20.880  0.00  0.00    +0.000 A 
ATOM     18  C   UNL     1      -2.782  14.890  20.761  0.00  0.00    +0.000 A 
ATOM     19  C   UNL     1      -2.301  13.642  20.426  0.00  0.00    +0.000 A 
ATOM     20  O   UNL     1      -3.301  12.712  20.366  0.00  0.00    +0.000 OA
ATOM     21  C   UNL     1      -4.458  13.538  20.621  0.00  0.00    +0.000 C 
ATOM     22  O   UNL     1      -4.128  14.900  20.954  0.00  0.00    +0.000 OA
ENDBRANCH   8  13
BRANCH   1  24
ATOM     23  C   UNL     1       1.522   5.036  20.554  0.00  0.00    +0.000 C 
ATOM     24  O   UNL     1       2.231   6.212  20.174  0.00  0.00    +0.000 OA
ENDBRANCH   1  24
BRANCH  11  25
ATOM     25  O   UNL     1       1.892   8.058  18.002  0.00  0.00    +0.000 OA
BRANCH  25  26
ATOM     26  C   UNL     1       3.285   7.854  17.732  0.00  0.00    +0.000 C 
BRANCH  26  27
ATOM     27  C   UNL     1       3.683   6.412  17.384  0.00  0.00    +0.000 C 
BRANCH  27  28
ATOM     28  C   UNL     1       4.968   5.983  18.105  0.00  0.00    +0.000 C 
BRANCH  28  29
ATOM     29  N   UNL     1       6.203   6.573  17.552  0.00  0.00    +0.000 NA
ATOM     30  C   UNL     1       6.346   6.215  16.118  0.00  0.00    +0.000 C 
ATOM     31  C   UNL     1       6.706   4.736  15.880  0.00  0.00    +0.000 C 
ATOM     32  O   UNL     1       7.900   4.365  16.579  0.00  0.00    +0.000 OA
ATOM     33  C   UNL     1       7.792   4.653  17.979  0.00  0.00    +0.000 C 
ATOM     34  C   UNL     1       7.442   6.127  18.232  0.00  0.00    +0.000 C 
ENDBRANCH  28  29
ENDBRANCH  27  28
ENDBRANCH  26  27
ENDBRANCH  25  26
ENDBRANCH  11  25
TORSDOF 7
ENDMDL
