MODEL 1
REMARK VINA RESULT:      -7.7      0.000      0.000
REMARK  Name = 
REMARK  10 active torsions:
REMARK  status: ('A' for Active; 'I' for Inactive)
REMARK    1  A    between atoms: C_2  and  C_3
REMARK    2  A    between atoms: C_6  and  O_7
REMARK    3  A    between atoms: O_7  and  C_8
REMARK    4  A    between atoms: C_11  and  C_12
REMARK    5  A    between atoms: C_12  and  O_14
REMARK    6  A    between atoms: C_15  and  C_16
REMARK    7  A    between atoms: C_16  and  O_18
REMARK    8  A    between atoms: C_20  and  N_21
REMARK    9  A    between atoms: C_22  and  C_24
REMARK   10  A    between atoms: C_28  and  N_29
REMARK                            x       y       z     vdW  Elec       q    Type
REMARK                         _______ _______ _______ _____ _____    ______ ____
ROOT
ATOM      1  C   UNL     1       2.451   4.553  20.258  0.00  0.00    +0.000 A 
ATOM      2  C   UNL     1       1.903   5.760  20.679  0.00  0.00    +0.000 A 
ATOM      3  C   UNL     1       2.005   6.879  19.865  0.00  0.00    +0.000 A 
ATOM      4  C   UNL     1       2.598   6.796  18.591  0.00  0.00    +0.000 A 
ATOM      5  C   UNL     1       3.232   5.601  18.184  0.00  0.00    +0.000 A 
ATOM      6  C   UNL     1       3.115   4.475  19.029  0.00  0.00    +0.000 A 
ENDROOT
BRANCH   5   7
ATOM      7  N   UNL     1       4.007   5.403  16.994  0.00  0.00    +0.000 N 
ATOM      8  C   UNL     1       5.265   4.828  16.931  0.00  0.00    +0.000 C 
ATOM      9  O   UNL     1       5.912   4.398  17.878  0.00  0.00    +0.000 OA
ATOM     10  H   UNL     1       3.493   5.457  16.124  0.00  0.00    +0.000 HD
BRANCH   8  11
ATOM     11  C   UNL     1       5.854   4.607  15.573  0.00  0.00    +0.000 A 
ATOM     12  C   UNL     1       7.081   5.247  15.310  0.00  0.00    +0.000 A 
ATOM     13  C   UNL     1       7.683   5.180  14.054  0.00  0.00    +0.000 A 
ATOM     14  C   UNL     1       7.064   4.471  13.031  0.00  0.00    +0.000 A 
ATOM     15  C   UNL     1       5.843   3.826  13.281  0.00  0.00    +0.000 A 
ATOM     16  C   UNL     1       5.231   3.882  14.550  0.00  0.00    +0.000 A 
BRANCH  15  17
ATOM     17  N   UNL     1       5.179   3.108  12.183  0.00  0.00    +0.000 N 
ATOM     18  O   UNL     1       4.080   3.529  11.796  0.00  0.00    +0.000 OA
ATOM     19  O   UNL     1       5.764   2.124  11.710  0.00  0.00    +0.000 OA
ENDBRANCH  15  17
ENDBRANCH   8  11
ENDBRANCH   5   7
BRANCH   1  21
ATOM     20  N   UNL     1       2.286   2.468  21.791  0.00  0.00    +0.000 NA
ATOM     21  C   UNL     1       2.357   3.404  21.104  0.00  0.00    +0.000 C 
ENDBRANCH   1  21
BRANCH   4  22
ATOM     22  O   UNL     1       2.555   7.884  17.747  0.00  0.00    +0.000 OA
BRANCH  22  23
ATOM     23  C   UNL     1       1.699   8.932  17.990  0.00  0.00    +0.000 A 
ATOM     24  C   UNL     1       2.225  10.020  18.668  0.00  0.00    +0.000 A 
ATOM     25  C   UNL     1       1.432  11.150  18.886  0.00  0.00    +0.000 A 
ATOM     26  C   UNL     1       0.103  11.240  18.407  0.00  0.00    +0.000 A 
ATOM     27  C   UNL     1      -0.426  10.121  17.733  0.00  0.00    +0.000 A 
ATOM     28  C   UNL     1       0.380   8.977  17.537  0.00  0.00    +0.000 A 
BRANCH  26  29
ATOM     29  C   UNL     1      -0.526  12.591  18.616  0.00  0.00    +0.000 C 
ATOM     30  O   UNL     1      -0.541  13.099  19.731  0.00  0.00    +0.000 OA
BRANCH  29  31
ATOM     31  O   UNL     1      -0.969  13.289  17.560  0.00  0.00    +0.000 OA
ATOM     32  H   UNL     1      -0.676  14.227  17.488  0.00  0.00    +0.000 HD
ENDBRANCH  29  31
ENDBRANCH  26  29
BRANCH  27  33
ATOM     33  C   UNL     1      -1.833  10.035  17.279  0.00  0.00    +0.000 C 
ATOM     34  O   UNL     1      -2.680   9.440  17.924  0.00  0.00    +0.000 OA
BRANCH  33  35
ATOM     35  O   UNL     1      -2.122  10.658  16.120  0.00  0.00    +0.000 OA
ATOM     36  H   UNL     1      -2.458  10.115  15.383  0.00  0.00    +0.000 HD
ENDBRANCH  33  35
ENDBRANCH  27  33
ENDBRANCH  22  23
ENDBRANCH   4  22
TORSDOF 10
ENDMDL
MODEL 2
REMARK VINA RESULT:      -7.6      1.007      1.992
REMARK  Name = 
REMARK  10 active torsions:
REMARK  status: ('A' for Active; 'I' for Inactive)
REMARK    1  A    between atoms: C_2  and  C_3
REMARK    2  A    between atoms: C_6  and  O_7
REMARK    3  A    between atoms: O_7  and  C_8
REMARK    4  A    between atoms: C_11  and  C_12
REMARK    5  A    between atoms: C_12  and  O_14
REMARK    6  A    between atoms: C_15  and  C_16
REMARK    7  A    between atoms: C_16  and  O_18
REMARK    8  A    between atoms: C_20  and  N_21
REMARK    9  A    between atoms: C_22  and  C_24
REMARK   10  A    between atoms: C_28  and  N_29
REMARK                            x       y       z     vdW  Elec       q    Type
REMARK                         _______ _______ _______ _____ _____    ______ ____
ROOT
ATOM      1  C   UNL     1       2.375   4.821  20.176  0.00  0.00    +0.000 A 
ATOM      2  C   UNL     1       1.906   6.066  20.581  0.00  0.00    +0.000 A 
ATOM      3  C   UNL     1       2.096   7.170  19.760  0.00  0.00    +0.000 A 
ATOM      4  C   UNL     1       2.699   7.036  18.496  0.00  0.00    +0.000 A 
ATOM      5  C   UNL     1       3.255   5.797  18.106  0.00  0.00    +0.000 A 
ATOM      6  C   UNL     1       3.049   4.688  18.957  0.00  0.00    +0.000 A 
ENDROOT
BRANCH   5   7
ATOM      7  N   UNL     1       4.030   5.537  16.929  0.00  0.00    +0.000 N 
ATOM      8  C   UNL     1       5.234   4.853  16.884  0.00  0.00    +0.000 C 
ATOM      9  O   UNL     1       5.823   4.363  17.839  0.00  0.00    +0.000 OA
ATOM     10  H   UNL     1       3.539   5.641  16.050  0.00  0.00    +0.000 HD
BRANCH   8  11
ATOM     11  C   UNL     1       5.826   4.588  15.535  0.00  0.00    +0.000 A 
ATOM     12  C   UNL     1       7.093   5.149  15.285  0.00  0.00    +0.000 A 
ATOM     13  C   UNL     1       7.705   5.038  14.036  0.00  0.00    +0.000 A 
ATOM     14  C   UNL     1       7.056   4.361  13.010  0.00  0.00    +0.000 A 
ATOM     15  C   UNL     1       5.795   3.794  13.248  0.00  0.00    +0.000 A 
ATOM     16  C   UNL     1       5.172   3.896  14.509  0.00  0.00    +0.000 A 
BRANCH  15  17
ATOM     17  N   UNL     1       5.103   3.111  12.145  0.00  0.00    +0.000 N 
ATOM     18  O   UNL     1       4.018   3.573  11.767  0.00  0.00    +0.000 OA
ATOM     19  O   UNL     1       5.651   2.111  11.660  0.00  0.00    +0.000 OA
ENDBRANCH  15  17
ENDBRANCH   8  11
ENDBRANCH   5   7
BRANCH   1  21
ATOM     20  N   UNL     1       2.037   2.770  21.725  0.00  0.00    +0.000 NA
ATOM     21  C   UNL     1       2.191   3.688  21.029  0.00  0.00    +0.000 C 
ENDBRANCH   1  21
BRANCH   4  22
ATOM     22  O   UNL     1       2.743   8.117  17.644  0.00  0.00    +0.000 OA
BRANCH  22  23
ATOM     23  C   UNL     1       1.952   9.221  17.864  0.00  0.00    +0.000 A 
ATOM     24  C   UNL     1       0.581   9.022  17.825  0.00  0.00    +0.000 A 
ATOM     25  C   UNL     1      -0.282  10.083  18.111  0.00  0.00    +0.000 A 
ATOM     26  C   UNL     1       0.197  11.365  18.476  0.00  0.00    +0.000 A 
ATOM     27  C   UNL     1       1.593  11.558  18.497  0.00  0.00    +0.000 A 
ATOM     28  C   UNL     1       2.454  10.482  18.186  0.00  0.00    +0.000 A 
BRANCH  26  29
ATOM     29  C   UNL     1      -0.889  12.322  18.887  0.00  0.00    +0.000 C 
ATOM     30  O   UNL     1      -1.472  12.173  19.954  0.00  0.00    +0.000 OA
BRANCH  29  31
ATOM     31  O   UNL     1      -1.139  13.405  18.136  0.00  0.00    +0.000 OA
ATOM     32  H   UNL     1      -1.425  13.248  17.206  0.00  0.00    +0.000 HD
ENDBRANCH  29  31
ENDBRANCH  26  29
BRANCH  27  33
ATOM     33  C   UNL     1       2.228  12.872  18.751  0.00  0.00    +0.000 C 
ATOM     34  O   UNL     1       2.307  13.339  19.875  0.00  0.00    +0.000 OA
BRANCH  33  35
ATOM     35  O   UNL     1       2.718  13.513  17.673  0.00  0.00    +0.000 OA
ATOM     36  H   UNL     1       2.438  13.203  16.792  0.00  0.00    +0.000 HD
ENDBRANCH  33  35
ENDBRANCH  27  33
ENDBRANCH  22  23
ENDBRANCH   4  22
TORSDOF 10
ENDMDL
MODEL 3
REMARK VINA RESULT:      -7.5      1.057      2.146
REMARK  Name = 
REMARK  10 active torsions:
REMARK  status: ('A' for Active; 'I' for Inactive)
REMARK    1  A    between atoms: C_2  and  C_3
REMARK    2  A    between atoms: C_6  and  O_7
REMARK    3  A    between atoms: O_7  and  C_8
REMARK    4  A    between atoms: C_11  and  C_12
REMARK    5  A    between atoms: C_12  and  O_14
REMARK    6  A    between atoms: C_15  and  C_16
REMARK    7  A    between atoms: C_16  and  O_18
REMARK    8  A    between atoms: C_20  and  N_21
REMARK    9  A    between atoms: C_22  and  C_24
REMARK   10  A    between atoms: C_28  and  N_29
REMARK                            x       y       z     vdW  Elec       q    Type
REMARK                         _______ _______ _______ _____ _____    ______ ____
ROOT
ATOM      1  C   UNL     1       2.262   4.913  20.564  0.00  0.00    +0.000 A 
ATOM      2  C   UNL     1       1.673   6.136  20.866  0.00  0.00    +0.000 A 
ATOM      3  C   UNL     1       1.892   7.225  20.033  0.00  0.00    +0.000 A 
ATOM      4  C   UNL     1       2.649   7.094  18.854  0.00  0.00    +0.000 A 
ATOM      5  C   UNL     1       3.321   5.882  18.578  0.00  0.00    +0.000 A 
ATOM      6  C   UNL     1       3.083   4.788  19.438  0.00  0.00    +0.000 A 
ENDROOT
BRANCH   5   7
ATOM      7  N   UNL     1       4.246   5.639  17.509  0.00  0.00    +0.000 N 
ATOM      8  C   UNL     1       4.464   4.422  16.886  0.00  0.00    +0.000 C 
ATOM      9  O   UNL     1       3.904   3.364  17.148  0.00  0.00    +0.000 OA
ATOM     10  H   UNL     1       4.570   6.461  17.016  0.00  0.00    +0.000 HD
BRANCH   8  11
ATOM     11  C   UNL     1       5.391   4.405  15.711  0.00  0.00    +0.000 A 
ATOM     12  C   UNL     1       6.560   5.182  15.823  0.00  0.00    +0.000 A 
ATOM     13  C   UNL     1       7.455   5.308  14.760  0.00  0.00    +0.000 A 
ATOM     14  C   UNL     1       7.193   4.659  13.559  0.00  0.00    +0.000 A 
ATOM     15  C   UNL     1       6.033   3.878  13.437  0.00  0.00    +0.000 A 
ATOM     16  C   UNL     1       5.127   3.739  14.508  0.00  0.00    +0.000 A 
BRANCH  15  17
ATOM     17  N   UNL     1       5.749   3.223  12.152  0.00  0.00    +0.000 N 
ATOM     18  O   UNL     1       6.657   2.566  11.623  0.00  0.00    +0.000 OA
ATOM     19  O   UNL     1       4.615   3.369  11.676  0.00  0.00    +0.000 OA
ENDBRANCH  15  17
ENDBRANCH   8  11
ENDBRANCH   5   7
BRANCH   1  21
ATOM     20  N   UNL     1       1.870   2.883  22.129  0.00  0.00    +0.000 NA
ATOM     21  C   UNL     1       2.046   3.795  21.430  0.00  0.00    +0.000 C 
ENDBRANCH   1  21
BRANCH   4  22
ATOM     22  O   UNL     1       2.728   8.150  17.973  0.00  0.00    +0.000 OA
BRANCH  22  23
ATOM     23  C   UNL     1       1.859   9.212  18.066  0.00  0.00    +0.000 A 
ATOM     24  C   UNL     1       0.512   8.928  17.909  0.00  0.00    +0.000 A 
ATOM     25  C   UNL     1      -0.434   9.946  18.062  0.00  0.00    +0.000 A 
ATOM     26  C   UNL     1      -0.066  11.269  18.409  0.00  0.00    +0.000 A 
ATOM     27  C   UNL     1       1.309  11.548  18.550  0.00  0.00    +0.000 A 
ATOM     28  C   UNL     1       2.255  10.514  18.373  0.00  0.00    +0.000 A 
BRANCH  26  29
ATOM     29  C   UNL     1      -1.238  12.175  18.671  0.00  0.00    +0.000 C 
ATOM     30  O   UNL     1      -1.323  12.783  19.731  0.00  0.00    +0.000 OA
BRANCH  29  31
ATOM     31  O   UNL     1      -2.132  12.403  17.697  0.00  0.00    +0.000 OA
ATOM     32  H   UNL     1      -2.267  11.685  17.037  0.00  0.00    +0.000 HD
ENDBRANCH  29  31
ENDBRANCH  26  29
BRANCH  27  33
ATOM     33  C   UNL     1       1.841  12.907  18.799  0.00  0.00    +0.000 C 
ATOM     34  O   UNL     1       2.372  13.560  17.916  0.00  0.00    +0.000 OA
BRANCH  33  35
ATOM     35  O   UNL     1       1.696  13.382  20.051  0.00  0.00    +0.000 OA
ATOM     36  H   UNL     1       2.351  13.109  20.720  0.00  0.00    +0.000 HD
ENDBRANCH  33  35
ENDBRANCH  27  33
ENDBRANCH  22  23
ENDBRANCH   4  22
TORSDOF 10
ENDMDL
MODEL 4
REMARK VINA RESULT:      -7.5      6.803      9.800
REMARK  Name = 
REMARK  10 active torsions:
REMARK  status: ('A' for Active; 'I' for Inactive)
REMARK    1  A    between atoms: C_2  and  C_3
REMARK    2  A    between atoms: C_6  and  O_7
REMARK    3  A    between atoms: O_7  and  C_8
REMARK    4  A    between atoms: C_11  and  C_12
REMARK    5  A    between atoms: C_12  and  O_14
REMARK    6  A    between atoms: C_15  and  C_16
REMARK    7  A    between atoms: C_16  and  O_18
REMARK    8  A    between atoms: C_20  and  N_21
REMARK    9  A    between atoms: C_22  and  C_24
REMARK   10  A    between atoms: C_28  and  N_29
REMARK                            x       y       z     vdW  Elec       q    Type
REMARK                         _______ _______ _______ _____ _____    ______ ____
ROOT
ATOM      1  C   UNL     1       0.435   9.250  21.629  0.00  0.00    +0.000 A 
ATOM      2  C   UNL     1      -0.422   9.224  22.724  0.00  0.00    +0.000 A 
ATOM      3  C   UNL     1      -1.009  10.403  23.161  0.00  0.00    +0.000 A 
ATOM      4  C   UNL     1      -0.802  11.614  22.474  0.00  0.00    +0.000 A 
ATOM      5  C   UNL     1       0.130  11.672  21.413  0.00  0.00    +0.000 A 
ATOM      6  C   UNL     1       0.715  10.461  20.985  0.00  0.00    +0.000 A 
ENDROOT
BRANCH   5   7
ATOM      7  N   UNL     1       0.565  12.849  20.718  0.00  0.00    +0.000 N 
ATOM      8  C   UNL     1      -0.172  13.560  19.787  0.00  0.00    +0.000 C 
ATOM      9  O   UNL     1      -1.309  13.298  19.410  0.00  0.00    +0.000 OA
ATOM     10  H   UNL     1       1.359  13.327  21.123  0.00  0.00    +0.000 HD
BRANCH   8  11
ATOM     11  C   UNL     1       0.421  14.830  19.262  0.00  0.00    +0.000 A 
ATOM     12  C   UNL     1      -0.480  15.877  18.987  0.00  0.00    +0.000 A 
ATOM     13  C   UNL     1      -0.051  17.077  18.419  0.00  0.00    +0.000 A 
ATOM     14  C   UNL     1       1.293  17.251  18.111  0.00  0.00    +0.000 A 
ATOM     15  C   UNL     1       2.202  16.216  18.383  0.00  0.00    +0.000 A 
ATOM     16  C   UNL     1       1.778  15.003  18.965  0.00  0.00    +0.000 A 
BRANCH  15  17
ATOM     17  N   UNL     1       3.615  16.397  18.022  0.00  0.00    +0.000 N 
ATOM     18  O   UNL     1       4.207  17.386  18.477  0.00  0.00    +0.000 OA
ATOM     19  O   UNL     1       4.128  15.546  17.282  0.00  0.00    +0.000 OA
ENDBRANCH  15  17
ENDBRANCH   8  11
ENDBRANCH   5   7
BRANCH   1  21
ATOM     20  N   UNL     1       1.545   7.048  20.827  0.00  0.00    +0.000 NA
ATOM     21  C   UNL     1       1.050   8.037  21.187  0.00  0.00    +0.000 C 
ENDBRANCH   1  21
BRANCH   4  22
ATOM     22  O   UNL     1      -1.511  12.736  22.841  0.00  0.00    +0.000 OA
BRANCH  22  23
ATOM     23  C   UNL     1      -2.873  12.682  23.018  0.00  0.00    +0.000 A 
ATOM     24  C   UNL     1      -3.335  12.789  24.320  0.00  0.00    +0.000 A 
ATOM     25  C   UNL     1      -4.711  12.814  24.568  0.00  0.00    +0.000 A 
ATOM     26  C   UNL     1      -5.664  12.767  23.522  0.00  0.00    +0.000 A 
ATOM     27  C   UNL     1      -5.181  12.643  22.204  0.00  0.00    +0.000 A 
ATOM     28  C   UNL     1      -3.790  12.598  21.969  0.00  0.00    +0.000 A 
BRANCH  26  29
ATOM     29  C   UNL     1      -7.083  12.956  23.987  0.00  0.00    +0.000 C 
ATOM     30  O   UNL     1      -7.884  12.033  23.913  0.00  0.00    +0.000 OA
BRANCH  29  31
ATOM     31  O   UNL     1      -7.439  14.102  24.588  0.00  0.00    +0.000 OA
ATOM     32  H   UNL     1      -7.687  14.050  25.539  0.00  0.00    +0.000 HD
ENDBRANCH  29  31
ENDBRANCH  26  29
BRANCH  27  33
ATOM     33  C   UNL     1      -6.065  12.470  21.027  0.00  0.00    +0.000 C 
ATOM     34  O   UNL     1      -6.552  11.388  20.745  0.00  0.00    +0.000 OA
BRANCH  33  35
ATOM     35  O   UNL     1      -6.305  13.576  20.297  0.00  0.00    +0.000 OA
ATOM     36  H   UNL     1      -6.455  14.413  20.775  0.00  0.00    +0.000 HD
ENDBRANCH  33  35
ENDBRANCH  27  33
ENDBRANCH  22  23
ENDBRANCH   4  22
TORSDOF 10
ENDMDL
MODEL 5
REMARK VINA RESULT:      -7.5      1.193      2.142
REMARK  Name = 
REMARK  10 active torsions:
REMARK  status: ('A' for Active; 'I' for Inactive)
REMARK    1  A    between atoms: C_2  and  C_3
REMARK    2  A    between atoms: C_6  and  O_7
REMARK    3  A    between atoms: O_7  and  C_8
REMARK    4  A    between atoms: C_11  and  C_12
REMARK    5  A    between atoms: C_12  and  O_14
REMARK    6  A    between atoms: C_15  and  C_16
REMARK    7  A    between atoms: C_16  and  O_18
REMARK    8  A    between atoms: C_20  and  N_21
REMARK    9  A    between atoms: C_22  and  C_24
REMARK   10  A    between atoms: C_28  and  N_29
REMARK                            x       y       z     vdW  Elec       q    Type
REMARK                         _______ _______ _______ _____ _____    ______ ____
ROOT
ATOM      1  C   UNL     1       2.106   4.440  20.751  0.00  0.00    +0.000 A 
ATOM      2  C   UNL     1       1.492   5.646  21.070  0.00  0.00    +0.000 A 
ATOM      3  C   UNL     1       1.752   6.772  20.300  0.00  0.00    +0.000 A 
ATOM      4  C   UNL     1       2.578   6.697  19.164  0.00  0.00    +0.000 A 
ATOM      5  C   UNL     1       3.275   5.501  18.875  0.00  0.00    +0.000 A 
ATOM      6  C   UNL     1       2.994   4.369  19.671  0.00  0.00    +0.000 A 
ENDROOT
BRANCH   5   7
ATOM      7  N   UNL     1       4.263   5.310  17.854  0.00  0.00    +0.000 N 
ATOM      8  C   UNL     1       4.215   4.361  16.847  0.00  0.00    +0.000 C 
ATOM      9  O   UNL     1       3.325   3.538  16.670  0.00  0.00    +0.000 OA
ATOM     10  H   UNL     1       4.903   6.081  17.715  0.00  0.00    +0.000 HD
BRANCH   8  11
ATOM     11  C   UNL     1       5.293   4.403  15.809  0.00  0.00    +0.000 A 
ATOM     12  C   UNL     1       6.432   5.172  16.118  0.00  0.00    +0.000 A 
ATOM     13  C   UNL     1       7.462   5.351  15.194  0.00  0.00    +0.000 A 
ATOM     14  C   UNL     1       7.369   4.764  13.937  0.00  0.00    +0.000 A 
ATOM     15  C   UNL     1       6.241   3.993  13.619  0.00  0.00    +0.000 A 
ATOM     16  C   UNL     1       5.198   3.800  14.549  0.00  0.00    +0.000 A 
BRANCH  15  17
ATOM     17  N   UNL     1       6.137   3.405  12.275  0.00  0.00    +0.000 N 
ATOM     18  O   UNL     1       7.189   3.163  11.666  0.00  0.00    +0.000 OA
ATOM     19  O   UNL     1       5.000   3.187  11.835  0.00  0.00    +0.000 OA
ENDBRANCH  15  17
ENDBRANCH   8  11
ENDBRANCH   5   7
BRANCH   1  21
ATOM     20  N   UNL     1       1.643   2.343  22.203  0.00  0.00    +0.000 NA
ATOM     21  C   UNL     1       1.847   3.284  21.552  0.00  0.00    +0.000 C 
ENDBRANCH   1  21
BRANCH   4  22
ATOM     22  O   UNL     1       2.702   7.792  18.337  0.00  0.00    +0.000 OA
BRANCH  22  23
ATOM     23  C   UNL     1       1.818   8.842  18.422  0.00  0.00    +0.000 A 
ATOM     24  C   UNL     1       0.776   8.852  17.509  0.00  0.00    +0.000 A 
ATOM     25  C   UNL     1      -0.200   9.851  17.582  0.00  0.00    +0.000 A 
ATOM     26  C   UNL     1      -0.182  10.847  18.588  0.00  0.00    +0.000 A 
ATOM     27  C   UNL     1       0.892  10.834  19.501  0.00  0.00    +0.000 A 
ATOM     28  C   UNL     1       1.882   9.832  19.402  0.00  0.00    +0.000 A 
BRANCH  26  29
ATOM     29  C   UNL     1      -1.397  11.735  18.583  0.00  0.00    +0.000 C 
ATOM     30  O   UNL     1      -2.153  11.752  19.547  0.00  0.00    +0.000 OA
BRANCH  29  31
ATOM     31  O   UNL     1      -1.591  12.591  17.568  0.00  0.00    +0.000 OA
ATOM     32  H   UNL     1      -1.434  12.248  16.658  0.00  0.00    +0.000 HD
ENDBRANCH  29  31
ENDBRANCH  26  29
BRANCH  27  33
ATOM     33  C   UNL     1       1.096  11.879  20.530  0.00  0.00    +0.000 C 
ATOM     34  O   UNL     1       0.676  11.750  21.668  0.00  0.00    +0.000 OA
BRANCH  33  35
ATOM     35  O   UNL     1       1.779  12.973  20.140  0.00  0.00    +0.000 OA
ATOM     36  H   UNL     1       1.354  13.569  19.496  0.00  0.00    +0.000 HD
ENDBRANCH  33  35
ENDBRANCH  27  33
ENDBRANCH  22  23
ENDBRANCH   4  22
TORSDOF 10
ENDMDL
MODEL 6
REMARK VINA RESULT:      -7.5      1.894      2.708
REMARK  Name = 
REMARK  10 active torsions:
REMARK  status: ('A' for Active; 'I' for Inactive)
REMARK    1  A    between atoms: C_2  and  C_3
REMARK    2  A    between atoms: C_6  and  O_7
REMARK    3  A    between atoms: O_7  and  C_8
REMARK    4  A    between atoms: C_11  and  C_12
REMARK    5  A    between atoms: C_12  and  O_14
REMARK    6  A    between atoms: C_15  and  C_16
REMARK    7  A    between atoms: C_16  and  O_18
REMARK    8  A    between atoms: C_20  and  N_21
REMARK    9  A    between atoms: C_22  and  C_24
REMARK   10  A    between atoms: C_28  and  N_29
REMARK                            x       y       z     vdW  Elec       q    Type
REMARK                         _______ _______ _______ _____ _____    ______ ____
ROOT
ATOM      1  C   UNL     1       4.308   2.954  20.148  0.00  0.00    +0.000 A 
ATOM      2  C   UNL     1       3.482   3.909  20.731  0.00  0.00    +0.000 A 
ATOM      3  C   UNL     1       2.989   4.951  19.959  0.00  0.00    +0.000 A 
ATOM      4  C   UNL     1       3.260   5.021  18.579  0.00  0.00    +0.000 A 
ATOM      5  C   UNL     1       4.163   4.108  17.990  0.00  0.00    +0.000 A 
ATOM      6  C   UNL     1       4.652   3.056  18.795  0.00  0.00    +0.000 A 
ENDROOT
BRANCH   5   7
ATOM      7  N   UNL     1       4.658   4.139  16.645  0.00  0.00    +0.000 N 
ATOM      8  C   UNL     1       5.954   4.443  16.264  0.00  0.00    +0.000 C 
ATOM      9  O   UNL     1       6.880   4.732  17.014  0.00  0.00    +0.000 OA
ATOM     10  H   UNL     1       4.088   3.663  15.958  0.00  0.00    +0.000 HD
BRANCH   8  11
ATOM     11  C   UNL     1       6.297   4.305  14.814  0.00  0.00    +0.000 A 
ATOM     12  C   UNL     1       7.325   5.137  14.331  0.00  0.00    +0.000 A 
ATOM     13  C   UNL     1       7.674   5.154  12.980  0.00  0.00    +0.000 A 
ATOM     14  C   UNL     1       6.995   4.338  12.083  0.00  0.00    +0.000 A 
ATOM     15  C   UNL     1       5.970   3.501  12.553  0.00  0.00    +0.000 A 
ATOM     16  C   UNL     1       5.616   3.472  13.918  0.00  0.00    +0.000 A 
BRANCH  15  17
ATOM     17  N   UNL     1       5.235   2.667  11.591  0.00  0.00    +0.000 N 
ATOM     18  O   UNL     1       5.740   1.586  11.258  0.00  0.00    +0.000 OA
ATOM     19  O   UNL     1       4.152   3.099  11.173  0.00  0.00    +0.000 OA
ENDBRANCH  15  17
ENDBRANCH   8  11
ENDBRANCH   5   7
BRANCH   1  21
ATOM     20  N   UNL     1       5.242   1.019  21.600  0.00  0.00    +0.000 NA
ATOM     21  C   UNL     1       4.826   1.888  20.948  0.00  0.00    +0.000 C 
ENDBRANCH   1  21
BRANCH   4  22
ATOM     22  O   UNL     1       2.640   5.981  17.811  0.00  0.00    +0.000 OA
BRANCH  22  23
ATOM     23  C   UNL     1       2.298   7.201  18.347  0.00  0.00    +0.000 A 
ATOM     24  C   UNL     1       2.393   8.298  17.506  0.00  0.00    +0.000 A 
ATOM     25  C   UNL     1       1.994   9.557  17.962  0.00  0.00    +0.000 A 
ATOM     26  C   UNL     1       1.457   9.753  19.258  0.00  0.00    +0.000 A 
ATOM     27  C   UNL     1       1.381   8.632  20.108  0.00  0.00    +0.000 A 
ATOM     28  C   UNL     1       1.807   7.369  19.642  0.00  0.00    +0.000 A 
BRANCH  26  29
ATOM     29  C   UNL     1       0.952  11.150  19.500  0.00  0.00    +0.000 C 
ATOM     30  O   UNL     1       0.165  11.666  18.715  0.00  0.00    +0.000 OA
BRANCH  29  31
ATOM     31  O   UNL     1       1.277  11.787  20.635  0.00  0.00    +0.000 OA
ATOM     32  H   UNL     1       2.236  11.871  20.842  0.00  0.00    +0.000 HD
ENDBRANCH  29  31
ENDBRANCH  26  29
BRANCH  27  33
ATOM     33  C   UNL     1       0.947   8.712  21.522  0.00  0.00    +0.000 C 
ATOM     34  O   UNL     1      -0.166   8.358  21.873  0.00  0.00    +0.000 OA
BRANCH  33  35
ATOM     35  O   UNL     1       1.855   9.189  22.396  0.00  0.00    +0.000 OA
ATOM     36  H   UNL     1       2.545   9.787  22.054  0.00  0.00    +0.000 HD
ENDBRANCH  33  35
ENDBRANCH  27  33
ENDBRANCH  22  23
ENDBRANCH   4  22
TORSDOF 10
ENDMDL
MODEL 7
REMARK VINA RESULT:      -7.4      3.899      6.908
REMARK  Name = 
REMARK  10 active torsions:
REMARK  status: ('A' for Active; 'I' for Inactive)
REMARK    1  A    between atoms: C_2  and  C_3
REMARK    2  A    between atoms: C_6  and  O_7
REMARK    3  A    between atoms: O_7  and  C_8
REMARK    4  A    between atoms: C_11  and  C_12
REMARK    5  A    between atoms: C_12  and  O_14
REMARK    6  A    between atoms: C_15  and  C_16
REMARK    7  A    between atoms: C_16  and  O_18
REMARK    8  A    between atoms: C_20  and  N_21
REMARK    9  A    between atoms: C_22  and  C_24
REMARK   10  A    between atoms: C_28  and  N_29
REMARK                            x       y       z     vdW  Elec       q    Type
REMARK                         _______ _______ _______ _____ _____    ______ ____
ROOT
ATOM      1  C   UNL     1      -2.388  11.397  18.636  0.00  0.00    +0.000 A 
ATOM      2  C   UNL     1      -2.070  12.557  19.334  0.00  0.00    +0.000 A 
ATOM      3  C   UNL     1      -0.813  12.687  19.908  0.00  0.00    +0.000 A 
ATOM      4  C   UNL     1       0.166  11.691  19.740  0.00  0.00    +0.000 A 
ATOM      5  C   UNL     1      -0.167  10.473  19.107  0.00  0.00    +0.000 A 
ATOM      6  C   UNL     1      -1.451  10.363  18.530  0.00  0.00    +0.000 A 
ENDROOT
BRANCH   5   7
ATOM      7  N   UNL     1       0.664   9.310  18.994  0.00  0.00    +0.000 N 
ATOM      8  C   UNL     1       1.741   9.162  18.136  0.00  0.00    +0.000 C 
ATOM      9  O   UNL     1       2.153   9.999  17.341  0.00  0.00    +0.000 OA
ATOM     10  H   UNL     1       0.612   8.659  19.767  0.00  0.00    +0.000 HD
BRANCH   8  11
ATOM     11  C   UNL     1       2.551   7.910  18.256  0.00  0.00    +0.000 A 
ATOM     12  C   UNL     1       2.335   7.132  19.410  0.00  0.00    +0.000 A 
ATOM     13  C   UNL     1       3.091   5.988  19.669  0.00  0.00    +0.000 A 
ATOM     14  C   UNL     1       4.084   5.602  18.776  0.00  0.00    +0.000 A 
ATOM     15  C   UNL     1       4.306   6.368  17.620  0.00  0.00    +0.000 A 
ATOM     16  C   UNL     1       3.542   7.521  17.347  0.00  0.00    +0.000 A 
BRANCH  15  17
ATOM     17  N   UNL     1       5.381   5.970  16.700  0.00  0.00    +0.000 N 
ATOM     18  O   UNL     1       6.175   5.098  17.079  0.00  0.00    +0.000 OA
ATOM     19  O   UNL     1       5.425   6.533  15.598  0.00  0.00    +0.000 OA
ENDBRANCH  15  17
ENDBRANCH   8  11
ENDBRANCH   5   7
BRANCH   1  21
ATOM     20  N   UNL     1      -4.744  11.139  17.584  0.00  0.00    +0.000 NA
ATOM     21  C   UNL     1      -3.688  11.258  18.055  0.00  0.00    +0.000 C 
ENDBRANCH   1  21
BRANCH   4  22
ATOM     22  O   UNL     1       1.448  11.911  20.196  0.00  0.00    +0.000 OA
BRANCH  22  23
ATOM     23  C   UNL     1       2.126  13.060  19.862  0.00  0.00    +0.000 A 
ATOM     24  C   UNL     1       2.389  13.258  18.516  0.00  0.00    +0.000 A 
ATOM     25  C   UNL     1       3.011  14.437  18.097  0.00  0.00    +0.000 A 
ATOM     26  C   UNL     1       3.360  15.467  19.005  0.00  0.00    +0.000 A 
ATOM     27  C   UNL     1       3.102  15.246  20.373  0.00  0.00    +0.000 A 
ATOM     28  C   UNL     1       2.492  14.041  20.784  0.00  0.00    +0.000 A 
BRANCH  26  29
ATOM     29  C   UNL     1       3.882  16.711  18.338  0.00  0.00    +0.000 C 
ATOM     30  O   UNL     1       4.994  17.141  18.620  0.00  0.00    +0.000 OA
BRANCH  29  31
ATOM     31  O   UNL     1       3.175  17.283  17.352  0.00  0.00    +0.000 OA
ATOM     32  H   UNL     1       2.487  16.730  16.915  0.00  0.00    +0.000 HD
ENDBRANCH  29  31
ENDBRANCH  26  29
BRANCH  27  33
ATOM     33  C   UNL     1       3.516  16.186  21.440  0.00  0.00    +0.000 C 
ATOM     34  O   UNL     1       2.699  16.785  22.119  0.00  0.00    +0.000 OA
BRANCH  33  35
ATOM     35  O   UNL     1       4.843  16.332  21.621  0.00  0.00    +0.000 OA
ATOM     36  H   UNL     1       5.158  16.557  22.516  0.00  0.00    +0.000 HD
ENDBRANCH  33  35
ENDBRANCH  27  33
ENDBRANCH  22  23
ENDBRANCH   4  22
TORSDOF 10
ENDMDL
MODEL 8
REMARK VINA RESULT:      -7.3      3.765      6.720
REMARK  Name = 
REMARK  10 active torsions:
REMARK  status: ('A' for Active; 'I' for Inactive)
REMARK    1  A    between atoms: C_2  and  C_3
REMARK    2  A    between atoms: C_6  and  O_7
REMARK    3  A    between atoms: O_7  and  C_8
REMARK    4  A    between atoms: C_11  and  C_12
REMARK    5  A    between atoms: C_12  and  O_14
REMARK    6  A    between atoms: C_15  and  C_16
REMARK    7  A    between atoms: C_16  and  O_18
REMARK    8  A    between atoms: C_20  and  N_21
REMARK    9  A    between atoms: C_22  and  C_24
REMARK   10  A    between atoms: C_28  and  N_29
REMARK                            x       y       z     vdW  Elec       q    Type
REMARK                         _______ _______ _______ _____ _____    ______ ____
ROOT
ATOM      1  C   UNL     1      -2.090  10.922  17.670  0.00  0.00    +0.000 A 
ATOM      2  C   UNL     1      -2.161  11.904  18.653  0.00  0.00    +0.000 A 
ATOM      3  C   UNL     1      -1.095  12.079  19.524  0.00  0.00    +0.000 A 
ATOM      4  C   UNL     1       0.083  11.321  19.389  0.00  0.00    +0.000 A 
ATOM      5  C   UNL     1       0.138  10.265  18.451  0.00  0.00    +0.000 A 
ATOM      6  C   UNL     1      -0.957  10.106  17.575  0.00  0.00    +0.000 A 
ENDROOT
BRANCH   5   7
ATOM      7  N   UNL     1       1.198   9.310  18.297  0.00  0.00    +0.000 N 
ATOM      8  C   UNL     1       1.623   8.408  19.258  0.00  0.00    +0.000 C 
ATOM      9  O   UNL     1       1.163   8.282  20.386  0.00  0.00    +0.000 OA
ATOM     10  H   UNL     1       1.477   9.117  17.344  0.00  0.00    +0.000 HD
BRANCH   8  11
ATOM     11  C   UNL     1       2.669   7.416  18.856  0.00  0.00    +0.000 A 
ATOM     12  C   UNL     1       3.407   7.718  17.696  0.00  0.00    +0.000 A 
ATOM     13  C   UNL     1       4.351   6.829  17.180  0.00  0.00    +0.000 A 
ATOM     14  C   UNL     1       4.571   5.614  17.818  0.00  0.00    +0.000 A 
ATOM     15  C   UNL     1       3.844   5.303  18.978  0.00  0.00    +0.000 A 
ATOM     16  C   UNL     1       2.894   6.199  19.509  0.00  0.00    +0.000 A 
BRANCH  15  17
ATOM     17  N   UNL     1       4.060   4.000  19.624  0.00  0.00    +0.000 N 
ATOM     18  O   UNL     1       3.120   3.507  20.264  0.00  0.00    +0.000 OA
ATOM     19  O   UNL     1       5.174   3.474  19.488  0.00  0.00    +0.000 OA
ENDBRANCH  15  17
ENDBRANCH   8  11
ENDBRANCH   5   7
BRANCH   1  21
ATOM     20  N   UNL     1      -4.096  10.580  16.063  0.00  0.00    +0.000 NA
ATOM     21  C   UNL     1      -3.194  10.735  16.781  0.00  0.00    +0.000 C 
ENDBRANCH   1  21
BRANCH   4  22
ATOM     22  O   UNL     1       1.177  11.615  20.172  0.00  0.00    +0.000 OA
BRANCH  22  23
ATOM     23  C   UNL     1       1.797  12.839  20.085  0.00  0.00    +0.000 A 
ATOM     24  C   UNL     1       1.597  13.714  21.140  0.00  0.00    +0.000 A 
ATOM     25  C   UNL     1       2.254  14.948  21.152  0.00  0.00    +0.000 A 
ATOM     26  C   UNL     1       3.157  15.329  20.129  0.00  0.00    +0.000 A 
ATOM     27  C   UNL     1       3.340  14.436  19.054  0.00  0.00    +0.000 A 
ATOM     28  C   UNL     1       2.653  13.202  19.044  0.00  0.00    +0.000 A 
BRANCH  26  29
ATOM     29  C   UNL     1       3.870  16.625  20.403  0.00  0.00    +0.000 C 
ATOM     30  O   UNL     1       4.509  16.770  21.439  0.00  0.00    +0.000 OA
BRANCH  29  31
ATOM     31  O   UNL     1       3.900  17.580  19.461  0.00  0.00    +0.000 OA
ATOM     32  H   UNL     1       3.401  17.404  18.630  0.00  0.00    +0.000 HD
ENDBRANCH  29  31
ENDBRANCH  26  29
BRANCH  27  33
ATOM     33  C   UNL     1       4.164  14.753  17.865  0.00  0.00    +0.000 C 
ATOM     34  O   UNL     1       5.310  14.349  17.753  0.00  0.00    +0.000 OA
BRANCH  33  35
ATOM     35  O   UNL     1       3.574  15.504  16.916  0.00  0.00    +0.000 OA
ATOM     36  H   UNL     1       2.956  15.062  16.305  0.00  0.00    +0.000 HD
ENDBRANCH  33  35
ENDBRANCH  27  33
ENDBRANCH  22  23
ENDBRANCH   4  22
TORSDOF 10
ENDMDL
MODEL 9
REMARK VINA RESULT:      -7.3      3.810      6.539
REMARK  Name = 
REMARK  10 active torsions:
REMARK  status: ('A' for Active; 'I' for Inactive)
REMARK    1  A    between atoms: C_2  and  C_3
REMARK    2  A    between atoms: C_6  and  O_7
REMARK    3  A    between atoms: O_7  and  C_8
REMARK    4  A    between atoms: C_11  and  C_12
REMARK    5  A    between atoms: C_12  and  O_14
REMARK    6  A    between atoms: C_15  and  C_16
REMARK    7  A    between atoms: C_16  and  O_18
REMARK    8  A    between atoms: C_20  and  N_21
REMARK    9  A    between atoms: C_22  and  C_24
REMARK   10  A    between atoms: C_28  and  N_29
REMARK                            x       y       z     vdW  Elec       q    Type
REMARK                         _______ _______ _______ _____ _____    ______ ____
ROOT
ATOM      1  C   UNL     1      -1.894  11.008  18.237  0.00  0.00    +0.000 A 
ATOM      2  C   UNL     1      -1.530  12.195  18.862  0.00  0.00    +0.000 A 
ATOM      3  C   UNL     1      -0.191  12.447  19.126  0.00  0.00    +0.000 A 
ATOM      4  C   UNL     1       0.810  11.548  18.714  0.00  0.00    +0.000 A 
ATOM      5  C   UNL     1       0.452  10.301  18.154  0.00  0.00    +0.000 A 
ATOM      6  C   UNL     1      -0.916  10.067  17.894  0.00  0.00    +0.000 A 
ENDROOT
BRANCH   5   7
ATOM      7  N   UNL     1       1.337   9.222  17.826  0.00  0.00    +0.000 N 
ATOM      8  C   UNL     1       1.883   8.320  18.724  0.00  0.00    +0.000 C 
ATOM      9  O   UNL     1       1.695   8.300  19.935  0.00  0.00    +0.000 OA
ATOM     10  H   UNL     1       1.359   8.955  16.851  0.00  0.00    +0.000 HD
BRANCH   8  11
ATOM     11  C   UNL     1       2.693   7.193  18.162  0.00  0.00    +0.000 A 
ATOM     12  C   UNL     1       2.286   5.892  18.514  0.00  0.00    +0.000 A 
ATOM     13  C   UNL     1       3.013   4.770  18.117  0.00  0.00    +0.000 A 
ATOM     14  C   UNL     1       4.168   4.930  17.360  0.00  0.00    +0.000 A 
ATOM     15  C   UNL     1       4.581   6.222  16.999  0.00  0.00    +0.000 A 
ATOM     16  C   UNL     1       3.849   7.361  17.390  0.00  0.00    +0.000 A 
BRANCH  15  17
ATOM     17  N   UNL     1       5.822   6.382  16.228  0.00  0.00    +0.000 N 
ATOM     18  O   UNL     1       6.776   6.951  16.776  0.00  0.00    +0.000 OA
ATOM     19  O   UNL     1       5.837   5.934  15.073  0.00  0.00    +0.000 OA
ENDBRANCH  15  17
ENDBRANCH   8  11
ENDBRANCH   5   7
BRANCH   1  21
ATOM     20  N   UNL     1      -4.400  10.530  17.771  0.00  0.00    +0.000 NA
ATOM     21  C   UNL     1      -3.275  10.743  17.977  0.00  0.00    +0.000 C 
ENDBRANCH   1  21
BRANCH   4  22
ATOM     22  O   UNL     1       2.136  11.891  18.858  0.00  0.00    +0.000 OA
BRANCH  22  23
ATOM     23  C   UNL     1       2.498  13.165  19.229  0.00  0.00    +0.000 A 
ATOM     24  C   UNL     1       2.766  14.059  18.204  0.00  0.00    +0.000 A 
ATOM     25  C   UNL     1       3.070  15.389  18.506  0.00  0.00    +0.000 A 
ATOM     26  C   UNL     1       3.083  15.874  19.836  0.00  0.00    +0.000 A 
ATOM     27  C   UNL     1       2.825  14.952  20.870  0.00  0.00    +0.000 A 
ATOM     28  C   UNL     1       2.539  13.606  20.552  0.00  0.00    +0.000 A 
BRANCH  26  29
ATOM     29  C   UNL     1       3.286  17.362  19.936  0.00  0.00    +0.000 C 
ATOM     30  O   UNL     1       4.410  17.822  20.092  0.00  0.00    +0.000 OA
BRANCH  29  31
ATOM     31  O   UNL     1       2.248  18.189  19.739  0.00  0.00    +0.000 OA
ATOM     32  H   UNL     1       1.412  17.787  19.408  0.00  0.00    +0.000 HD
ENDBRANCH  29  31
ENDBRANCH  26  29
BRANCH  27  33
ATOM     33  C   UNL     1       2.916  15.296  22.308  0.00  0.00    +0.000 C 
ATOM     34  O   UNL     1       2.093  16.016  22.848  0.00  0.00    +0.000 OA
BRANCH  33  35
ATOM     35  O   UNL     1       3.952  14.761  22.982  0.00  0.00    +0.000 OA
ATOM     36  H   UNL     1       4.315  13.915  22.661  0.00  0.00    +0.000 HD
ENDBRANCH  33  35
ENDBRANCH  27  33
ENDBRANCH  22  23
ENDBRANCH   4  22
TORSDOF 10
ENDMDL
