MODEL 1
REMARK VINA RESULT:      -7.6      0.000      0.000
REMARK  Name = 
REMARK  5 active torsions:
REMARK  status: ('A' for Active; 'I' for Inactive)
REMARK    1  A    between atoms: C_2  and  C_11
REMARK    2  A    between atoms: N_3  and  C_4
REMARK    3  A    between atoms: N_13  and  C_14
REMARK    4  A    between atoms: C_21  and  C_22
REMARK    5  A    between atoms: C_25  and  N_26
REMARK                            x       y       z     vdW  Elec       q    Type
REMARK                         _______ _______ _______ _____ _____    ______ ____
ROOT
ATOM      1  C   UNL     1       4.575   6.126  16.724  0.00  0.00    +0.000 A 
ATOM      2  C   UNL     1       5.207   6.131  15.495  0.00  0.00    +0.000 A 
ATOM      3  N   UNL     1       5.337   4.822  15.093  0.00  0.00    +0.000 N 
ATOM      4  N   UNL     1       4.860   3.971  16.027  0.00  0.00    +0.000 NA
ATOM      5  C   UNL     1       4.411   4.739  17.033  0.00  0.00    +0.000 A 
ENDROOT
BRANCH   3   6
ATOM      6  C   UNL     1       5.874   4.347  13.865  0.00  0.00    +0.000 A 
ATOM      7  C   UNL     1       5.202   3.378  13.105  0.00  0.00    +0.000 A 
ATOM      8  C   UNL     1       5.751   2.922  11.906  0.00  0.00    +0.000 A 
ATOM      9  C   UNL     1       6.972   3.422  11.460  0.00  0.00    +0.000 A 
ATOM     10  C   UNL     1       7.648   4.382  12.210  0.00  0.00    +0.000 A 
ATOM     11  C   UNL     1       7.101   4.850  13.407  0.00  0.00    +0.000 A 
ENDBRANCH   3   6
BRANCH   5  12
ATOM     12  C   UNL     1       3.853   4.113  18.241  0.00  0.00    +0.000 A 
ATOM     13  C   UNL     1       4.676   3.451  19.166  0.00  0.00    +0.000 A 
ATOM     14  C   UNL     1       4.143   2.872  20.323  0.00  0.00    +0.000 A 
ATOM     15  C   UNL     1       2.765   2.925  20.547  0.00  0.00    +0.000 A 
ATOM     16  C   UNL     1       1.921   3.558  19.625  0.00  0.00    +0.000 A 
ATOM     17  C   UNL     1       2.469   4.150  18.481  0.00  0.00    +0.000 A 
BRANCH  15  18
ATOM     18  N   UNL     1       2.200   2.302  21.749  0.00  0.00    +0.000 N 
ATOM     19  O   UNL     1       1.029   2.583  22.049  0.00  0.00    +0.000 OA
ATOM     20  O   UNL     1       2.924   1.536  22.398  0.00  0.00    +0.000 OA
ENDBRANCH  15  18
ENDBRANCH   5  12
BRANCH   1  22
ATOM     21  O   UNL     1       4.904   8.149  17.825  0.00  0.00    +0.000 OA
ATOM     22  C   UNL     1       4.114   7.278  17.485  0.00  0.00    +0.000 C 
ATOM     23  N   UNL     1       2.763   7.272  17.803  0.00  0.00    +0.000 N 
ATOM     24  H   UNL     1       2.234   6.440  17.586  0.00  0.00    +0.000 HD
BRANCH  23  25
ATOM     25  C   UNL     1       2.095   8.271  18.541  0.00  0.00    +0.000 A 
ATOM     26  C   UNL     1       1.772   8.133  19.895  0.00  0.00    +0.000 A 
ATOM     27  C   UNL     1       1.032   9.112  20.557  0.00  0.00    +0.000 A 
ATOM     28  C   UNL     1       0.619  10.246  19.868  0.00  0.00    +0.000 A 
ATOM     29 CL   UNL     1      -0.343  11.425  20.668  0.00  0.00    +0.000 Cl
ATOM     30  C   UNL     1       0.975  10.425  18.533  0.00  0.00    +0.000 A 
ATOM     31  C   UNL     1       1.727   9.446  17.873  0.00  0.00    +0.000 A 
ENDBRANCH  23  25
ENDBRANCH   1  22
TORSDOF 5
ENDMDL
MODEL 2
REMARK VINA RESULT:      -7.6      0.054      1.050
REMARK  Name = 
REMARK  5 active torsions:
REMARK  status: ('A' for Active; 'I' for Inactive)
REMARK    1  A    between atoms: C_2  and  C_11
REMARK    2  A    between atoms: N_3  and  C_4
REMARK    3  A    between atoms: N_13  and  C_14
REMARK    4  A    between atoms: C_21  and  C_22
REMARK    5  A    between atoms: C_25  and  N_26
REMARK                            x       y       z     vdW  Elec       q    Type
REMARK                         _______ _______ _______ _____ _____    ______ ____
ROOT
ATOM      1  C   UNL     1       4.576   6.157  16.743  0.00  0.00    +0.000 A 
ATOM      2  C   UNL     1       5.218   6.165  15.520  0.00  0.00    +0.000 A 
ATOM      3  N   UNL     1       5.359   4.856  15.120  0.00  0.00    +0.000 N 
ATOM      4  N   UNL     1       4.880   4.004  16.051  0.00  0.00    +0.000 NA
ATOM      5  C   UNL     1       4.418   4.770  17.052  0.00  0.00    +0.000 A 
ENDROOT
BRANCH   3   6
ATOM      6  C   UNL     1       5.908   4.384  13.897  0.00  0.00    +0.000 A 
ATOM      7  C   UNL     1       7.132   4.872  13.414  0.00  0.00    +0.000 A 
ATOM      8  C   UNL     1       7.649   4.398  12.207  0.00  0.00    +0.000 A 
ATOM      9  C   UNL     1       6.950   3.444  11.472  0.00  0.00    +0.000 A 
ATOM     10  C   UNL     1       5.732   2.957  11.942  0.00  0.00    +0.000 A 
ATOM     11  C   UNL     1       5.212   3.419  13.153  0.00  0.00    +0.000 A 
ENDBRANCH   3   6
BRANCH   5  12
ATOM     12  C   UNL     1       3.854   4.141  18.256  0.00  0.00    +0.000 A 
ATOM     13  C   UNL     1       4.657   3.393  19.133  0.00  0.00    +0.000 A 
ATOM     14  C   UNL     1       4.119   2.812  20.286  0.00  0.00    +0.000 A 
ATOM     15  C   UNL     1       2.755   2.950  20.555  0.00  0.00    +0.000 A 
ATOM     16  C   UNL     1       1.930   3.669  19.681  0.00  0.00    +0.000 A 
ATOM     17  C   UNL     1       2.484   4.262  18.540  0.00  0.00    +0.000 A 
BRANCH  15  18
ATOM     18  N   UNL     1       2.183   2.324  21.754  0.00  0.00    +0.000 N 
ATOM     19  O   UNL     1       2.917   1.578  22.420  0.00  0.00    +0.000 OA
ATOM     20  O   UNL     1       1.002   2.573  22.027  0.00  0.00    +0.000 OA
ENDBRANCH  15  18
ENDBRANCH   5  12
BRANCH   1  22
ATOM     21  O   UNL     1       4.881   8.191  17.832  0.00  0.00    +0.000 OA
ATOM     22  C   UNL     1       4.102   7.307  17.500  0.00  0.00    +0.000 C 
ATOM     23  N   UNL     1       2.753   7.283  17.824  0.00  0.00    +0.000 N 
ATOM     24  H   UNL     1       2.235   6.443  17.615  0.00  0.00    +0.000 HD
BRANCH  23  25
ATOM     25  C   UNL     1       2.074   8.277  18.560  0.00  0.00    +0.000 A 
ATOM     26  C   UNL     1       1.759   8.142  19.916  0.00  0.00    +0.000 A 
ATOM     27  C   UNL     1       1.008   9.115  20.576  0.00  0.00    +0.000 A 
ATOM     28  C   UNL     1       0.576  10.239  19.882  0.00  0.00    +0.000 A 
ATOM     29 CL   UNL     1      -0.399  11.409  20.679  0.00  0.00    +0.000 Cl
ATOM     30  C   UNL     1       0.924  10.415  18.545  0.00  0.00    +0.000 A 
ATOM     31  C   UNL     1       1.687   9.443  17.887  0.00  0.00    +0.000 A 
ENDBRANCH  23  25
ENDBRANCH   1  22
TORSDOF 5
ENDMDL
MODEL 3
REMARK VINA RESULT:      -7.5      0.056      1.049
REMARK  Name = 
REMARK  5 active torsions:
REMARK  status: ('A' for Active; 'I' for Inactive)
REMARK    1  A    between atoms: C_2  and  C_11
REMARK    2  A    between atoms: N_3  and  C_4
REMARK    3  A    between atoms: N_13  and  C_14
REMARK    4  A    between atoms: C_21  and  C_22
REMARK    5  A    between atoms: C_25  and  N_26
REMARK                            x       y       z     vdW  Elec       q    Type
REMARK                         _______ _______ _______ _____ _____    ______ ____
ROOT
ATOM      1  C   UNL     1       4.572   6.133  16.701  0.00  0.00    +0.000 A 
ATOM      2  C   UNL     1       5.205   6.134  15.472  0.00  0.00    +0.000 A 
ATOM      3  N   UNL     1       5.327   4.824  15.071  0.00  0.00    +0.000 N 
ATOM      4  N   UNL     1       4.845   3.977  16.005  0.00  0.00    +0.000 NA
ATOM      5  C   UNL     1       4.400   4.748  17.010  0.00  0.00    +0.000 A 
ENDROOT
BRANCH   3   6
ATOM      6  C   UNL     1       5.861   4.346  13.843  0.00  0.00    +0.000 A 
ATOM      7  C   UNL     1       5.190   3.372  13.089  0.00  0.00    +0.000 A 
ATOM      8  C   UNL     1       5.737   2.914  11.890  0.00  0.00    +0.000 A 
ATOM      9  C   UNL     1       6.955   3.414  11.439  0.00  0.00    +0.000 A 
ATOM     10  C   UNL     1       7.631   4.379  12.183  0.00  0.00    +0.000 A 
ATOM     11  C   UNL     1       7.086   4.850  13.379  0.00  0.00    +0.000 A 
ENDBRANCH   3   6
BRANCH   5  12
ATOM     12  C   UNL     1       3.838   4.126  18.218  0.00  0.00    +0.000 A 
ATOM     13  C   UNL     1       2.451   4.068  18.431  0.00  0.00    +0.000 A 
ATOM     14  C   UNL     1       1.920   3.459  19.573  0.00  0.00    +0.000 A 
ATOM     15  C   UNL     1       2.784   2.928  20.535  0.00  0.00    +0.000 A 
ATOM     16  C   UNL     1       4.171   2.997  20.356  0.00  0.00    +0.000 A 
ATOM     17  C   UNL     1       4.689   3.593  19.200  0.00  0.00    +0.000 A 
BRANCH  15  18
ATOM     18  N   UNL     1       2.231   2.306  21.744  0.00  0.00    +0.000 N 
ATOM     19  O   UNL     1       2.960   1.526  22.377  0.00  0.00    +0.000 OA
ATOM     20  O   UNL     1       1.068   2.591  22.060  0.00  0.00    +0.000 OA
ENDBRANCH  15  18
ENDBRANCH   5  12
BRANCH   1  22
ATOM     21  O   UNL     1       4.913   8.155  17.801  0.00  0.00    +0.000 OA
ATOM     22  C   UNL     1       4.117   7.289  17.461  0.00  0.00    +0.000 C 
ATOM     23  N   UNL     1       2.766   7.290  17.779  0.00  0.00    +0.000 N 
ATOM     24  H   UNL     1       2.233   6.461  17.563  0.00  0.00    +0.000 HD
BRANCH  23  25
ATOM     25  C   UNL     1       2.104   8.293  18.517  0.00  0.00    +0.000 A 
ATOM     26  C   UNL     1       1.760   8.148  19.865  0.00  0.00    +0.000 A 
ATOM     27  C   UNL     1       1.026   9.134  20.525  0.00  0.00    +0.000 A 
ATOM     28  C   UNL     1       0.641  10.280  19.841  0.00  0.00    +0.000 A 
ATOM     29 CL   UNL     1      -0.313  11.468  20.637  0.00  0.00    +0.000 Cl
ATOM     30  C   UNL     1       1.019  10.465  18.513  0.00  0.00    +0.000 A 
ATOM     31  C   UNL     1       1.764   9.480  17.855  0.00  0.00    +0.000 A 
ENDBRANCH  23  25
ENDBRANCH   1  22
TORSDOF 5
ENDMDL
MODEL 4
REMARK VINA RESULT:      -7.5      0.154      1.256
REMARK  Name = 
REMARK  5 active torsions:
REMARK  status: ('A' for Active; 'I' for Inactive)
REMARK    1  A    between atoms: C_2  and  C_11
REMARK    2  A    between atoms: N_3  and  C_4
REMARK    3  A    between atoms: N_13  and  C_14
REMARK    4  A    between atoms: C_21  and  C_22
REMARK    5  A    between atoms: C_25  and  N_26
REMARK                            x       y       z     vdW  Elec       q    Type
REMARK                         _______ _______ _______ _____ _____    ______ ____
ROOT
ATOM      1  C   UNL     1       4.563   6.150  16.724  0.00  0.00    +0.000 A 
ATOM      2  C   UNL     1       5.205   6.151  15.501  0.00  0.00    +0.000 A 
ATOM      3  N   UNL     1       5.335   4.841  15.102  0.00  0.00    +0.000 N 
ATOM      4  N   UNL     1       4.848   3.993  16.034  0.00  0.00    +0.000 NA
ATOM      5  C   UNL     1       4.393   4.765  17.034  0.00  0.00    +0.000 A 
ENDROOT
BRANCH   3   6
ATOM      6  C   UNL     1       5.880   4.363  13.879  0.00  0.00    +0.000 A 
ATOM      7  C   UNL     1       5.215   3.390  13.118  0.00  0.00    +0.000 A 
ATOM      8  C   UNL     1       5.773   2.931  11.924  0.00  0.00    +0.000 A 
ATOM      9  C   UNL     1       6.996   3.431  11.485  0.00  0.00    +0.000 A 
ATOM     10  C   UNL     1       7.666   4.394  12.236  0.00  0.00    +0.000 A 
ATOM     11  C   UNL     1       7.110   4.866  13.428  0.00  0.00    +0.000 A 
ENDBRANCH   3   6
BRANCH   5  12
ATOM     12  C   UNL     1       3.824   4.142  18.239  0.00  0.00    +0.000 A 
ATOM     13  C   UNL     1       2.441   4.153  18.481  0.00  0.00    +0.000 A 
ATOM     14  C   UNL     1       1.902   3.544  19.620  0.00  0.00    +0.000 A 
ATOM     15  C   UNL     1       2.756   2.943  20.549  0.00  0.00    +0.000 A 
ATOM     16  C   UNL     1       4.141   2.943  20.341  0.00  0.00    +0.000 A 
ATOM     17  C   UNL     1       4.666   3.539  19.188  0.00  0.00    +0.000 A 
BRANCH  15  18
ATOM     18  N   UNL     1       2.196   2.321  21.754  0.00  0.00    +0.000 N 
ATOM     19  O   UNL     1       1.033   2.617  22.070  0.00  0.00    +0.000 OA
ATOM     20  O   UNL     1       2.917   1.541  22.390  0.00  0.00    +0.000 OA
ENDBRANCH  15  18
ENDBRANCH   5  12
BRANCH   1  22
ATOM     21  O   UNL     1       4.896   8.149  17.868  0.00  0.00    +0.000 OA
ATOM     22  C   UNL     1       4.099   7.305  17.479  0.00  0.00    +0.000 C 
ATOM     23  N   UNL     1       2.735   7.332  17.734  0.00  0.00    +0.000 N 
ATOM     24  H   UNL     1       2.194   6.518  17.483  0.00  0.00    +0.000 HD
BRANCH  23  25
ATOM     25  C   UNL     1       2.061   8.340  18.455  0.00  0.00    +0.000 A 
ATOM     26  C   UNL     1       1.726   9.580  17.901  0.00  0.00    +0.000 A 
ATOM     27  C   UNL     1       1.140  10.577  18.682  0.00  0.00    +0.000 A 
ATOM     28  C   UNL     1       0.874  10.333  20.024  0.00  0.00    +0.000 A 
ATOM     29 CL   UNL     1       0.207  11.580  21.000  0.00  0.00    +0.000 Cl
ATOM     30  C   UNL     1       1.154   9.087  20.580  0.00  0.00    +0.000 A 
ATOM     31  C   UNL     1       1.732   8.084  19.792  0.00  0.00    +0.000 A 
ENDBRANCH  23  25
ENDBRANCH   1  22
TORSDOF 5
ENDMDL
MODEL 5
REMARK VINA RESULT:      -7.4      5.166     11.397
REMARK  Name = 
REMARK  5 active torsions:
REMARK  status: ('A' for Active; 'I' for Inactive)
REMARK    1  A    between atoms: C_2  and  C_11
REMARK    2  A    between atoms: N_3  and  C_4
REMARK    3  A    between atoms: N_13  and  C_14
REMARK    4  A    between atoms: C_21  and  C_22
REMARK    5  A    between atoms: C_25  and  N_26
REMARK                            x       y       z     vdW  Elec       q    Type
REMARK                         _______ _______ _______ _____ _____    ______ ____
ROOT
ATOM      1  C   UNL     1      -0.003  10.897  21.615  0.00  0.00    +0.000 A 
ATOM      2  C   UNL     1      -1.171  10.845  22.350  0.00  0.00    +0.000 A 
ATOM      3  N   UNL     1      -1.817  12.048  22.183  0.00  0.00    +0.000 N 
ATOM      4  N   UNL     1      -1.096  12.890  21.413  0.00  0.00    +0.000 NA
ATOM      5  C   UNL     1       0.017  12.220  21.074  0.00  0.00    +0.000 A 
ENDROOT
BRANCH   3   6
ATOM      6  C   UNL     1      -3.085  12.424  22.704  0.00  0.00    +0.000 A 
ATOM      7  C   UNL     1      -4.067  12.998  21.882  0.00  0.00    +0.000 A 
ATOM      8  C   UNL     1      -5.303  13.366  22.418  0.00  0.00    +0.000 A 
ATOM      9  C   UNL     1      -5.566  13.171  23.771  0.00  0.00    +0.000 A 
ATOM     10  C   UNL     1      -4.596  12.604  24.595  0.00  0.00    +0.000 A 
ATOM     11  C   UNL     1      -3.360  12.225  24.066  0.00  0.00    +0.000 A 
ENDBRANCH   3   6
BRANCH   5  12
ATOM     12  C   UNL     1       1.047  12.877  20.255  0.00  0.00    +0.000 A 
ATOM     13  C   UNL     1       1.140  12.642  18.874  0.00  0.00    +0.000 A 
ATOM     14  C   UNL     1       2.110  13.283  18.095  0.00  0.00    +0.000 A 
ATOM     15  C   UNL     1       3.024  14.146  18.706  0.00  0.00    +0.000 A 
ATOM     16  C   UNL     1       2.967  14.375  20.087  0.00  0.00    +0.000 A 
ATOM     17  C   UNL     1       1.979  13.742  20.852  0.00  0.00    +0.000 A 
BRANCH  15  18
ATOM     18  N   UNL     1       4.055  14.804  17.896  0.00  0.00    +0.000 N 
ATOM     19  O   UNL     1       5.234  14.459  18.072  0.00  0.00    +0.000 OA
ATOM     20  O   UNL     1       3.691  15.669  17.089  0.00  0.00    +0.000 OA
ENDBRANCH  15  18
ENDBRANCH   5  12
BRANCH   1  22
ATOM     21  O   UNL     1       1.778   9.536  22.240  0.00  0.00    +0.000 OA
ATOM     22  C   UNL     1       0.947   9.817  21.387  0.00  0.00    +0.000 C 
ATOM     23  N   UNL     1       0.844   9.194  20.151  0.00  0.00    +0.000 N 
ATOM     24  H   UNL     1       0.211   9.594  19.475  0.00  0.00    +0.000 HD
BRANCH  23  25
ATOM     25  C   UNL     1       1.660   8.135  19.702  0.00  0.00    +0.000 A 
ATOM     26  C   UNL     1       2.394   8.188  18.513  0.00  0.00    +0.000 A 
ATOM     27  C   UNL     1       3.116   7.080  18.068  0.00  0.00    +0.000 A 
ATOM     28  C   UNL     1       3.117   5.912  18.820  0.00  0.00    +0.000 A 
ATOM     29 CL   UNL     1       3.958   4.528  18.243  0.00  0.00    +0.000 Cl
ATOM     30  C   UNL     1       2.433   5.858  20.033  0.00  0.00    +0.000 A 
ATOM     31  C   UNL     1       1.719   6.974  20.483  0.00  0.00    +0.000 A 
ENDBRANCH  23  25
ENDBRANCH   1  22
TORSDOF 5
ENDMDL
MODEL 6
REMARK VINA RESULT:      -7.3      4.960      9.328
REMARK  Name = 
REMARK  5 active torsions:
REMARK  status: ('A' for Active; 'I' for Inactive)
REMARK    1  A    between atoms: C_2  and  C_11
REMARK    2  A    between atoms: N_3  and  C_4
REMARK    3  A    between atoms: N_13  and  C_14
REMARK    4  A    between atoms: C_21  and  C_22
REMARK    5  A    between atoms: C_25  and  N_26
REMARK                            x       y       z     vdW  Elec       q    Type
REMARK                         _______ _______ _______ _____ _____    ______ ____
ROOT
ATOM      1  C   UNL     1       0.065  12.152  19.078  0.00  0.00    +0.000 A 
ATOM      2  C   UNL     1      -1.176  12.744  18.943  0.00  0.00    +0.000 A 
ATOM      3  N   UNL     1      -2.106  11.735  18.852  0.00  0.00    +0.000 N 
ATOM      4  N   UNL     1      -1.517  10.520  18.874  0.00  0.00    +0.000 NA
ATOM      5  C   UNL     1      -0.199  10.750  18.990  0.00  0.00    +0.000 A 
ENDROOT
BRANCH   3   6
ATOM      6  C   UNL     1      -3.519  11.871  18.762  0.00  0.00    +0.000 A 
ATOM      7  C   UNL     1      -4.217  11.459  17.617  0.00  0.00    +0.000 A 
ATOM      8  C   UNL     1      -5.603  11.608  17.549  0.00  0.00    +0.000 A 
ATOM      9  C   UNL     1      -6.300  12.172  18.614  0.00  0.00    +0.000 A 
ATOM     10  C   UNL     1      -5.614  12.587  19.754  0.00  0.00    +0.000 A 
ATOM     11  C   UNL     1      -4.228  12.433  19.834  0.00  0.00    +0.000 A 
ENDBRANCH   3   6
BRANCH   5  12
ATOM     12  C   UNL     1       0.743   9.621  19.007  0.00  0.00    +0.000 A 
ATOM     13  C   UNL     1       0.961   8.870  20.174  0.00  0.00    +0.000 A 
ATOM     14  C   UNL     1       1.845   7.786  20.181  0.00  0.00    +0.000 A 
ATOM     15  C   UNL     1       2.549   7.464  19.017  0.00  0.00    +0.000 A 
ATOM     16  C   UNL     1       2.368   8.216  17.849  0.00  0.00    +0.000 A 
ATOM     17  C   UNL     1       1.466   9.287  17.850  0.00  0.00    +0.000 A 
BRANCH  15  18
ATOM     18  N   UNL     1       3.492   6.340  19.026  0.00  0.00    +0.000 N 
ATOM     19  O   UNL     1       4.336   6.287  18.117  0.00  0.00    +0.000 OA
ATOM     20  O   UNL     1       3.390   5.507  19.936  0.00  0.00    +0.000 OA
ENDBRANCH  15  18
ENDBRANCH   5  12
BRANCH   1  22
ATOM     21  O   UNL     1       2.008  12.512  20.307  0.00  0.00    +0.000 OA
ATOM     22  C   UNL     1       1.337  12.815  19.329  0.00  0.00    +0.000 C 
ATOM     23  N   UNL     1       1.676  13.803  18.415  0.00  0.00    +0.000 N 
ATOM     24  H   UNL     1       0.987  14.061  17.726  0.00  0.00    +0.000 HD
BRANCH  23  25
ATOM     25  C   UNL     1       2.849  14.586  18.461  0.00  0.00    +0.000 A 
ATOM     26  C   UNL     1       4.070  14.165  17.923  0.00  0.00    +0.000 A 
ATOM     27  C   UNL     1       5.221  14.937  18.073  0.00  0.00    +0.000 A 
ATOM     28  C   UNL     1       5.156  16.146  18.755  0.00  0.00    +0.000 A 
ATOM     29 CL   UNL     1       6.586  17.070  18.991  0.00  0.00    +0.000 Cl
ATOM     30  C   UNL     1       3.938  16.606  19.253  0.00  0.00    +0.000 A 
ATOM     31  C   UNL     1       2.782  15.834  19.092  0.00  0.00    +0.000 A 
ENDBRANCH  23  25
ENDBRANCH   1  22
TORSDOF 5
ENDMDL
MODEL 7
REMARK VINA RESULT:      -7.3      5.026      9.427
REMARK  Name = 
REMARK  5 active torsions:
REMARK  status: ('A' for Active; 'I' for Inactive)
REMARK    1  A    between atoms: C_2  and  C_11
REMARK    2  A    between atoms: N_3  and  C_4
REMARK    3  A    between atoms: N_13  and  C_14
REMARK    4  A    between atoms: C_21  and  C_22
REMARK    5  A    between atoms: C_25  and  N_26
REMARK                            x       y       z     vdW  Elec       q    Type
REMARK                         _______ _______ _______ _____ _____    ______ ____
ROOT
ATOM      1  C   UNL     1      -0.018  12.196  19.343  0.00  0.00    +0.000 A 
ATOM      2  C   UNL     1      -1.261  12.789  19.232  0.00  0.00    +0.000 A 
ATOM      3  N   UNL     1      -2.183  11.784  19.054  0.00  0.00    +0.000 N 
ATOM      4  N   UNL     1      -1.586  10.574  18.997  0.00  0.00    +0.000 NA
ATOM      5  C   UNL     1      -0.271  10.802  19.151  0.00  0.00    +0.000 A 
ENDROOT
BRANCH   3   6
ATOM      6  C   UNL     1      -3.595  11.918  18.952  0.00  0.00    +0.000 A 
ATOM      7  C   UNL     1      -4.329  12.619  19.920  0.00  0.00    +0.000 A 
ATOM      8  C   UNL     1      -5.715  12.732  19.802  0.00  0.00    +0.000 A 
ATOM      9  C   UNL     1      -6.378  12.143  18.728  0.00  0.00    +0.000 A 
ATOM     10  C   UNL     1      -5.657  11.442  17.764  0.00  0.00    +0.000 A 
ATOM     11  C   UNL     1      -4.268  11.332  17.869  0.00  0.00    +0.000 A 
ENDBRANCH   3   6
BRANCH   5  12
ATOM     12  C   UNL     1       0.678   9.681  19.101  0.00  0.00    +0.000 A 
ATOM     13  C   UNL     1       0.967   8.918  20.244  0.00  0.00    +0.000 A 
ATOM     14  C   UNL     1       1.858   7.841  20.188  0.00  0.00    +0.000 A 
ATOM     15  C   UNL     1       2.496   7.537  18.982  0.00  0.00    +0.000 A 
ATOM     16  C   UNL     1       2.243   8.300  17.836  0.00  0.00    +0.000 A 
ATOM     17  C   UNL     1       1.336   9.364  17.900  0.00  0.00    +0.000 A 
BRANCH  15  18
ATOM     18  N   UNL     1       3.446   6.420  18.925  0.00  0.00    +0.000 N 
ATOM     19  O   UNL     1       3.414   5.586  19.843  0.00  0.00    +0.000 OA
ATOM     20  O   UNL     1       4.229   6.377  17.966  0.00  0.00    +0.000 OA
ENDBRANCH  15  18
ENDBRANCH   5  12
BRANCH   1  22
ATOM     21  O   UNL     1       1.859  12.539  20.676  0.00  0.00    +0.000 OA
ATOM     22  C   UNL     1       1.245  12.846  19.662  0.00  0.00    +0.000 C 
ATOM     23  N   UNL     1       1.645  13.827  18.765  0.00  0.00    +0.000 N 
ATOM     24  H   UNL     1       0.997  14.090  18.038  0.00  0.00    +0.000 HD
BRANCH  23  25
ATOM     25  C   UNL     1       2.822  14.597  18.872  0.00  0.00    +0.000 A 
ATOM     26  C   UNL     1       2.911  15.749  19.661  0.00  0.00    +0.000 A 
ATOM     27  C   UNL     1       4.070  16.526  19.663  0.00  0.00    +0.000 A 
ATOM     28  C   UNL     1       5.154  16.147  18.881  0.00  0.00    +0.000 A 
ATOM     29 CL   UNL     1       6.559  17.136  18.838  0.00  0.00    +0.000 Cl
ATOM     30  C   UNL     1       5.101  14.976  18.128  0.00  0.00    +0.000 A 
ATOM     31  C   UNL     1       3.942  14.192  18.136  0.00  0.00    +0.000 A 
ENDBRANCH  23  25
ENDBRANCH   1  22
TORSDOF 5
ENDMDL
MODEL 8
REMARK VINA RESULT:      -7.3      4.951      9.341
REMARK  Name = 
REMARK  5 active torsions:
REMARK  status: ('A' for Active; 'I' for Inactive)
REMARK    1  A    between atoms: C_2  and  C_11
REMARK    2  A    between atoms: N_3  and  C_4
REMARK    3  A    between atoms: N_13  and  C_14
REMARK    4  A    between atoms: C_21  and  C_22
REMARK    5  A    between atoms: C_25  and  N_26
REMARK                            x       y       z     vdW  Elec       q    Type
REMARK                         _______ _______ _______ _____ _____    ______ ____
ROOT
ATOM      1  C   UNL     1       0.075  12.151  19.082  0.00  0.00    +0.000 A 
ATOM      2  C   UNL     1      -1.166  12.747  18.966  0.00  0.00    +0.000 A 
ATOM      3  N   UNL     1      -2.100  11.741  18.879  0.00  0.00    +0.000 N 
ATOM      4  N   UNL     1      -1.513  10.525  18.885  0.00  0.00    +0.000 NA
ATOM      5  C   UNL     1      -0.193  10.750  18.988  0.00  0.00    +0.000 A 
ENDROOT
BRANCH   3   6
ATOM      6  C   UNL     1      -3.513  11.881  18.807  0.00  0.00    +0.000 A 
ATOM      7  C   UNL     1      -4.249  12.384  19.890  0.00  0.00    +0.000 A 
ATOM      8  C   UNL     1      -5.636  12.506  19.799  0.00  0.00    +0.000 A 
ATOM      9  C   UNL     1      -6.298  12.124  18.635  0.00  0.00    +0.000 A 
ATOM     10  C   UNL     1      -5.575  11.620  17.555  0.00  0.00    +0.000 A 
ATOM     11  C   UNL     1      -4.186  11.503  17.635  0.00  0.00    +0.000 A 
ENDBRANCH   3   6
BRANCH   5  12
ATOM     12  C   UNL     1       0.746   9.619  18.986  0.00  0.00    +0.000 A 
ATOM     13  C   UNL     1       1.447   9.255  17.825  0.00  0.00    +0.000 A 
ATOM     14  C   UNL     1       2.353   8.190  17.832  0.00  0.00    +0.000 A 
ATOM     15  C   UNL     1       2.541   7.453  19.005  0.00  0.00    +0.000 A 
ATOM     16  C   UNL     1       1.833   7.782  20.168  0.00  0.00    +0.000 A 
ATOM     17  C   UNL     1       0.943   8.862  20.153  0.00  0.00    +0.000 A 
BRANCH  15  18
ATOM     18  N   UNL     1       3.476   6.322  19.011  0.00  0.00    +0.000 N 
ATOM     19  O   UNL     1       3.362   5.484  19.919  0.00  0.00    +0.000 OA
ATOM     20  O   UNL     1       4.327   6.271  18.114  0.00  0.00    +0.000 OA
ENDBRANCH  15  18
ENDBRANCH   5  12
BRANCH   1  22
ATOM     21  O   UNL     1       2.016  12.523  20.311  0.00  0.00    +0.000 OA
ATOM     22  C   UNL     1       1.352  12.809  19.324  0.00  0.00    +0.000 C 
ATOM     23  N   UNL     1       1.704  13.772  18.388  0.00  0.00    +0.000 N 
ATOM     24  H   UNL     1       1.020  14.020  17.689  0.00  0.00    +0.000 HD
BRANCH  23  25
ATOM     25  C   UNL     1       2.883  14.546  18.420  0.00  0.00    +0.000 A 
ATOM     26  C   UNL     1       4.088  14.125  17.847  0.00  0.00    +0.000 A 
ATOM     27  C   UNL     1       5.248  14.887  17.984  0.00  0.00    +0.000 A 
ATOM     28  C   UNL     1       5.207  16.085  18.688  0.00  0.00    +0.000 A 
ATOM     29 CL   UNL     1       6.649  16.994  18.907  0.00  0.00    +0.000 Cl
ATOM     30  C   UNL     1       4.005  16.544  19.221  0.00  0.00    +0.000 A 
ATOM     31  C   UNL     1       2.839  15.783  19.074  0.00  0.00    +0.000 A 
ENDBRANCH  23  25
ENDBRANCH   1  22
TORSDOF 5
ENDMDL
MODEL 9
REMARK VINA RESULT:      -7.2      5.133      9.649
REMARK  Name = 
REMARK  5 active torsions:
REMARK  status: ('A' for Active; 'I' for Inactive)
REMARK    1  A    between atoms: C_2  and  C_11
REMARK    2  A    between atoms: N_3  and  C_4
REMARK    3  A    between atoms: N_13  and  C_14
REMARK    4  A    between atoms: C_21  and  C_22
REMARK    5  A    between atoms: C_25  and  N_26
REMARK                            x       y       z     vdW  Elec       q    Type
REMARK                         _______ _______ _______ _____ _____    ______ ____
ROOT
ATOM      1  C   UNL     1       0.043  12.376  19.597  0.00  0.00    +0.000 A 
ATOM      2  C   UNL     1      -1.185  13.011  19.587  0.00  0.00    +0.000 A 
ATOM      3  N   UNL     1      -2.149  12.041  19.439  0.00  0.00    +0.000 N 
ATOM      4  N   UNL     1      -1.597  10.816  19.305  0.00  0.00    +0.000 NA
ATOM      5  C   UNL     1      -0.268  10.998  19.377  0.00  0.00    +0.000 A 
ENDROOT
BRANCH   3   6
ATOM      6  C   UNL     1      -3.559  12.221  19.436  0.00  0.00    +0.000 A 
ATOM      7  C   UNL     1      -4.353  11.722  18.393  0.00  0.00    +0.000 A 
ATOM      8  C   UNL     1      -5.735  11.917  18.408  0.00  0.00    +0.000 A 
ATOM      9  C   UNL     1      -6.332  12.614  19.455  0.00  0.00    +0.000 A 
ATOM     10  C   UNL     1      -5.551  13.117  20.493  0.00  0.00    +0.000 A 
ATOM     11  C   UNL     1      -4.169  12.918  20.490  0.00  0.00    +0.000 A 
ENDBRANCH   3   6
BRANCH   5  12
ATOM     12  C   UNL     1       0.639   9.850  19.228  0.00  0.00    +0.000 A 
ATOM     13  C   UNL     1       1.173   9.500  17.978  0.00  0.00    +0.000 A 
ATOM     14  C   UNL     1       2.050   8.418  17.845  0.00  0.00    +0.000 A 
ATOM     15  C   UNL     1       2.374   7.652  18.968  0.00  0.00    +0.000 A 
ATOM     16  C   UNL     1       1.833   7.967  20.220  0.00  0.00    +0.000 A 
ATOM     17  C   UNL     1       0.971   9.064  20.344  0.00  0.00    +0.000 A 
BRANCH  15  18
ATOM     18  N   UNL     1       3.277   6.504  18.828  0.00  0.00    +0.000 N 
ATOM     19  O   UNL     1       3.285   5.661  19.739  0.00  0.00    +0.000 OA
ATOM     20  O   UNL     1       3.983   6.444  17.813  0.00  0.00    +0.000 OA
ENDBRANCH  15  18
ENDBRANCH   5  12
BRANCH   1  22
ATOM     21  O   UNL     1       2.008  12.625  20.818  0.00  0.00    +0.000 OA
ATOM     22  C   UNL     1       1.345  12.976  19.851  0.00  0.00    +0.000 C 
ATOM     23  N   UNL     1       1.724  13.963  18.952  0.00  0.00    +0.000 N 
ATOM     24  H   UNL     1       1.043  14.265  18.272  0.00  0.00    +0.000 HD
BRANCH  23  25
ATOM     25  C   UNL     1       2.931  14.691  19.003  0.00  0.00    +0.000 A 
ATOM     26  C   UNL     1       3.123  15.793  19.844  0.00  0.00    +0.000 A 
ATOM     27  C   UNL     1       4.304  16.534  19.792  0.00  0.00    +0.000 A 
ATOM     28  C   UNL     1       5.308  16.169  18.903  0.00  0.00    +0.000 A 
ATOM     29 CL   UNL     1       6.738  17.116  18.797  0.00  0.00    +0.000 Cl
ATOM     30  C   UNL     1       5.154  15.045  18.094  0.00  0.00    +0.000 A 
ATOM     31  C   UNL     1       3.973  14.296  18.156  0.00  0.00    +0.000 A 
ENDBRANCH  23  25
ENDBRANCH   1  22
TORSDOF 5
ENDMDL
