MODEL 1
REMARK VINA RESULT:      -7.7      0.000      0.000
REMARK  Name = 
REMARK  4 active torsions:
REMARK  status: ('A' for Active; 'I' for Inactive)
REMARK    1  A    between atoms: C_1  and  C_2
REMARK    2  A    between atoms: C_6  and  N_7
REMARK    3  A    between atoms: N_7  and  C_8
REMARK    4  A    between atoms: C_14  and  N_15
REMARK                            x       y       z     vdW  Elec       q    Type
REMARK                         _______ _______ _______ _____ _____    ______ ____
ROOT
ATOM      1  C   UNL     1       5.399   4.084  17.016  0.00  0.00    +0.000 A 
ATOM      2  N   UNL     1       5.086   4.011  15.701  0.00  0.00    +0.000 NA
ATOM      3  C   UNL     1       5.600   4.931  14.880  0.00  0.00    +0.000 A 
ATOM      4  N   UNL     1       6.410   5.932  15.241  0.00  0.00    +0.000 NA
ATOM      5  C   UNL     1       6.720   6.011  16.545  0.00  0.00    +0.000 A 
ATOM      6  N   UNL     1       7.632   7.018  16.852  0.00  0.00    +0.000 N 
ATOM      7  C   UNL     1       6.225   5.098  17.461  0.00  0.00    +0.000 A 
ATOM      8  H   UNL     1       7.801   7.566  16.010  0.00  0.00    +0.000 HD
ATOM      9  H   UNL     1       7.345   7.602  17.635  0.00  0.00    +0.000 HD
ENDROOT
BRANCH   7  10
ATOM     10  N   UNL     1       6.624   5.183  18.829  0.00  0.00    +0.000 N 
ATOM     11  O   UNL     1       7.822   5.015  19.095  0.00  0.00    +0.000 OA
ATOM     12  O   UNL     1       5.733   5.430  19.655  0.00  0.00    +0.000 OA
ENDBRANCH   7  10
BRANCH   1  13
ATOM     13  N   UNL     1       4.848   3.106  17.870  0.00  0.00    +0.000 N 
ATOM     14  H   UNL     1       5.474   2.835  18.623  0.00  0.00    +0.000 HD
BRANCH  13  20
ATOM     15  C   UNL     1       2.021   2.666  21.725  0.00  0.00    +0.000 C 
ATOM     16  C   UNL     1       2.165   3.004  20.270  0.00  0.00    +0.000 A 
ATOM     17  C   UNL     1       1.063   3.455  19.548  0.00  0.00    +0.000 A 
ATOM     18  C   UNL     1       1.225   3.748  18.203  0.00  0.00    +0.000 A 
ATOM     19  C   UNL     1       2.480   3.602  17.631  0.00  0.00    +0.000 A 
ATOM     20  C   UNL     1       3.554   3.193  18.422  0.00  0.00    +0.000 A 
ATOM     21  N   UNL     1       3.400   2.861  19.721  0.00  0.00    +0.000 NA
ENDBRANCH  13  20
ENDBRANCH   1  13
TORSDOF 3
ENDMDL
MODEL 2
REMARK VINA RESULT:      -7.7      1.712      2.462
REMARK  Name = 
REMARK  4 active torsions:
REMARK  status: ('A' for Active; 'I' for Inactive)
REMARK    1  A    between atoms: C_1  and  C_2
REMARK    2  A    between atoms: C_6  and  N_7
REMARK    3  A    between atoms: N_7  and  C_8
REMARK    4  A    between atoms: C_14  and  N_15
REMARK                            x       y       z     vdW  Elec       q    Type
REMARK                         _______ _______ _______ _____ _____    ______ ____
ROOT
ATOM      1  C   UNL     1       5.975   4.572  18.064  0.00  0.00    +0.000 A 
ATOM      2  N   UNL     1       6.458   4.612  19.328  0.00  0.00    +0.000 NA
ATOM      3  C   UNL     1       7.358   5.552  19.628  0.00  0.00    +0.000 A 
ATOM      4  N   UNL     1       7.832   6.474  18.784  0.00  0.00    +0.000 NA
ATOM      5  C   UNL     1       7.359   6.436  17.528  0.00  0.00    +0.000 A 
ATOM      6  N   UNL     1       7.822   7.468  16.715  0.00  0.00    +0.000 N 
ATOM      7  C   UNL     1       6.427   5.490  17.136  0.00  0.00    +0.000 A 
ATOM      8  H   UNL     1       8.523   7.995  17.233  0.00  0.00    +0.000 HD
ATOM      9  H   UNL     1       8.173   7.151  15.815  0.00  0.00    +0.000 HD
ENDROOT
BRANCH   7  10
ATOM     10  N   UNL     1       5.907   5.518  15.807  0.00  0.00    +0.000 N 
ATOM     11  O   UNL     1       6.093   4.526  15.091  0.00  0.00    +0.000 OA
ATOM     12  O   UNL     1       5.295   6.543  15.471  0.00  0.00    +0.000 OA
ENDBRANCH   7  10
BRANCH   1  13
ATOM     13  N   UNL     1       5.026   3.572  17.763  0.00  0.00    +0.000 N 
ATOM     14  H   UNL     1       5.395   2.631  17.858  0.00  0.00    +0.000 HD
BRANCH  13  20
ATOM     15  C   UNL     1       2.144   2.760  21.515  0.00  0.00    +0.000 C 
ATOM     16  C   UNL     1       2.302   3.188  20.086  0.00  0.00    +0.000 A 
ATOM     17  C   UNL     1       1.192   3.619  19.362  0.00  0.00    +0.000 A 
ATOM     18  C   UNL     1       1.366   3.997  18.041  0.00  0.00    +0.000 A 
ATOM     19  C   UNL     1       2.640   3.952  17.493  0.00  0.00    +0.000 A 
ATOM     20  C   UNL     1       3.718   3.557  18.286  0.00  0.00    +0.000 A 
ATOM     21  N   UNL     1       3.554   3.144  19.560  0.00  0.00    +0.000 NA
ENDBRANCH  13  20
ENDBRANCH   1  13
TORSDOF 3
ENDMDL
MODEL 3
REMARK VINA RESULT:      -7.7      0.891      1.232
REMARK  Name = 
REMARK  4 active torsions:
REMARK  status: ('A' for Active; 'I' for Inactive)
REMARK    1  A    between atoms: C_1  and  C_2
REMARK    2  A    between atoms: C_6  and  N_7
REMARK    3  A    between atoms: N_7  and  C_8
REMARK    4  A    between atoms: C_14  and  N_15
REMARK                            x       y       z     vdW  Elec       q    Type
REMARK                         _______ _______ _______ _____ _____    ______ ____
ROOT
ATOM      1  C   UNL     1       5.390   4.116  17.143  0.00  0.00    +0.000 A 
ATOM      2  N   UNL     1       4.914   4.071  15.877  0.00  0.00    +0.000 NA
ATOM      3  C   UNL     1       5.357   4.980  15.005  0.00  0.00    +0.000 A 
ATOM      4  N   UNL     1       6.245   5.944  15.269  0.00  0.00    +0.000 NA
ATOM      5  C   UNL     1       6.718   5.995  16.524  0.00  0.00    +0.000 A 
ATOM      6  N   UNL     1       7.700   6.963  16.722  0.00  0.00    +0.000 N 
ATOM      7  C   UNL     1       6.305   5.092  17.489  0.00  0.00    +0.000 A 
ATOM      8  H   UNL     1       7.785   7.514  15.869  0.00  0.00    +0.000 HD
ATOM      9  H   UNL     1       7.536   7.548  17.538  0.00  0.00    +0.000 HD
ENDROOT
BRANCH   7  10
ATOM     10  N   UNL     1       6.873   5.146  18.797  0.00  0.00    +0.000 N 
ATOM     11  O   UNL     1       6.140   5.489  19.734  0.00  0.00    +0.000 OA
ATOM     12  O   UNL     1       8.069   4.832  18.898  0.00  0.00    +0.000 OA
ENDBRANCH   7  10
BRANCH   1  13
ATOM     13  N   UNL     1       4.910   3.150  18.053  0.00  0.00    +0.000 N 
ATOM     14  H   UNL     1       5.534   3.001  18.841  0.00  0.00    +0.000 HD
BRANCH  13  20
ATOM     15  C   UNL     1       1.554   5.319  20.713  0.00  0.00    +0.000 C 
ATOM     16  C   UNL     1       1.949   4.176  19.826  0.00  0.00    +0.000 A 
ATOM     17  C   UNL     1       1.008   3.209  19.479  0.00  0.00    +0.000 A 
ATOM     18  C   UNL     1       1.405   2.158  18.668  0.00  0.00    +0.000 A 
ATOM     19  C   UNL     1       2.716   2.117  18.216  0.00  0.00    +0.000 A 
ATOM     20  C   UNL     1       3.596   3.143  18.560  0.00  0.00    +0.000 A 
ATOM     21  N   UNL     1       3.234   4.148  19.386  0.00  0.00    +0.000 NA
ENDBRANCH  13  20
ENDBRANCH   1  13
TORSDOF 3
ENDMDL
MODEL 4
REMARK VINA RESULT:      -7.6      2.054      2.975
REMARK  Name = 
REMARK  4 active torsions:
REMARK  status: ('A' for Active; 'I' for Inactive)
REMARK    1  A    between atoms: C_1  and  C_2
REMARK    2  A    between atoms: C_6  and  N_7
REMARK    3  A    between atoms: N_7  and  C_8
REMARK    4  A    between atoms: C_14  and  N_15
REMARK                            x       y       z     vdW  Elec       q    Type
REMARK                         _______ _______ _______ _____ _____    ______ ____
ROOT
ATOM      1  C   UNL     1       5.990   4.325  18.735  0.00  0.00    +0.000 A 
ATOM      2  N   UNL     1       6.720   4.996  19.658  0.00  0.00    +0.000 NA
ATOM      3  C   UNL     1       7.602   5.900  19.226  0.00  0.00    +0.000 A 
ATOM      4  N   UNL     1       7.833   6.214  17.947  0.00  0.00    +0.000 NA
ATOM      5  C   UNL     1       7.114   5.550  17.028  0.00  0.00    +0.000 A 
ATOM      6  N   UNL     1       7.334   5.975  15.720  0.00  0.00    +0.000 N 
ATOM      7  C   UNL     1       6.182   4.594  17.394  0.00  0.00    +0.000 A 
ATOM      8  H   UNL     1       8.092   6.655  15.726  0.00  0.00    +0.000 HD
ATOM      9  H   UNL     1       7.510   5.213  15.069  0.00  0.00    +0.000 HD
ENDROOT
BRANCH   7  10
ATOM     10  N   UNL     1       5.399   3.950  16.389  0.00  0.00    +0.000 N 
ATOM     11  O   UNL     1       4.166   4.021  16.481  0.00  0.00    +0.000 OA
ATOM     12  O   UNL     1       6.019   3.371  15.485  0.00  0.00    +0.000 OA
ENDBRANCH   7  10
BRANCH   1  13
ATOM     13  N   UNL     1       5.063   3.372  19.207  0.00  0.00    +0.000 N 
ATOM     14  H   UNL     1       5.474   2.703  19.852  0.00  0.00    +0.000 HD
BRANCH  13  20
ATOM     15  C   UNL     1       1.886   6.795  20.315  0.00  0.00    +0.000 C 
ATOM     16  C   UNL     1       2.229   5.336  20.243  0.00  0.00    +0.000 A 
ATOM     17  C   UNL     1       1.280   4.380  20.595  0.00  0.00    +0.000 A 
ATOM     18  C   UNL     1       1.630   3.041  20.530  0.00  0.00    +0.000 A 
ATOM     19  C   UNL     1       2.903   2.701  20.098  0.00  0.00    +0.000 A 
ATOM     20  C   UNL     1       3.791   3.706  19.712  0.00  0.00    +0.000 A 
ATOM     21  N   UNL     1       3.478   5.015  19.814  0.00  0.00    +0.000 NA
ENDBRANCH  13  20
ENDBRANCH   1  13
TORSDOF 3
ENDMDL
MODEL 5
REMARK VINA RESULT:      -7.5      1.452      1.569
REMARK  Name = 
REMARK  4 active torsions:
REMARK  status: ('A' for Active; 'I' for Inactive)
REMARK    1  A    between atoms: C_1  and  C_2
REMARK    2  A    between atoms: C_6  and  N_7
REMARK    3  A    between atoms: N_7  and  C_8
REMARK    4  A    between atoms: C_14  and  N_15
REMARK                            x       y       z     vdW  Elec       q    Type
REMARK                         _______ _______ _______ _____ _____    ______ ____
ROOT
ATOM      1  C   UNL     1       5.412   4.898  17.788  0.00  0.00    +0.000 A 
ATOM      2  N   UNL     1       4.346   5.486  17.196  0.00  0.00    +0.000 NA
ATOM      3  C   UNL     1       4.501   6.716  16.700  0.00  0.00    +0.000 A 
ATOM      4  N   UNL     1       5.631   7.431  16.730  0.00  0.00    +0.000 NA
ATOM      5  C   UNL     1       6.690   6.854  17.319  0.00  0.00    +0.000 A 
ATOM      6  N   UNL     1       7.860   7.606  17.249  0.00  0.00    +0.000 N 
ATOM      7  C   UNL     1       6.609   5.582  17.862  0.00  0.00    +0.000 A 
ATOM      8  H   UNL     1       7.635   8.512  16.838  0.00  0.00    +0.000 HD
ATOM      9  H   UNL     1       8.337   7.701  18.142  0.00  0.00    +0.000 HD
ENDROOT
BRANCH   7  10
ATOM     10  N   UNL     1       7.773   4.981  18.430  0.00  0.00    +0.000 N 
ATOM     11  O   UNL     1       8.132   5.361  19.552  0.00  0.00    +0.000 OA
ATOM     12  O   UNL     1       8.336   4.110  17.752  0.00  0.00    +0.000 OA
ENDBRANCH   7  10
BRANCH   1  13
ATOM     13  N   UNL     1       5.231   3.599  18.308  0.00  0.00    +0.000 N 
ATOM     14  H   UNL     1       5.900   3.365  19.036  0.00  0.00    +0.000 HD
BRANCH  13  20
ATOM     15  C   UNL     1       1.970   3.113  21.798  0.00  0.00    +0.000 C 
ATOM     16  C   UNL     1       2.381   2.853  20.378  0.00  0.00    +0.000 A 
ATOM     17  C   UNL     1       1.508   2.202  19.511  0.00  0.00    +0.000 A 
ATOM     18  C   UNL     1       1.919   1.964  18.209  0.00  0.00    +0.000 A 
ATOM     19  C   UNL     1       3.175   2.400  17.813  0.00  0.00    +0.000 A 
ATOM     20  C   UNL     1       3.982   3.091  18.717  0.00  0.00    +0.000 A 
ATOM     21  N   UNL     1       3.611   3.288  20.000  0.00  0.00    +0.000 NA
ENDBRANCH  13  20
ENDBRANCH   1  13
TORSDOF 3
ENDMDL
MODEL 6
REMARK VINA RESULT:      -7.4      1.944      2.697
REMARK  Name = 
REMARK  4 active torsions:
REMARK  status: ('A' for Active; 'I' for Inactive)
REMARK    1  A    between atoms: C_1  and  C_2
REMARK    2  A    between atoms: C_6  and  N_7
REMARK    3  A    between atoms: N_7  and  C_8
REMARK    4  A    between atoms: C_14  and  N_15
REMARK                            x       y       z     vdW  Elec       q    Type
REMARK                         _______ _______ _______ _____ _____    ______ ____
ROOT
ATOM      1  C   UNL     1       5.809   4.547  17.887  0.00  0.00    +0.000 A 
ATOM      2  N   UNL     1       6.285   4.458  19.151  0.00  0.00    +0.000 NA
ATOM      3  C   UNL     1       7.220   5.332  19.534  0.00  0.00    +0.000 A 
ATOM      4  N   UNL     1       7.735   6.304  18.776  0.00  0.00    +0.000 NA
ATOM      5  C   UNL     1       7.268   6.395  17.520  0.00  0.00    +0.000 A 
ATOM      6  N   UNL     1       7.776   7.476  16.802  0.00  0.00    +0.000 N 
ATOM      7  C   UNL     1       6.302   5.525  17.044  0.00  0.00    +0.000 A 
ATOM      8  H   UNL     1       8.494   7.927  17.366  0.00  0.00    +0.000 HD
ATOM      9  H   UNL     1       8.120   7.224  15.878  0.00  0.00    +0.000 HD
ENDROOT
BRANCH   7  10
ATOM     10  N   UNL     1       5.792   5.690  15.721  0.00  0.00    +0.000 N 
ATOM     11  O   UNL     1       5.194   6.742  15.458  0.00  0.00    +0.000 OA
ATOM     12  O   UNL     1       5.997   4.761  14.926  0.00  0.00    +0.000 OA
ENDBRANCH   7  10
BRANCH   1  13
ATOM     13  N   UNL     1       4.824   3.617  17.497  0.00  0.00    +0.000 N 
ATOM     14  H   UNL     1       5.198   2.687  17.328  0.00  0.00    +0.000 HD
BRANCH  13  20
ATOM     15  C   UNL     1       1.603   5.375  20.592  0.00  0.00    +0.000 C 
ATOM     16  C   UNL     1       2.016   4.282  19.650  0.00  0.00    +0.000 A 
ATOM     17  C   UNL     1       1.164   3.205  19.420  0.00  0.00    +0.000 A 
ATOM     18  C   UNL     1       1.578   2.204  18.555  0.00  0.00    +0.000 A 
ATOM     19  C   UNL     1       2.813   2.322  17.936  0.00  0.00    +0.000 A 
ATOM     20  C   UNL     1       3.598   3.451  18.171  0.00  0.00    +0.000 A 
ATOM     21  N   UNL     1       3.226   4.410  19.046  0.00  0.00    +0.000 NA
ENDBRANCH  13  20
ENDBRANCH   1  13
TORSDOF 3
ENDMDL
MODEL 7
REMARK VINA RESULT:      -7.4      1.953      2.719
REMARK  Name = 
REMARK  4 active torsions:
REMARK  status: ('A' for Active; 'I' for Inactive)
REMARK    1  A    between atoms: C_1  and  C_2
REMARK    2  A    between atoms: C_6  and  N_7
REMARK    3  A    between atoms: N_7  and  C_8
REMARK    4  A    between atoms: C_14  and  N_15
REMARK                            x       y       z     vdW  Elec       q    Type
REMARK                         _______ _______ _______ _____ _____    ______ ____
ROOT
ATOM      1  C   UNL     1       6.076   4.499  18.534  0.00  0.00    +0.000 A 
ATOM      2  N   UNL     1       6.835   5.270  19.349  0.00  0.00    +0.000 NA
ATOM      3  C   UNL     1       7.697   6.121  18.787  0.00  0.00    +0.000 A 
ATOM      4  N   UNL     1       7.883   6.287  17.473  0.00  0.00    +0.000 NA
ATOM      5  C   UNL     1       7.136   5.523  16.661  0.00  0.00    +0.000 A 
ATOM      6  N   UNL     1       7.308   5.797  15.306  0.00  0.00    +0.000 N 
ATOM      7  C   UNL     1       6.221   4.614  17.165  0.00  0.00    +0.000 A 
ATOM      8  H   UNL     1       8.063   6.473  15.208  0.00  0.00    +0.000 HD
ATOM      9  H   UNL     1       7.466   4.966  14.740  0.00  0.00    +0.000 HD
ENDROOT
BRANCH   7  10
ATOM     10  N   UNL     1       5.406   3.860  16.267  0.00  0.00    +0.000 N 
ATOM     11  O   UNL     1       4.178   3.913  16.416  0.00  0.00    +0.000 OA
ATOM     12  O   UNL     1       5.996   3.210  15.392  0.00  0.00    +0.000 OA
ENDBRANCH   7  10
BRANCH   1  13
ATOM     13  N   UNL     1       5.171   3.605  19.143  0.00  0.00    +0.000 N 
ATOM     14  H   UNL     1       5.608   3.006  19.836  0.00  0.00    +0.000 HD
BRANCH  13  20
ATOM     15  C   UNL     1       1.314   2.475  21.769  0.00  0.00    +0.000 C 
ATOM     16  C   UNL     1       2.054   3.485  20.941  0.00  0.00    +0.000 A 
ATOM     17  C   UNL     1       1.535   4.768  20.782  0.00  0.00    +0.000 A 
ATOM     18  C   UNL     1       2.233   5.675  20.002  0.00  0.00    +0.000 A 
ATOM     19  C   UNL     1       3.432   5.281  19.427  0.00  0.00    +0.000 A 
ATOM     20  C   UNL     1       3.922   3.997  19.665  0.00  0.00    +0.000 A 
ATOM     21  N   UNL     1       3.229   3.089  20.385  0.00  0.00    +0.000 NA
ENDBRANCH  13  20
ENDBRANCH   1  13
TORSDOF 3
ENDMDL
MODEL 8
REMARK VINA RESULT:      -7.4      1.876      5.459
REMARK  Name = 
REMARK  4 active torsions:
REMARK  status: ('A' for Active; 'I' for Inactive)
REMARK    1  A    between atoms: C_1  and  C_2
REMARK    2  A    between atoms: C_6  and  N_7
REMARK    3  A    between atoms: N_7  and  C_8
REMARK    4  A    between atoms: C_14  and  N_15
REMARK                            x       y       z     vdW  Elec       q    Type
REMARK                         _______ _______ _______ _____ _____    ______ ____
ROOT
ATOM      1  C   UNL     1       3.136   2.699  18.313  0.00  0.00    +0.000 A 
ATOM      2  N   UNL     1       1.867   2.749  17.842  0.00  0.00    +0.000 NA
ATOM      3  C   UNL     1       0.867   2.730  18.727  0.00  0.00    +0.000 A 
ATOM      4  N   UNL     1       1.003   2.669  20.056  0.00  0.00    +0.000 NA
ATOM      5  C   UNL     1       2.259   2.616  20.527  0.00  0.00    +0.000 A 
ATOM      6  N   UNL     1       2.345   2.638  21.917  0.00  0.00    +0.000 N 
ATOM      7  C   UNL     1       3.351   2.627  19.675  0.00  0.00    +0.000 A 
ATOM      8  H   UNL     1       1.402   2.588  22.299  0.00  0.00    +0.000 HD
ATOM      9  H   UNL     1       2.949   1.914  22.299  0.00  0.00    +0.000 HD
ENDROOT
BRANCH   7  10
ATOM     10  N   UNL     1       4.671   2.625  20.219  0.00  0.00    +0.000 N 
ATOM     11  O   UNL     1       5.441   3.531  19.874  0.00  0.00    +0.000 OA
ATOM     12  O   UNL     1       4.946   1.711  21.011  0.00  0.00    +0.000 OA
ENDBRANCH   7  10
BRANCH   1  13
ATOM     13  N   UNL     1       4.181   2.718  17.366  0.00  0.00    +0.000 N 
ATOM     14  H   UNL     1       4.062   2.031  16.628  0.00  0.00    +0.000 HD
BRANCH  13  20
ATOM     15  C   UNL     1       6.918   4.736  13.978  0.00  0.00    +0.000 C 
ATOM     16  C   UNL     1       5.962   4.900  15.122  0.00  0.00    +0.000 A 
ATOM     17  C   UNL     1       5.530   6.172  15.491  0.00  0.00    +0.000 A 
ATOM     18  C   UNL     1       4.657   6.293  16.560  0.00  0.00    +0.000 A 
ATOM     19  C   UNL     1       4.229   5.144  17.209  0.00  0.00    +0.000 A 
ATOM     20  C   UNL     1       4.661   3.896  16.759  0.00  0.00    +0.000 A 
ATOM     21  N   UNL     1       5.547   3.768  15.749  0.00  0.00    +0.000 NA
ENDBRANCH  13  20
ENDBRANCH   1  13
TORSDOF 3
ENDMDL
MODEL 9
REMARK VINA RESULT:      -7.4      3.482      5.224
REMARK  Name = 
REMARK  4 active torsions:
REMARK  status: ('A' for Active; 'I' for Inactive)
REMARK    1  A    between atoms: C_1  and  C_2
REMARK    2  A    between atoms: C_6  and  N_7
REMARK    3  A    between atoms: N_7  and  C_8
REMARK    4  A    between atoms: C_14  and  N_15
REMARK                            x       y       z     vdW  Elec       q    Type
REMARK                         _______ _______ _______ _____ _____    ______ ____
ROOT
ATOM      1  C   UNL     1       2.747   4.517  19.828  0.00  0.00    +0.000 A 
ATOM      2  N   UNL     1       1.542   4.163  20.333  0.00  0.00    +0.000 NA
ATOM      3  C   UNL     1       1.102   2.924  20.100  0.00  0.00    +0.000 A 
ATOM      4  N   UNL     1       1.753   1.984  19.406  0.00  0.00    +0.000 NA
ATOM      5  C   UNL     1       2.947   2.332  18.900  0.00  0.00    +0.000 A 
ATOM      6  N   UNL     1       3.617   1.292  18.260  0.00  0.00    +0.000 N 
ATOM      7  C   UNL     1       3.471   3.598  19.094  0.00  0.00    +0.000 A 
ATOM      8  H   UNL     1       2.996   0.485  18.222  0.00  0.00    +0.000 HD
ATOM      9  H   UNL     1       3.973   1.542  17.340  0.00  0.00    +0.000 HD
ENDROOT
BRANCH   7  10
ATOM     10  N   UNL     1       4.769   3.911  18.587  0.00  0.00    +0.000 N 
ATOM     11  O   UNL     1       4.912   3.974  17.359  0.00  0.00    +0.000 OA
ATOM     12  O   UNL     1       5.661   4.106  19.425  0.00  0.00    +0.000 OA
ENDBRANCH   7  10
BRANCH   1  13
ATOM     13  N   UNL     1       3.197   5.830  20.082  0.00  0.00    +0.000 N 
ATOM     14  H   UNL     1       4.202   5.935  19.974  0.00  0.00    +0.000 HD
BRANCH  13  20
ATOM     15  C   UNL     1       0.440   9.707  20.720  0.00  0.00    +0.000 C 
ATOM     16  C   UNL     1       1.286   8.869  19.807  0.00  0.00    +0.000 A 
ATOM     17  C   UNL     1       1.512   9.280  18.496  0.00  0.00    +0.000 A 
ATOM     18  C   UNL     1       2.287   8.479  17.673  0.00  0.00    +0.000 A 
ATOM     19  C   UNL     1       2.825   7.310  18.190  0.00  0.00    +0.000 A 
ATOM     20  C   UNL     1       2.601   6.979  19.526  0.00  0.00    +0.000 A 
ATOM     21  N   UNL     1       1.811   7.727  20.325  0.00  0.00    +0.000 NA
ENDBRANCH  13  20
ENDBRANCH   1  13
TORSDOF 3
ENDMDL
