MODEL 1
REMARK VINA RESULT:      -5.6      0.000      0.000
REMARK  Name = 
REMARK  20 active torsions:
REMARK  status: ('A' for Active; 'I' for Inactive)
REMARK    1  A    between atoms: C_2  and  C_3
REMARK    2  A    between atoms: C_3  and  N_4
REMARK    3  A    between atoms: N_7  and  C_8
REMARK    4  A    between atoms: C_8  and  C_9
REMARK    5  A    between atoms: C_9  and  C_10
REMARK    6  A    between atoms: C_10  and  C_11
REMARK    7  A    between atoms: C_11  and  C_12
REMARK    8  A    between atoms: C_12  and  C_13
REMARK    9  A    between atoms: C_13  and  C_14
REMARK   10  A    between atoms: C_14  and  C_15
REMARK   11  A    between atoms: C_15  and  N_16
REMARK   12  A    between atoms: N_16  and  C_17
REMARK   13  A    between atoms: C_17  and  C_18
REMARK   14  A    between atoms: C_18  and  C_19
REMARK   15  A    between atoms: C_19  and  C_20
REMARK   16  A    between atoms: C_20  and  C_21
REMARK   17  A    between atoms: C_21  and  C_22
REMARK   18  A    between atoms: C_22  and  C_23
REMARK   19  A    between atoms: C_23  and  C_24
REMARK   20  A    between atoms: C_24  and  N_25
REMARK                            x       y       z     vdW  Elec       q    Type
REMARK                         _______ _______ _______ _____ _____    ______ ____
ROOT
ATOM      1  C   UNL     1       3.348   3.872  20.608  0.00  0.00    +0.000 C 
ENDROOT
BRANCH   1   2
ATOM      2  N   UNL     1       1.957   4.178  20.244  0.00  0.00    +0.000 NA
ATOM      3  H   UNL     1       1.325   3.624  20.821  0.00  0.00    +0.000 HD
BRANCH   2   4
ATOM      4  C   UNL     1       1.698   5.609  20.467  0.00  0.00    +0.000 C 
BRANCH   4   5
ATOM      5  C   UNL     1       2.700   6.434  19.676  0.00  0.00    +0.000 C 
BRANCH   5   6
ATOM      6  C   UNL     1       2.100   6.805  18.330  0.00  0.00    +0.000 C 
BRANCH   6   7
ATOM      7  C   UNL     1       2.887   7.954  17.723  0.00  0.00    +0.000 C 
BRANCH   7   8
ATOM      8  C   UNL     1       2.285   9.275  18.174  0.00  0.00    +0.000 C 
BRANCH   8   9
ATOM      9  C   UNL     1       0.812   9.315  17.800  0.00  0.00    +0.000 C 
BRANCH   9  10
ATOM     10  C   UNL     1       0.008   9.855  18.971  0.00  0.00    +0.000 C 
BRANCH  10  11
ATOM     11  C   UNL     1       0.839   9.759  20.239  0.00  0.00    +0.000 C 
BRANCH  11  12
ATOM     12  N   UNL     1       0.390  10.784  21.192  0.00  0.00    +0.000 N 
ATOM     13  C   UNL     1      -0.329  10.389  22.412  0.00  0.00    +0.000 C 
ATOM     14  N   UNL     1      -0.723  11.292  23.266  0.00  0.00    +0.000 NA
ATOM     15  N   UNL     1      -0.597   8.970  22.681  0.00  0.00    +0.000 N 
ATOM     16  H   UNL     1       0.575  11.719  21.013  0.00  0.00    +0.000 HD
ATOM     17  H   UNL     1      -0.531  12.222  23.089  0.00  0.00    +0.000 HD
ATOM     18  H   UNL     1      -0.295   8.285  22.043  0.00  0.00    +0.000 HD
ATOM     19  H   UNL     1      -1.076   8.708  23.499  0.00  0.00    +0.000 HD
ENDBRANCH  11  12
ENDBRANCH  10  11
ENDBRANCH   9  10
ENDBRANCH   8   9
ENDBRANCH   7   8
ENDBRANCH   6   7
ENDBRANCH   5   6
ENDBRANCH   4   5
ENDBRANCH   2   4
ENDBRANCH   1   2
BRANCH   1  20
ATOM     20  C   UNL     1       3.692   2.462  20.153  0.00  0.00    +0.000 C 
BRANCH  20  21
ATOM     21  C   UNL     1       2.774   2.061  19.009  0.00  0.00    +0.000 C 
BRANCH  21  22
ATOM     22  C   UNL     1       3.554   2.073  17.706  0.00  0.00    +0.000 C 
BRANCH  22  23
ATOM     23  C   UNL     1       3.164   3.297  16.893  0.00  0.00    +0.000 C 
BRANCH  23  24
ATOM     24  C   UNL     1       4.247   4.356  17.019  0.00  0.00    +0.000 C 
BRANCH  24  25
ATOM     25  C   UNL     1       5.130   4.329  15.781  0.00  0.00    +0.000 C 
BRANCH  25  26
ATOM     26  C   UNL     1       6.589   4.275  16.201  0.00  0.00    +0.000 C 
BRANCH  26  30
ATOM     27  N   UNL     1       7.921   7.834  17.033  0.00  0.00    +0.000 N 
ATOM     28  C   UNL     1       7.316   6.504  17.196  0.00  0.00    +0.000 C 
ATOM     29  N   UNL     1       6.885   6.118  18.377  0.00  0.00    +0.000 NA
ATOM     30  N   UNL     1       7.194   5.605  16.038  0.00  0.00    +0.000 N 
ATOM     31  H   UNL     1       8.619   7.985  16.349  0.00  0.00    +0.000 HD
ATOM     32  H   UNL     1       6.969   6.719  19.154  0.00  0.00    +0.000 HD
ATOM     33  H   UNL     1       7.519   5.895  15.157  0.00  0.00    +0.000 HD
BRANCH  27  34
ATOM     34  C   UNL     1       7.495   8.946  17.894  0.00  0.00    +0.000 C 
BRANCH  34  36
ATOM     35  C   UNL     1       9.698  10.634  18.413  0.00  0.00    +0.000 C 
ATOM     36  C   UNL     1       8.681   9.854  18.173  0.00  0.00    +0.000 C 
ENDBRANCH  34  36
ENDBRANCH  27  34
ENDBRANCH  26  30
ENDBRANCH  25  26
ENDBRANCH  24  25
ENDBRANCH  23  24
ENDBRANCH  22  23
ENDBRANCH  21  22
ENDBRANCH  20  21
ENDBRANCH   1  20
TORSDOF 20
ENDMDL
MODEL 2
REMARK VINA RESULT:      -5.5      2.127      7.913
REMARK  Name = 
REMARK  20 active torsions:
REMARK  status: ('A' for Active; 'I' for Inactive)
REMARK    1  A    between atoms: C_2  and  C_3
REMARK    2  A    between atoms: C_3  and  N_4
REMARK    3  A    between atoms: N_7  and  C_8
REMARK    4  A    between atoms: C_8  and  C_9
REMARK    5  A    between atoms: C_9  and  C_10
REMARK    6  A    between atoms: C_10  and  C_11
REMARK    7  A    between atoms: C_11  and  C_12
REMARK    8  A    between atoms: C_12  and  C_13
REMARK    9  A    between atoms: C_13  and  C_14
REMARK   10  A    between atoms: C_14  and  C_15
REMARK   11  A    between atoms: C_15  and  N_16
REMARK   12  A    between atoms: N_16  and  C_17
REMARK   13  A    between atoms: C_17  and  C_18
REMARK   14  A    between atoms: C_18  and  C_19
REMARK   15  A    between atoms: C_19  and  C_20
REMARK   16  A    between atoms: C_20  and  C_21
REMARK   17  A    between atoms: C_21  and  C_22
REMARK   18  A    between atoms: C_22  and  C_23
REMARK   19  A    between atoms: C_23  and  C_24
REMARK   20  A    between atoms: C_24  and  N_25
REMARK                            x       y       z     vdW  Elec       q    Type
REMARK                         _______ _______ _______ _____ _____    ______ ____
ROOT
ATOM      1  C   UNL     1       5.690   5.815  19.233  0.00  0.00    +0.000 C 
ENDROOT
BRANCH   1   2
ATOM      2  N   UNL     1       6.947   5.053  19.206  0.00  0.00    +0.000 NA
ATOM      3  H   UNL     1       6.739   4.055  19.199  0.00  0.00    +0.000 HD
BRANCH   2   4
ATOM      4  C   UNL     1       7.706   5.405  17.997  0.00  0.00    +0.000 C 
BRANCH   4   5
ATOM      5  C   UNL     1       7.332   4.455  16.870  0.00  0.00    +0.000 C 
BRANCH   5   6
ATOM      6  C   UNL     1       6.659   5.235  15.752  0.00  0.00    +0.000 C 
BRANCH   6   7
ATOM      7  C   UNL     1       5.172   4.922  15.741  0.00  0.00    +0.000 C 
BRANCH   7   8
ATOM      8  C   UNL     1       4.936   3.554  16.359  0.00  0.00    +0.000 C 
BRANCH   8   9
ATOM      9  C   UNL     1       3.475   3.423  16.758  0.00  0.00    +0.000 C 
BRANCH   9  10
ATOM     10  C   UNL     1       3.300   2.201  17.644  0.00  0.00    +0.000 C 
BRANCH  10  11
ATOM     11  C   UNL     1       1.971   2.296  18.374  0.00  0.00    +0.000 C 
BRANCH  11  12
ATOM     12  N   UNL     1       2.182   2.016  19.802  0.00  0.00    +0.000 N 
ATOM     13  C   UNL     1       1.434   2.773  20.817  0.00  0.00    +0.000 C 
ATOM     14  N   UNL     1       1.609   2.524  22.085  0.00  0.00    +0.000 NA
ATOM     15  N   UNL     1       0.476   3.807  20.407  0.00  0.00    +0.000 N 
ATOM     16  H   UNL     1       2.810   1.328  20.068  0.00  0.00    +0.000 HD
ATOM     17  H   UNL     1       2.231   1.833  22.347  0.00  0.00    +0.000 HD
ATOM     18  H   UNL     1       0.335   3.993  19.451  0.00  0.00    +0.000 HD
ATOM     19  H   UNL     1      -0.025   4.310  21.087  0.00  0.00    +0.000 HD
ENDBRANCH  11  12
ENDBRANCH  10  11
ENDBRANCH   9  10
ENDBRANCH   8   9
ENDBRANCH   7   8
ENDBRANCH   6   7
ENDBRANCH   5   6
ENDBRANCH   4   5
ENDBRANCH   2   4
ENDBRANCH   1   2
BRANCH   1  20
ATOM     20  C   UNL     1       4.551   4.899  19.653  0.00  0.00    +0.000 C 
BRANCH  20  21
ATOM     21  C   UNL     1       3.254   5.691  19.697  0.00  0.00    +0.000 C 
BRANCH  21  22
ATOM     22  C   UNL     1       3.160   6.577  18.466  0.00  0.00    +0.000 C 
BRANCH  22  23
ATOM     23  C   UNL     1       2.021   7.568  18.642  0.00  0.00    +0.000 C 
BRANCH  23  24
ATOM     24  C   UNL     1       2.207   8.729  17.679  0.00  0.00    +0.000 C 
BRANCH  24  25
ATOM     25  C   UNL     1       1.501   9.960  18.226  0.00  0.00    +0.000 C 
BRANCH  25  26
ATOM     26  C   UNL     1       0.910   9.640  19.589  0.00  0.00    +0.000 C 
BRANCH  26  30
ATOM     27  N   UNL     1      -1.051  12.157  21.812  0.00  0.00    +0.000 N 
ATOM     28  C   UNL     1      -0.136  11.079  21.410  0.00  0.00    +0.000 C 
ATOM     29  N   UNL     1       0.565  10.440  22.320  0.00  0.00    +0.000 NA
ATOM     30  N   UNL     1      -0.005  10.718  19.991  0.00  0.00    +0.000 N 
ATOM     31  H   UNL     1      -1.232  12.914  21.201  0.00  0.00    +0.000 HD
ATOM     32  H   UNL     1       0.480  10.683  23.272  0.00  0.00    +0.000 HD
ATOM     33  H   UNL     1      -0.529  11.199  19.312  0.00  0.00    +0.000 HD
BRANCH  27  34
ATOM     34  C   UNL     1      -1.697  12.120  23.132  0.00  0.00    +0.000 C 
BRANCH  34  36
ATOM     35  C   UNL     1      -4.398  12.903  22.882  0.00  0.00    +0.000 C 
ATOM     36  C   UNL     1      -3.151  12.542  22.998  0.00  0.00    +0.000 C 
ENDBRANCH  34  36
ENDBRANCH  27  34
ENDBRANCH  26  30
ENDBRANCH  25  26
ENDBRANCH  24  25
ENDBRANCH  23  24
ENDBRANCH  22  23
ENDBRANCH  21  22
ENDBRANCH  20  21
ENDBRANCH   1  20
TORSDOF 20
ENDMDL
MODEL 3
REMARK VINA RESULT:      -5.4      3.721      7.365
REMARK  Name = 
REMARK  20 active torsions:
REMARK  status: ('A' for Active; 'I' for Inactive)
REMARK    1  A    between atoms: C_2  and  C_3
REMARK    2  A    between atoms: C_3  and  N_4
REMARK    3  A    between atoms: N_7  and  C_8
REMARK    4  A    between atoms: C_8  and  C_9
REMARK    5  A    between atoms: C_9  and  C_10
REMARK    6  A    between atoms: C_10  and  C_11
REMARK    7  A    between atoms: C_11  and  C_12
REMARK    8  A    between atoms: C_12  and  C_13
REMARK    9  A    between atoms: C_13  and  C_14
REMARK   10  A    between atoms: C_14  and  C_15
REMARK   11  A    between atoms: C_15  and  N_16
REMARK   12  A    between atoms: N_16  and  C_17
REMARK   13  A    between atoms: C_17  and  C_18
REMARK   14  A    between atoms: C_18  and  C_19
REMARK   15  A    between atoms: C_19  and  C_20
REMARK   16  A    between atoms: C_20  and  C_21
REMARK   17  A    between atoms: C_21  and  C_22
REMARK   18  A    between atoms: C_22  and  C_23
REMARK   19  A    between atoms: C_23  and  C_24
REMARK   20  A    between atoms: C_24  and  N_25
REMARK                            x       y       z     vdW  Elec       q    Type
REMARK                         _______ _______ _______ _____ _____    ______ ____
ROOT
ATOM      1  C   UNL     1       6.704   4.632  17.688  0.00  0.00    +0.000 C 
ENDROOT
BRANCH   1   2
ATOM      2  N   UNL     1       6.612   4.888  16.244  0.00  0.00    +0.000 NA
ATOM      3  H   UNL     1       7.133   4.172  15.738  0.00  0.00    +0.000 HD
BRANCH   2   4
ATOM      4  C   UNL     1       5.202   4.852  15.829  0.00  0.00    +0.000 C 
BRANCH   4   5
ATOM      5  C   UNL     1       4.319   4.676  17.055  0.00  0.00    +0.000 C 
BRANCH   5   6
ATOM      6  C   UNL     1       3.790   6.031  17.496  0.00  0.00    +0.000 C 
BRANCH   6   7
ATOM      7  C   UNL     1       3.626   6.044  19.007  0.00  0.00    +0.000 C 
BRANCH   7   8
ATOM      8  C   UNL     1       2.150   5.939  19.358  0.00  0.00    +0.000 C 
BRANCH   8   9
ATOM      9  C   UNL     1       1.988   5.108  20.620  0.00  0.00    +0.000 C 
BRANCH   9  10
ATOM     10  C   UNL     1       0.943   4.029  20.384  0.00  0.00    +0.000 C 
BRANCH  10  11
ATOM     11  C   UNL     1       1.484   2.693  20.864  0.00  0.00    +0.000 C 
BRANCH  11  12
ATOM     12  N   UNL     1       2.953   2.736  20.862  0.00  0.00    +0.000 N 
ATOM     13  C   UNL     1       3.704   2.134  19.750  0.00  0.00    +0.000 C 
ATOM     14  N   UNL     1       5.007   2.176  19.737  0.00  0.00    +0.000 NA
ATOM     15  N   UNL     1       2.988   1.491  18.641  0.00  0.00    +0.000 N 
ATOM     16  H   UNL     1       3.421   3.168  21.593  0.00  0.00    +0.000 HD
ATOM     17  H   UNL     1       5.471   2.613  20.463  0.00  0.00    +0.000 HD
ATOM     18  H   UNL     1       2.005   1.464  18.643  0.00  0.00    +0.000 HD
ATOM     19  H   UNL     1       3.492   1.091  17.897  0.00  0.00    +0.000 HD
ENDBRANCH  11  12
ENDBRANCH  10  11
ENDBRANCH   9  10
ENDBRANCH   8   9
ENDBRANCH   7   8
ENDBRANCH   6   7
ENDBRANCH   5   6
ENDBRANCH   4   5
ENDBRANCH   2   4
ENDBRANCH   1   2
BRANCH   1  20
ATOM     20  C   UNL     1       7.683   5.612  18.315  0.00  0.00    +0.000 C 
BRANCH  20  21
ATOM     21  C   UNL     1       7.501   6.983  17.683  0.00  0.00    +0.000 C 
BRANCH  21  22
ATOM     22  C   UNL     1       8.279   8.016  18.481  0.00  0.00    +0.000 C 
BRANCH  22  23
ATOM     23  C   UNL     1       8.094   9.387  17.852  0.00  0.00    +0.000 C 
BRANCH  23  24
ATOM     24  C   UNL     1       9.281  10.270  18.201  0.00  0.00    +0.000 C 
BRANCH  24  25
ATOM     25  C   UNL     1       9.331  10.480  19.706  0.00  0.00    +0.000 C 
BRANCH  25  26
ATOM     26  C   UNL     1       9.999  11.811  20.009  0.00  0.00    +0.000 C 
BRANCH  26  30
ATOM     27  N   UNL     1       8.471  15.321  19.323  0.00  0.00    +0.000 N 
ATOM     28  C   UNL     1       9.454  14.238  19.463  0.00  0.00    +0.000 C 
ATOM     29  N   UNL     1      10.726  14.470  19.223  0.00  0.00    +0.000 NA
ATOM     30  N   UNL     1       9.015  12.894  19.869  0.00  0.00    +0.000 N 
ATOM     31  H   UNL     1       7.539  15.120  19.056  0.00  0.00    +0.000 HD
ATOM     32  H   UNL     1      11.021  15.370  18.949  0.00  0.00    +0.000 HD
ATOM     33  H   UNL     1       8.063  12.722  20.046  0.00  0.00    +0.000 HD
BRANCH  27  34
ATOM     34  C   UNL     1       8.870  16.713  19.572  0.00  0.00    +0.000 C 
BRANCH  34  36
ATOM     35  C   UNL     1       6.658  18.166  20.557  0.00  0.00    +0.000 C 
ATOM     36  C   UNL     1       7.679  17.496  20.102  0.00  0.00    +0.000 C 
ENDBRANCH  34  36
ENDBRANCH  27  34
ENDBRANCH  26  30
ENDBRANCH  25  26
ENDBRANCH  24  25
ENDBRANCH  23  24
ENDBRANCH  22  23
ENDBRANCH  21  22
ENDBRANCH  20  21
ENDBRANCH   1  20
TORSDOF 20
ENDMDL
MODEL 4
REMARK VINA RESULT:      -5.4      2.762      7.430
REMARK  Name = 
REMARK  20 active torsions:
REMARK  status: ('A' for Active; 'I' for Inactive)
REMARK    1  A    between atoms: C_2  and  C_3
REMARK    2  A    between atoms: C_3  and  N_4
REMARK    3  A    between atoms: N_7  and  C_8
REMARK    4  A    between atoms: C_8  and  C_9
REMARK    5  A    between atoms: C_9  and  C_10
REMARK    6  A    between atoms: C_10  and  C_11
REMARK    7  A    between atoms: C_11  and  C_12
REMARK    8  A    between atoms: C_12  and  C_13
REMARK    9  A    between atoms: C_13  and  C_14
REMARK   10  A    between atoms: C_14  and  C_15
REMARK   11  A    between atoms: C_15  and  N_16
REMARK   12  A    between atoms: N_16  and  C_17
REMARK   13  A    between atoms: C_17  and  C_18
REMARK   14  A    between atoms: C_18  and  C_19
REMARK   15  A    between atoms: C_19  and  C_20
REMARK   16  A    between atoms: C_20  and  C_21
REMARK   17  A    between atoms: C_21  and  C_22
REMARK   18  A    between atoms: C_22  and  C_23
REMARK   19  A    between atoms: C_23  and  C_24
REMARK   20  A    between atoms: C_24  and  N_25
REMARK                            x       y       z     vdW  Elec       q    Type
REMARK                         _______ _______ _______ _____ _____    ______ ____
ROOT
ATOM      1  C   UNL     1       5.465   3.984  19.227  0.00  0.00    +0.000 C 
ENDROOT
BRANCH   1   2
ATOM      2  N   UNL     1       5.605   3.807  17.775  0.00  0.00    +0.000 NA
ATOM      3  H   UNL     1       4.720   4.028  17.318  0.00  0.00    +0.000 HD
BRANCH   2   4
ATOM      4  C   UNL     1       6.654   4.706  17.271  0.00  0.00    +0.000 C 
BRANCH   4   5
ATOM      5  C   UNL     1       6.349   6.132  17.703  0.00  0.00    +0.000 C 
BRANCH   5   6
ATOM      6  C   UNL     1       7.362   7.077  17.079  0.00  0.00    +0.000 C 
BRANCH   6   7
ATOM      7  C   UNL     1       8.118   7.807  18.177  0.00  0.00    +0.000 C 
BRANCH   7   8
ATOM      8  C   UNL     1       7.986   9.308  17.973  0.00  0.00    +0.000 C 
BRANCH   8   9
ATOM      9  C   UNL     1       9.316   9.979  18.275  0.00  0.00    +0.000 C 
BRANCH   9  10
ATOM     10  C   UNL     1       9.137  10.965  19.417  0.00  0.00    +0.000 C 
BRANCH  10  11
ATOM     11  C   UNL     1      10.414  11.769  19.592  0.00  0.00    +0.000 C 
BRANCH  11  12
ATOM     12  N   UNL     1      10.307  13.022  18.831  0.00  0.00    +0.000 N 
ATOM     13  C   UNL     1      11.063  13.190  17.581  0.00  0.00    +0.000 C 
ATOM     14  N   UNL     1      10.966  14.295  16.896  0.00  0.00    +0.000 NA
ATOM     15  N   UNL     1      11.925  12.107  17.091  0.00  0.00    +0.000 N 
ATOM     16  H   UNL     1       9.731  13.731  19.155  0.00  0.00    +0.000 HD
ATOM     17  H   UNL     1      10.387  14.997  17.218  0.00  0.00    +0.000 HD
ATOM     18  H   UNL     1      11.996  11.268  17.601  0.00  0.00    +0.000 HD
ATOM     19  H   UNL     1      12.428  12.220  16.254  0.00  0.00    +0.000 HD
ENDBRANCH  11  12
ENDBRANCH  10  11
ENDBRANCH   9  10
ENDBRANCH   8   9
ENDBRANCH   7   8
ENDBRANCH   6   7
ENDBRANCH   5   6
ENDBRANCH   4   5
ENDBRANCH   2   4
ENDBRANCH   1   2
BRANCH   1  20
ATOM     20  C   UNL     1       4.487   2.954  19.771  0.00  0.00    +0.000 C 
BRANCH  20  21
ATOM     21  C   UNL     1       4.165   1.939  18.686  0.00  0.00    +0.000 C 
BRANCH  21  22
ATOM     22  C   UNL     1       2.658   1.831  18.525  0.00  0.00    +0.000 C 
BRANCH  22  23
ATOM     23  C   UNL     1       1.980   2.888  19.382  0.00  0.00    +0.000 C 
BRANCH  23  24
ATOM     24  C   UNL     1       1.072   3.741  18.511  0.00  0.00    +0.000 C 
BRANCH  24  25
ATOM     25  C   UNL     1       1.908   4.758  17.750  0.00  0.00    +0.000 C 
BRANCH  25  26
ATOM     26  C   UNL     1       2.410   5.822  18.713  0.00  0.00    +0.000 C 
BRANCH  26  30
ATOM     27  N   UNL     1       1.841   9.638  18.228  0.00  0.00    +0.000 N 
ATOM     28  C   UNL     1       1.932   8.318  18.867  0.00  0.00    +0.000 C 
ATOM     29  N   UNL     1       1.669   8.189  20.149  0.00  0.00    +0.000 NA
ATOM     30  N   UNL     1       2.319   7.142  18.073  0.00  0.00    +0.000 N 
ATOM     31  H   UNL     1       2.422   9.863  17.459  0.00  0.00    +0.000 HD
ATOM     32  H   UNL     1       1.412   8.977  20.683  0.00  0.00    +0.000 HD
ATOM     33  H   UNL     1       2.517   7.241  17.115  0.00  0.00    +0.000 HD
BRANCH  27  34
ATOM     34  C   UNL     1       0.889  10.637  18.735  0.00  0.00    +0.000 C 
BRANCH  34  36
ATOM     35  C   UNL     1      -1.691  10.074  17.735  0.00  0.00    +0.000 C 
ATOM     36  C   UNL     1      -0.500  10.333  18.196  0.00  0.00    +0.000 C 
ENDBRANCH  34  36
ENDBRANCH  27  34
ENDBRANCH  26  30
ENDBRANCH  25  26
ENDBRANCH  24  25
ENDBRANCH  23  24
ENDBRANCH  22  23
ENDBRANCH  21  22
ENDBRANCH  20  21
ENDBRANCH   1  20
TORSDOF 20
ENDMDL
MODEL 5
REMARK VINA RESULT:      -5.4      3.182      8.251
REMARK  Name = 
REMARK  20 active torsions:
REMARK  status: ('A' for Active; 'I' for Inactive)
REMARK    1  A    between atoms: C_2  and  C_3
REMARK    2  A    between atoms: C_3  and  N_4
REMARK    3  A    between atoms: N_7  and  C_8
REMARK    4  A    between atoms: C_8  and  C_9
REMARK    5  A    between atoms: C_9  and  C_10
REMARK    6  A    between atoms: C_10  and  C_11
REMARK    7  A    between atoms: C_11  and  C_12
REMARK    8  A    between atoms: C_12  and  C_13
REMARK    9  A    between atoms: C_13  and  C_14
REMARK   10  A    between atoms: C_14  and  C_15
REMARK   11  A    between atoms: C_15  and  N_16
REMARK   12  A    between atoms: N_16  and  C_17
REMARK   13  A    between atoms: C_17  and  C_18
REMARK   14  A    between atoms: C_18  and  C_19
REMARK   15  A    between atoms: C_19  and  C_20
REMARK   16  A    between atoms: C_20  and  C_21
REMARK   17  A    between atoms: C_21  and  C_22
REMARK   18  A    between atoms: C_22  and  C_23
REMARK   19  A    between atoms: C_23  and  C_24
REMARK   20  A    between atoms: C_24  and  N_25
REMARK                            x       y       z     vdW  Elec       q    Type
REMARK                         _______ _______ _______ _____ _____    ______ ____
ROOT
ATOM      1  C   UNL     1       6.068   4.475  17.376  0.00  0.00    +0.000 C 
ENDROOT
BRANCH   1   2
ATOM      2  N   UNL     1       6.176   5.761  16.673  0.00  0.00    +0.000 NA
ATOM      3  H   UNL     1       5.408   6.369  16.957  0.00  0.00    +0.000 HD
BRANCH   2   4
ATOM      4  C   UNL     1       7.457   6.398  17.013  0.00  0.00    +0.000 C 
BRANCH   4   5
ATOM      5  C   UNL     1       7.199   7.793  17.559  0.00  0.00    +0.000 C 
BRANCH   5   6
ATOM      6  C   UNL     1       8.353   8.207  18.457  0.00  0.00    +0.000 C 
BRANCH   6   7
ATOM      7  C   UNL     1       8.709   9.659  18.188  0.00  0.00    +0.000 C 
BRANCH   7   8
ATOM      8  C   UNL     1       9.178  10.314  19.478  0.00  0.00    +0.000 C 
BRANCH   8   9
ATOM      9  C   UNL     1      10.195  11.396  19.156  0.00  0.00    +0.000 C 
BRANCH   9  10
ATOM     10  C   UNL     1      10.561  11.325  17.682  0.00  0.00    +0.000 C 
BRANCH  10  11
ATOM     11  C   UNL     1      10.951  12.710  17.194  0.00  0.00    +0.000 C 
BRANCH  11  12
ATOM     12  N   UNL     1      10.481  13.714  18.159  0.00  0.00    +0.000 N 
ATOM     13  C   UNL     1      10.406  15.130  17.769  0.00  0.00    +0.000 C 
ATOM     14  N   UNL     1       9.982  16.025  18.617  0.00  0.00    +0.000 NA
ATOM     15  N   UNL     1      10.798  15.542  16.415  0.00  0.00    +0.000 N 
ATOM     16  H   UNL     1      10.217  13.436  19.050  0.00  0.00    +0.000 HD
ATOM     17  H   UNL     1       9.713  15.744  19.501  0.00  0.00    +0.000 HD
ATOM     18  H   UNL     1      11.111  14.869  15.770  0.00  0.00    +0.000 HD
ATOM     19  H   UNL     1      10.745  16.489  16.156  0.00  0.00    +0.000 HD
ENDBRANCH  11  12
ENDBRANCH  10  11
ENDBRANCH   9  10
ENDBRANCH   8   9
ENDBRANCH   7   8
ENDBRANCH   6   7
ENDBRANCH   5   6
ENDBRANCH   4   5
ENDBRANCH   2   4
ENDBRANCH   1   2
BRANCH   1  20
ATOM     20  C   UNL     1       4.907   3.678  16.801  0.00  0.00    +0.000 C 
BRANCH  20  21
ATOM     21  C   UNL     1       4.014   3.194  17.932  0.00  0.00    +0.000 C 
BRANCH  21  22
ATOM     22  C   UNL     1       2.558   3.397  17.550  0.00  0.00    +0.000 C 
BRANCH  22  23
ATOM     23  C   UNL     1       1.959   4.503  18.403  0.00  0.00    +0.000 C 
BRANCH  23  24
ATOM     24  C   UNL     1       2.393   5.855  17.859  0.00  0.00    +0.000 C 
BRANCH  24  25
ATOM     25  C   UNL     1       3.139   6.621  18.940  0.00  0.00    +0.000 C 
BRANCH  25  26
ATOM     26  C   UNL     1       2.177   7.556  19.653  0.00  0.00    +0.000 C 
BRANCH  26  30
ATOM     27  N   UNL     1       0.332  10.674  18.238  0.00  0.00    +0.000 N 
ATOM     28  C   UNL     1       0.777   9.627  19.169  0.00  0.00    +0.000 C 
ATOM     29  N   UNL     1       0.321   9.608  20.402  0.00  0.00    +0.000 NA
ATOM     30  N   UNL     1       1.732   8.603  18.722  0.00  0.00    +0.000 N 
ATOM     31  H   UNL     1       0.932  10.991  17.518  0.00  0.00    +0.000 HD
ATOM     32  H   UNL     1      -0.318  10.296  20.704  0.00  0.00    +0.000 HD
ATOM     33  H   UNL     1       2.073   8.620  17.800  0.00  0.00    +0.000 HD
BRANCH  27  34
ATOM     34  C   UNL     1      -1.008  11.262  18.377  0.00  0.00    +0.000 C 
BRANCH  34  36
ATOM     35  C   UNL     1      -2.794   9.964  16.616  0.00  0.00    +0.000 C 
ATOM     36  C   UNL     1      -1.970  10.563  17.430  0.00  0.00    +0.000 C 
ENDBRANCH  34  36
ENDBRANCH  27  34
ENDBRANCH  26  30
ENDBRANCH  25  26
ENDBRANCH  24  25
ENDBRANCH  23  24
ENDBRANCH  22  23
ENDBRANCH  21  22
ENDBRANCH  20  21
ENDBRANCH   1  20
TORSDOF 20
ENDMDL
MODEL 6
REMARK VINA RESULT:      -5.4      2.907      8.049
REMARK  Name = 
REMARK  20 active torsions:
REMARK  status: ('A' for Active; 'I' for Inactive)
REMARK    1  A    between atoms: C_2  and  C_3
REMARK    2  A    between atoms: C_3  and  N_4
REMARK    3  A    between atoms: N_7  and  C_8
REMARK    4  A    between atoms: C_8  and  C_9
REMARK    5  A    between atoms: C_9  and  C_10
REMARK    6  A    between atoms: C_10  and  C_11
REMARK    7  A    between atoms: C_11  and  C_12
REMARK    8  A    between atoms: C_12  and  C_13
REMARK    9  A    between atoms: C_13  and  C_14
REMARK   10  A    between atoms: C_14  and  C_15
REMARK   11  A    between atoms: C_15  and  N_16
REMARK   12  A    between atoms: N_16  and  C_17
REMARK   13  A    between atoms: C_17  and  C_18
REMARK   14  A    between atoms: C_18  and  C_19
REMARK   15  A    between atoms: C_19  and  C_20
REMARK   16  A    between atoms: C_20  and  C_21
REMARK   17  A    between atoms: C_21  and  C_22
REMARK   18  A    between atoms: C_22  and  C_23
REMARK   19  A    between atoms: C_23  and  C_24
REMARK   20  A    between atoms: C_24  and  N_25
REMARK                            x       y       z     vdW  Elec       q    Type
REMARK                         _______ _______ _______ _____ _____    ______ ____
ROOT
ATOM      1  C   UNL     1       5.119   4.011  19.289  0.00  0.00    +0.000 C 
ENDROOT
BRANCH   1   2
ATOM      2  N   UNL     1       5.498   5.430  19.339  0.00  0.00    +0.000 NA
ATOM      3  H   UNL     1       5.220   5.825  20.237  0.00  0.00    +0.000 HD
BRANCH   2   4
ATOM      4  C   UNL     1       6.955   5.553  19.179  0.00  0.00    +0.000 C 
BRANCH   4   5
ATOM      5  C   UNL     1       7.259   6.423  17.970  0.00  0.00    +0.000 C 
BRANCH   5   6
ATOM      6  C   UNL     1       7.022   5.624  16.699  0.00  0.00    +0.000 C 
BRANCH   6   7
ATOM      7  C   UNL     1       5.680   6.011  16.100  0.00  0.00    +0.000 C 
BRANCH   7   8
ATOM      8  C   UNL     1       5.648   5.620  14.632  0.00  0.00    +0.000 C 
BRANCH   8   9
ATOM      9  C   UNL     1       6.617   4.474  14.391  0.00  0.00    +0.000 C 
BRANCH   9  10
ATOM     10  C   UNL     1       7.594   4.860  13.293  0.00  0.00    +0.000 C 
BRANCH  10  11
ATOM     11  C   UNL     1       7.040   4.418  11.949  0.00  0.00    +0.000 C 
BRANCH  11  12
ATOM     12  N   UNL     1       7.121   2.954  11.849  0.00  0.00    +0.000 N 
ATOM     13  C   UNL     1       5.914   2.169  11.554  0.00  0.00    +0.000 C 
ATOM     14  N   UNL     1       5.980   0.871  11.455  0.00  0.00    +0.000 NA
ATOM     15  N   UNL     1       4.625   2.847  11.357  0.00  0.00    +0.000 N 
ATOM     16  H   UNL     1       7.975   2.512  11.973  0.00  0.00    +0.000 HD
ATOM     17  H   UNL     1       6.833   0.434  11.572  0.00  0.00    +0.000 HD
ATOM     18  H   UNL     1       4.572   3.827  11.423  0.00  0.00    +0.000 HD
ATOM     19  H   UNL     1       3.819   2.320  11.157  0.00  0.00    +0.000 HD
ENDBRANCH  11  12
ENDBRANCH  10  11
ENDBRANCH   9  10
ENDBRANCH   8   9
ENDBRANCH   7   8
ENDBRANCH   6   7
ENDBRANCH   5   6
ENDBRANCH   4   5
ENDBRANCH   2   4
ENDBRANCH   1   2
BRANCH   1  20
ATOM     20  C   UNL     1       4.202   3.772  18.100  0.00  0.00    +0.000 C 
BRANCH  20  21
ATOM     21  C   UNL     1       3.534   2.414  18.240  0.00  0.00    +0.000 C 
BRANCH  21  22
ATOM     22  C   UNL     1       3.164   2.179  19.695  0.00  0.00    +0.000 C 
BRANCH  22  23
ATOM     23  C   UNL     1       1.657   2.298  19.859  0.00  0.00    +0.000 C 
BRANCH  23  24
ATOM     24  C   UNL     1       1.345   3.257  20.997  0.00  0.00    +0.000 C 
BRANCH  24  25
ATOM     25  C   UNL     1       1.020   4.629  20.429  0.00  0.00    +0.000 C 
BRANCH  25  26
ATOM     26  C   UNL     1       2.159   5.587  20.736  0.00  0.00    +0.000 C 
BRANCH  26  30
ATOM     27  N   UNL     1       2.036   8.768  18.502  0.00  0.00    +0.000 N 
ATOM     28  C   UNL     1       1.835   7.864  19.643  0.00  0.00    +0.000 C 
ATOM     29  N   UNL     1       1.188   8.284  20.708  0.00  0.00    +0.000 NA
ATOM     30  N   UNL     1       2.359   6.491  19.594  0.00  0.00    +0.000 N 
ATOM     31  H   UNL     1       2.836   8.678  17.927  0.00  0.00    +0.000 HD
ATOM     32  H   UNL     1       0.839   9.205  20.743  0.00  0.00    +0.000 HD
ATOM     33  H   UNL     1       2.844   6.179  18.798  0.00  0.00    +0.000 HD
BRANCH  27  34
ATOM     34  C   UNL     1       1.049   9.818  18.213  0.00  0.00    +0.000 C 
BRANCH  34  36
ATOM     35  C   UNL     1       2.174  12.347  18.768  0.00  0.00    +0.000 C 
ATOM     36  C   UNL     1       1.654  11.180  18.512  0.00  0.00    +0.000 C 
ENDBRANCH  34  36
ENDBRANCH  27  34
ENDBRANCH  26  30
ENDBRANCH  25  26
ENDBRANCH  24  25
ENDBRANCH  23  24
ENDBRANCH  22  23
ENDBRANCH  21  22
ENDBRANCH  20  21
ENDBRANCH   1  20
TORSDOF 20
ENDMDL
MODEL 7
REMARK VINA RESULT:      -5.3      3.459      6.747
REMARK  Name = 
REMARK  20 active torsions:
REMARK  status: ('A' for Active; 'I' for Inactive)
REMARK    1  A    between atoms: C_2  and  C_3
REMARK    2  A    between atoms: C_3  and  N_4
REMARK    3  A    between atoms: N_7  and  C_8
REMARK    4  A    between atoms: C_8  and  C_9
REMARK    5  A    between atoms: C_9  and  C_10
REMARK    6  A    between atoms: C_10  and  C_11
REMARK    7  A    between atoms: C_11  and  C_12
REMARK    8  A    between atoms: C_12  and  C_13
REMARK    9  A    between atoms: C_13  and  C_14
REMARK   10  A    between atoms: C_14  and  C_15
REMARK   11  A    between atoms: C_15  and  N_16
REMARK   12  A    between atoms: N_16  and  C_17
REMARK   13  A    between atoms: C_17  and  C_18
REMARK   14  A    between atoms: C_18  and  C_19
REMARK   15  A    between atoms: C_19  and  C_20
REMARK   16  A    between atoms: C_20  and  C_21
REMARK   17  A    between atoms: C_21  and  C_22
REMARK   18  A    between atoms: C_22  and  C_23
REMARK   19  A    between atoms: C_23  and  C_24
REMARK   20  A    between atoms: C_24  and  N_25
REMARK                            x       y       z     vdW  Elec       q    Type
REMARK                         _______ _______ _______ _____ _____    ______ ____
ROOT
ATOM      1  C   UNL     1       3.497   5.960  19.031  0.00  0.00    +0.000 C 
ENDROOT
BRANCH   1   2
ATOM      2  N   UNL     1       4.536   5.424  19.922  0.00  0.00    +0.000 NA
ATOM      3  H   UNL     1       4.280   4.481  20.214  0.00  0.00    +0.000 HD
BRANCH   2   4
ATOM      4  C   UNL     1       5.820   5.384  19.207  0.00  0.00    +0.000 C 
BRANCH   4   5
ATOM      5  C   UNL     1       5.823   6.440  18.113  0.00  0.00    +0.000 C 
BRANCH   5   6
ATOM      6  C   UNL     1       7.209   6.523  17.493  0.00  0.00    +0.000 C 
BRANCH   6   7
ATOM      7  C   UNL     1       8.108   7.371  18.376  0.00  0.00    +0.000 C 
BRANCH   7   8
ATOM      8  C   UNL     1       8.127   8.800  17.858  0.00  0.00    +0.000 C 
BRANCH   8   9
ATOM      9  C   UNL     1       8.897   9.681  18.828  0.00  0.00    +0.000 C 
BRANCH   9  10
ATOM     10  C   UNL     1       9.341  10.949  18.117  0.00  0.00    +0.000 C 
BRANCH  10  11
ATOM     11  C   UNL     1      10.035  11.865  19.110  0.00  0.00    +0.000 C 
BRANCH  11  12
ATOM     12  N   UNL     1       9.058  12.821  19.651  0.00  0.00    +0.000 N 
ATOM     13  C   UNL     1       9.402  14.248  19.748  0.00  0.00    +0.000 C 
ATOM     14  N   UNL     1       8.537  15.103  20.219  0.00  0.00    +0.000 NA
ATOM     15  N   UNL     1      10.720  14.719  19.304  0.00  0.00    +0.000 N 
ATOM     16  H   UNL     1       8.187  12.507  19.937  0.00  0.00    +0.000 HD
ATOM     17  H   UNL     1       7.668  14.788  20.496  0.00  0.00    +0.000 HD
ATOM     18  H   UNL     1      11.373  14.079  18.941  0.00  0.00    +0.000 HD
ATOM     19  H   UNL     1      10.947  15.674  19.367  0.00  0.00    +0.000 HD
ENDBRANCH  11  12
ENDBRANCH  10  11
ENDBRANCH   9  10
ENDBRANCH   8   9
ENDBRANCH   7   8
ENDBRANCH   6   7
ENDBRANCH   5   6
ENDBRANCH   4   5
ENDBRANCH   2   4
ENDBRANCH   1   2
BRANCH   1  20
ATOM     20  C   UNL     1       2.149   5.903  19.732  0.00  0.00    +0.000 C 
BRANCH  20  21
ATOM     21  C   UNL     1       2.186   4.834  20.814  0.00  0.00    +0.000 C 
BRANCH  21  22
ATOM     22  C   UNL     1       1.283   3.679  20.415  0.00  0.00    +0.000 C 
BRANCH  22  23
ATOM     23  C   UNL     1       1.283   3.536  18.901  0.00  0.00    +0.000 C 
BRANCH  23  24
ATOM     24  C   UNL     1       1.787   2.153  18.522  0.00  0.00    +0.000 C 
BRANCH  24  25
ATOM     25  C   UNL     1       3.286   2.208  18.278  0.00  0.00    +0.000 C 
BRANCH  25  26
ATOM     26  C   UNL     1       3.596   3.312  17.280  0.00  0.00    +0.000 C 
BRANCH  26  30
ATOM     27  N   UNL     1       6.474   3.472  14.670  0.00  0.00    +0.000 N 
ATOM     28  C   UNL     1       5.327   3.869  15.498  0.00  0.00    +0.000 C 
ATOM     29  N   UNL     1       4.824   5.079  15.387  0.00  0.00    +0.000 NA
ATOM     30  N   UNL     1       4.743   2.914  16.451  0.00  0.00    +0.000 N 
ATOM     31  H   UNL     1       7.128   2.810  15.005  0.00  0.00    +0.000 HD
ATOM     32  H   UNL     1       5.217   5.721  14.750  0.00  0.00    +0.000 HD
ATOM     33  H   UNL     1       5.122   2.011  16.534  0.00  0.00    +0.000 HD
BRANCH  27  34
ATOM     34  C   UNL     1       6.660   4.065  13.338  0.00  0.00    +0.000 C 
BRANCH  34  36
ATOM     35  C   UNL     1       4.722   3.027  11.565  0.00  0.00    +0.000 C 
ATOM     36  C   UNL     1       5.616   3.506  12.384  0.00  0.00    +0.000 C 
ENDBRANCH  34  36
ENDBRANCH  27  34
ENDBRANCH  26  30
ENDBRANCH  25  26
ENDBRANCH  24  25
ENDBRANCH  23  24
ENDBRANCH  22  23
ENDBRANCH  21  22
ENDBRANCH  20  21
ENDBRANCH   1  20
TORSDOF 20
ENDMDL
MODEL 8
REMARK VINA RESULT:      -5.3      1.989      7.695
REMARK  Name = 
REMARK  20 active torsions:
REMARK  status: ('A' for Active; 'I' for Inactive)
REMARK    1  A    between atoms: C_2  and  C_3
REMARK    2  A    between atoms: C_3  and  N_4
REMARK    3  A    between atoms: N_7  and  C_8
REMARK    4  A    between atoms: C_8  and  C_9
REMARK    5  A    between atoms: C_9  and  C_10
REMARK    6  A    between atoms: C_10  and  C_11
REMARK    7  A    between atoms: C_11  and  C_12
REMARK    8  A    between atoms: C_12  and  C_13
REMARK    9  A    between atoms: C_13  and  C_14
REMARK   10  A    between atoms: C_14  and  C_15
REMARK   11  A    between atoms: C_15  and  N_16
REMARK   12  A    between atoms: N_16  and  C_17
REMARK   13  A    between atoms: C_17  and  C_18
REMARK   14  A    between atoms: C_18  and  C_19
REMARK   15  A    between atoms: C_19  and  C_20
REMARK   16  A    between atoms: C_20  and  C_21
REMARK   17  A    between atoms: C_21  and  C_22
REMARK   18  A    between atoms: C_22  and  C_23
REMARK   19  A    between atoms: C_23  and  C_24
REMARK   20  A    between atoms: C_24  and  N_25
REMARK                            x       y       z     vdW  Elec       q    Type
REMARK                         _______ _______ _______ _____ _____    ______ ____
ROOT
ATOM      1  C   UNL     1       0.942   4.605  20.090  0.00  0.00    +0.000 C 
ENDROOT
BRANCH   1   2
ATOM      2  N   UNL     1       1.226   3.231  20.530  0.00  0.00    +0.000 NA
ATOM      3  H   UNL     1       1.068   2.587  19.755  0.00  0.00    +0.000 HD
BRANCH   2   4
ATOM      4  C   UNL     1       2.627   3.139  20.968  0.00  0.00    +0.000 C 
BRANCH   4   5
ATOM      5  C   UNL     1       3.325   2.027  20.199  0.00  0.00    +0.000 C 
BRANCH   5   6
ATOM      6  C   UNL     1       2.811   2.002  18.769  0.00  0.00    +0.000 C 
BRANCH   6   7
ATOM      7  C   UNL     1       3.926   2.417  17.823  0.00  0.00    +0.000 C 
BRANCH   7   8
ATOM      8  C   UNL     1       3.544   3.714  17.127  0.00  0.00    +0.000 C 
BRANCH   8   9
ATOM      9  C   UNL     1       4.705   4.189  16.269  0.00  0.00    +0.000 C 
BRANCH   9  10
ATOM     10  C   UNL     1       5.503   5.234  17.031  0.00  0.00    +0.000 C 
BRANCH  10  11
ATOM     11  C   UNL     1       6.949   4.779  17.142  0.00  0.00    +0.000 C 
BRANCH  11  12
ATOM     12  N   UNL     1       7.270   4.526  18.553  0.00  0.00    +0.000 N 
ATOM     13  C   UNL     1       7.899   5.579  19.365  0.00  0.00    +0.000 C 
ATOM     14  N   UNL     1       8.179   5.365  20.620  0.00  0.00    +0.000 NA
ATOM     15  N   UNL     1       8.205   6.885  18.766  0.00  0.00    +0.000 N 
ATOM     16  H   UNL     1       7.060   3.665  18.946  0.00  0.00    +0.000 HD
ATOM     17  H   UNL     1       7.963   4.508  21.010  0.00  0.00    +0.000 HD
ATOM     18  H   UNL     1       7.989   7.054  17.821  0.00  0.00    +0.000 HD
ATOM     19  H   UNL     1       8.624   7.589  19.311  0.00  0.00    +0.000 HD
ENDBRANCH  11  12
ENDBRANCH  10  11
ENDBRANCH   9  10
ENDBRANCH   8   9
ENDBRANCH   7   8
ENDBRANCH   6   7
ENDBRANCH   5   6
ENDBRANCH   4   5
ENDBRANCH   2   4
ENDBRANCH   1   2
BRANCH   1  20
ATOM     20  C   UNL     1       1.949   5.556  20.715  0.00  0.00    +0.000 C 
BRANCH  20  21
ATOM     21  C   UNL     1       2.849   6.126  19.630  0.00  0.00    +0.000 C 
BRANCH  21  22
ATOM     22  C   UNL     1       2.007   6.902  18.631  0.00  0.00    +0.000 C 
BRANCH  22  23
ATOM     23  C   UNL     1       2.911   7.780  17.780  0.00  0.00    +0.000 C 
BRANCH  23  24
ATOM     24  C   UNL     1       2.298   9.164  17.650  0.00  0.00    +0.000 C 
BRANCH  24  25
ATOM     25  C   UNL     1       1.134   9.296  18.619  0.00  0.00    +0.000 C 
BRANCH  25  26
ATOM     26  C   UNL     1      -0.048   9.932  17.906  0.00  0.00    +0.000 C 
BRANCH  26  30
ATOM     27  N   UNL     1      -1.571  11.633  21.054  0.00  0.00    +0.000 N 
ATOM     28  C   UNL     1      -0.589  11.176  20.061  0.00  0.00    +0.000 C 
ATOM     29  N   UNL     1       0.684  11.471  20.211  0.00  0.00    +0.000 NA
ATOM     30  N   UNL     1      -1.030  10.389  18.900  0.00  0.00    +0.000 N 
ATOM     31  H   UNL     1      -2.502  11.830  20.784  0.00  0.00    +0.000 HD
ATOM     32  H   UNL     1       0.980  12.000  20.988  0.00  0.00    +0.000 HD
ATOM     33  H   UNL     1      -1.983  10.171  18.788  0.00  0.00    +0.000 HD
BRANCH  27  34
ATOM     34  C   UNL     1      -1.171  11.809  22.458  0.00  0.00    +0.000 C 
BRANCH  34  36
ATOM     35  C   UNL     1      -0.075   9.396  23.434  0.00  0.00    +0.000 C 
ATOM     36  C   UNL     1      -0.581  10.510  22.983  0.00  0.00    +0.000 C 
ENDBRANCH  34  36
ENDBRANCH  27  34
ENDBRANCH  26  30
ENDBRANCH  25  26
ENDBRANCH  24  25
ENDBRANCH  23  24
ENDBRANCH  22  23
ENDBRANCH  21  22
ENDBRANCH  20  21
ENDBRANCH   1  20
TORSDOF 20
ENDMDL
MODEL 9
REMARK VINA RESULT:      -5.2      3.427      7.483
REMARK  Name = 
REMARK  20 active torsions:
REMARK  status: ('A' for Active; 'I' for Inactive)
REMARK    1  A    between atoms: C_2  and  C_3
REMARK    2  A    between atoms: C_3  and  N_4
REMARK    3  A    between atoms: N_7  and  C_8
REMARK    4  A    between atoms: C_8  and  C_9
REMARK    5  A    between atoms: C_9  and  C_10
REMARK    6  A    between atoms: C_10  and  C_11
REMARK    7  A    between atoms: C_11  and  C_12
REMARK    8  A    between atoms: C_12  and  C_13
REMARK    9  A    between atoms: C_13  and  C_14
REMARK   10  A    between atoms: C_14  and  C_15
REMARK   11  A    between atoms: C_15  and  N_16
REMARK   12  A    between atoms: N_16  and  C_17
REMARK   13  A    between atoms: C_17  and  C_18
REMARK   14  A    between atoms: C_18  and  C_19
REMARK   15  A    between atoms: C_19  and  C_20
REMARK   16  A    between atoms: C_20  and  C_21
REMARK   17  A    between atoms: C_21  and  C_22
REMARK   18  A    between atoms: C_22  and  C_23
REMARK   19  A    between atoms: C_23  and  C_24
REMARK   20  A    between atoms: C_24  and  N_25
REMARK                            x       y       z     vdW  Elec       q    Type
REMARK                         _______ _______ _______ _____ _____    ______ ____
ROOT
ATOM      1  C   UNL     1       3.492   6.293  17.652  0.00  0.00    +0.000 C 
ENDROOT
BRANCH   1   2
ATOM      2  N   UNL     1       4.580   6.686  16.745  0.00  0.00    +0.000 NA
ATOM      3  H   UNL     1       4.204   7.263  15.993  0.00  0.00    +0.000 HD
BRANCH   2   4
ATOM      4  C   UNL     1       5.588   7.453  17.493  0.00  0.00    +0.000 C 
BRANCH   4   5
ATOM      5  C   UNL     1       6.887   6.664  17.545  0.00  0.00    +0.000 C 
BRANCH   5   6
ATOM      6  C   UNL     1       7.947   7.482  18.263  0.00  0.00    +0.000 C 
BRANCH   6   7
ATOM      7  C   UNL     1       8.311   8.692  17.419  0.00  0.00    +0.000 C 
BRANCH   7   8
ATOM      8  C   UNL     1       8.254   9.945  18.277  0.00  0.00    +0.000 C 
BRANCH   8   9
ATOM      9  C   UNL     1       9.550  10.084  19.059  0.00  0.00    +0.000 C 
BRANCH   9  10
ATOM     10  C   UNL     1       9.863  11.557  19.263  0.00  0.00    +0.000 C 
BRANCH  10  11
ATOM     11  C   UNL     1       9.076  12.381  18.259  0.00  0.00    +0.000 C 
BRANCH  11  12
ATOM     12  N   UNL     1       9.996  12.924  17.249  0.00  0.00    +0.000 N 
ATOM     13  C   UNL     1      10.449  14.320  17.342  0.00  0.00    +0.000 C 
ATOM     14  N   UNL     1      11.272  14.806  16.456  0.00  0.00    +0.000 NA
ATOM     15  N   UNL     1       9.984  15.173  18.444  0.00  0.00    +0.000 N 
ATOM     16  H   UNL     1      10.306  12.356  16.528  0.00  0.00    +0.000 HD
ATOM     17  H   UNL     1      11.584  14.236  15.742  0.00  0.00    +0.000 HD
ATOM     18  H   UNL     1       9.369  14.808  19.120  0.00  0.00    +0.000 HD
ATOM     19  H   UNL     1      10.290  16.105  18.506  0.00  0.00    +0.000 HD
ENDBRANCH  11  12
ENDBRANCH  10  11
ENDBRANCH   9  10
ENDBRANCH   8   9
ENDBRANCH   7   8
ENDBRANCH   6   7
ENDBRANCH   5   6
ENDBRANCH   4   5
ENDBRANCH   2   4
ENDBRANCH   1   2
BRANCH   1  20
ATOM     20  C   UNL     1       2.872   7.538  18.268  0.00  0.00    +0.000 C 
BRANCH  20  21
ATOM     21  C   UNL     1       2.381   7.217  19.671  0.00  0.00    +0.000 C 
BRANCH  21  22
ATOM     22  C   UNL     1       2.632   5.749  19.971  0.00  0.00    +0.000 C 
BRANCH  22  23
ATOM     23  C   UNL     1       1.606   5.255  20.978  0.00  0.00    +0.000 C 
BRANCH  23  24
ATOM     24  C   UNL     1       0.835   4.087  20.384  0.00  0.00    +0.000 C 
BRANCH  24  25
ATOM     25  C   UNL     1       1.757   2.886  20.251  0.00  0.00    +0.000 C 
BRANCH  25  26
ATOM     26  C   UNL     1       1.520   2.211  18.910  0.00  0.00    +0.000 C 
BRANCH  26  30
ATOM     27  N   UNL     1       4.213   3.390  16.364  0.00  0.00    +0.000 N 
ATOM     28  C   UNL     1       3.546   2.620  17.424  0.00  0.00    +0.000 C 
ATOM     29  N   UNL     1       4.166   1.607  17.989  0.00  0.00    +0.000 NA
ATOM     30  N   UNL     1       2.187   2.981  17.851  0.00  0.00    +0.000 N 
ATOM     31  H   UNL     1       3.682   3.818  15.647  0.00  0.00    +0.000 HD
ATOM     32  H   UNL     1       5.077   1.362  17.701  0.00  0.00    +0.000 HD
ATOM     33  H   UNL     1       1.724   3.738  17.426  0.00  0.00    +0.000 HD
BRANCH  27  34
ATOM     34  C   UNL     1       5.677   3.521  16.360  0.00  0.00    +0.000 C 
BRANCH  34  36
ATOM     35  C   UNL     1       6.552   4.238  13.773  0.00  0.00    +0.000 C 
ATOM     36  C   UNL     1       6.148   3.907  14.968  0.00  0.00    +0.000 C 
ENDBRANCH  34  36
ENDBRANCH  27  34
ENDBRANCH  26  30
ENDBRANCH  25  26
ENDBRANCH  24  25
ENDBRANCH  23  24
ENDBRANCH  22  23
ENDBRANCH  21  22
ENDBRANCH  20  21
ENDBRANCH   1  20
TORSDOF 20
ENDMDL
