MODEL 1
REMARK VINA RESULT:      -7.6      0.000      0.000
REMARK  Name = 
REMARK  8 active torsions:
REMARK  status: ('A' for Active; 'I' for Inactive)
REMARK    1  A    between atoms: C_1  and  C_2
REMARK    2  A    between atoms: C_2  and  N_3
REMARK    3  A    between atoms: N_3  and  C_4
REMARK    4  A    between atoms: N_3  and  C_6
REMARK    5  A    between atoms: C_4  and  C_5
REMARK    6  A    between atoms: C_6  and  C_7
REMARK    7  A    between atoms: C_7  and  N_8
REMARK    8  A    between atoms: C_9  and  C_11
REMARK                            x       y       z     vdW  Elec       q    Type
REMARK                         _______ _______ _______ _____ _____    ______ ____
ROOT
ATOM      1  C   UNL     1       4.473   4.822  17.009  0.00  0.00    +0.000 A 
ATOM      2  C   UNL     1       4.616   3.490  17.429  0.00  0.00    +0.000 A 
ATOM      3  C   UNL     1       4.017   3.028  18.589  0.00  0.00    +0.000 A 
ATOM      4  C   UNL     1       3.239   3.865  19.380  0.00  0.00    +0.000 A 
ATOM      5  I   UNL     1       2.427   2.904  21.106  0.00  0.00    +0.000 I 
ATOM      6  C   UNL     1       3.044   5.222  19.000  0.00  0.00    +0.000 A 
ATOM      7  C   UNL     1       2.240   6.115  19.758  0.00  0.00    +0.000 A 
ATOM      8  O   UNL     1       1.692   5.746  20.782  0.00  0.00    +0.000 OA
ATOM      9  C   UNL     1       2.055   7.440  19.331  0.00  0.00    +0.000 A 
ATOM     10  C   UNL     1       1.249   8.346  20.055  0.00  0.00    +0.000 A 
ATOM     11  C   UNL     1       1.072   9.655  19.601  0.00  0.00    +0.000 A 
ATOM     12  C   UNL     1       1.695  10.079  18.426  0.00  0.00    +0.000 A 
ATOM     13  C   UNL     1       2.495   9.193  17.702  0.00  0.00    +0.000 A 
ATOM     14  C   UNL     1       2.678   7.871  18.148  0.00  0.00    +0.000 A 
ATOM     15  N   UNL     1       3.451   7.012  17.429  0.00  0.00    +0.000 N 
ATOM     16  C   UNL     1       3.668   5.709  17.805  0.00  0.00    +0.000 A 
ATOM     17  H   UNL     1       3.853   7.401  16.556  0.00  0.00    +0.000 HD
ENDROOT
BRANCH   1  19
ATOM     18  N   UNL     1       5.756   4.316  14.911  0.00  0.00    +0.000 N 
ATOM     19  C   UNL     1       5.199   5.237  15.754  0.00  0.00    +0.000 C 
ATOM     20  O   UNL     1       5.310   6.423  15.482  0.00  0.00    +0.000 OA
ATOM     21  H   UNL     1       5.647   3.309  15.090  0.00  0.00    +0.000 HD
BRANCH  18  22
ATOM     22  C   UNL     1       6.469   4.741  13.720  0.00  0.00    +0.000 C 
BRANCH  22  23
ATOM     23  C   UNL     1       6.676   3.594  12.716  0.00  0.00    +0.000 C 
BRANCH  23  24
ATOM     24  N   UNL     1       5.421   2.948  12.246  0.00  0.00    +0.000 NA
BRANCH  24  26
ATOM     25  C   UNL     1       3.436   3.234  10.687  0.00  0.00    +0.000 C 
ATOM     26  C   UNL     1       4.547   3.899  11.508  0.00  0.00    +0.000 C 
ENDBRANCH  24  26
BRANCH  24  27
ATOM     27  C   UNL     1       5.729   1.695  11.500  0.00  0.00    +0.000 C 
ATOM     28  C   UNL     1       7.156   1.624  10.928  0.00  0.00    +0.000 C 
ENDBRANCH  24  27
ENDBRANCH  23  24
ENDBRANCH  22  23
ENDBRANCH  18  22
ENDBRANCH   1  19
TORSDOF 6
ENDMDL
MODEL 2
REMARK VINA RESULT:      -7.5      4.603      7.439
REMARK  Name = 
REMARK  8 active torsions:
REMARK  status: ('A' for Active; 'I' for Inactive)
REMARK    1  A    between atoms: C_1  and  C_2
REMARK    2  A    between atoms: C_2  and  N_3
REMARK    3  A    between atoms: N_3  and  C_4
REMARK    4  A    between atoms: N_3  and  C_6
REMARK    5  A    between atoms: C_4  and  C_5
REMARK    6  A    between atoms: C_6  and  C_7
REMARK    7  A    between atoms: C_7  and  N_8
REMARK    8  A    between atoms: C_9  and  C_11
REMARK                            x       y       z     vdW  Elec       q    Type
REMARK                         _______ _______ _______ _____ _____    ______ ____
ROOT
ATOM      1  C   UNL     1       0.801   9.765  19.356  0.00  0.00    +0.000 A 
ATOM      2  C   UNL     1       1.189  10.135  20.654  0.00  0.00    +0.000 A 
ATOM      3  C   UNL     1       0.418  10.989  21.424  0.00  0.00    +0.000 A 
ATOM      4  C   UNL     1      -0.779  11.507  20.947  0.00  0.00    +0.000 A 
ATOM      5  I   UNL     1      -1.774  12.790  22.335  0.00  0.00    +0.000 I 
ATOM      6  C   UNL     1      -1.234  11.158  19.644  0.00  0.00    +0.000 A 
ATOM      7  C   UNL     1      -2.461  11.639  19.115  0.00  0.00    +0.000 A 
ATOM      8  O   UNL     1      -3.171  12.389  19.764  0.00  0.00    +0.000 OA
ATOM      9  C   UNL     1      -2.884  11.248  17.834  0.00  0.00    +0.000 A 
ATOM     10  C   UNL     1      -4.106  11.698  17.287  0.00  0.00    +0.000 A 
ATOM     11  C   UNL     1      -4.507  11.283  16.015  0.00  0.00    +0.000 A 
ATOM     12  C   UNL     1      -3.699  10.422  15.272  0.00  0.00    +0.000 A 
ATOM     13  C   UNL     1      -2.488   9.971  15.801  0.00  0.00    +0.000 A 
ATOM     14  C   UNL     1      -2.075  10.379  17.083  0.00  0.00    +0.000 A 
ATOM     15  N   UNL     1      -0.897   9.926  17.593  0.00  0.00    +0.000 N 
ATOM     16  C   UNL     1      -0.437  10.282  18.838  0.00  0.00    +0.000 A 
ATOM     17  H   UNL     1      -0.373   9.269  16.986  0.00  0.00    +0.000 HD
ENDROOT
BRANCH   1  19
ATOM     18  N   UNL     1       2.202   7.696  19.113  0.00  0.00    +0.000 N 
ATOM     19  C   UNL     1       1.731   8.865  18.582  0.00  0.00    +0.000 C 
ATOM     20  O   UNL     1       2.088   9.183  17.459  0.00  0.00    +0.000 OA
ATOM     21  H   UNL     1       1.889   7.378  20.040  0.00  0.00    +0.000 HD
BRANCH  18  22
ATOM     22  C   UNL     1       3.112   6.856  18.357  0.00  0.00    +0.000 C 
BRANCH  22  23
ATOM     23  C   UNL     1       3.781   5.778  19.228  0.00  0.00    +0.000 C 
BRANCH  23  24
ATOM     24  N   UNL     1       2.978   4.537  19.403  0.00  0.00    +0.000 NA
BRANCH  24  26
ATOM     25  C   UNL     1       1.196   3.423  20.829  0.00  0.00    +0.000 C 
ATOM     26  C   UNL     1       2.268   4.512  20.710  0.00  0.00    +0.000 C 
ENDBRANCH  24  26
BRANCH  24  27
ATOM     27  C   UNL     1       2.096   4.317  18.223  0.00  0.00    +0.000 C 
ATOM     28  C   UNL     1       2.632   3.295  17.205  0.00  0.00    +0.000 C 
ENDBRANCH  24  27
ENDBRANCH  23  24
ENDBRANCH  22  23
ENDBRANCH  18  22
ENDBRANCH   1  19
TORSDOF 6
ENDMDL
MODEL 3
REMARK VINA RESULT:      -7.4      4.511      7.311
REMARK  Name = 
REMARK  8 active torsions:
REMARK  status: ('A' for Active; 'I' for Inactive)
REMARK    1  A    between atoms: C_1  and  C_2
REMARK    2  A    between atoms: C_2  and  N_3
REMARK    3  A    between atoms: N_3  and  C_4
REMARK    4  A    between atoms: N_3  and  C_6
REMARK    5  A    between atoms: C_4  and  C_5
REMARK    6  A    between atoms: C_6  and  C_7
REMARK    7  A    between atoms: C_7  and  N_8
REMARK    8  A    between atoms: C_9  and  C_11
REMARK                            x       y       z     vdW  Elec       q    Type
REMARK                         _______ _______ _______ _____ _____    ______ ____
ROOT
ATOM      1  C   UNL     1       0.843   9.735  19.321  0.00  0.00    +0.000 A 
ATOM      2  C   UNL     1       1.256  10.040  20.629  0.00  0.00    +0.000 A 
ATOM      3  C   UNL     1       0.496  10.848  21.458  0.00  0.00    +0.000 A 
ATOM      4  C   UNL     1      -0.714  11.382  21.032  0.00  0.00    +0.000 A 
ATOM      5  I   UNL     1      -1.688  12.585  22.504  0.00  0.00    +0.000 I 
ATOM      6  C   UNL     1      -1.194  11.097  19.722  0.00  0.00    +0.000 A 
ATOM      7  C   UNL     1      -2.435  11.597  19.244  0.00  0.00    +0.000 A 
ATOM      8  O   UNL     1      -3.134  12.308  19.945  0.00  0.00    +0.000 OA
ATOM      9  C   UNL     1      -2.881  11.270  17.953  0.00  0.00    +0.000 A 
ATOM     10  C   UNL     1      -4.117  11.739  17.455  0.00  0.00    +0.000 A 
ATOM     11  C   UNL     1      -4.541  11.387  16.171  0.00  0.00    +0.000 A 
ATOM     12  C   UNL     1      -3.744  10.571  15.369  0.00  0.00    +0.000 A 
ATOM     13  C   UNL     1      -2.520  10.101  15.849  0.00  0.00    +0.000 A 
ATOM     14  C   UNL     1      -2.083  10.446  17.142  0.00  0.00    +0.000 A 
ATOM     15  N   UNL     1      -0.893   9.975  17.604  0.00  0.00    +0.000 N 
ATOM     16  C   UNL     1      -0.409  10.270  18.856  0.00  0.00    +0.000 A 
ATOM     17  H   UNL     1      -0.378   9.354  16.954  0.00  0.00    +0.000 HD
ENDROOT
BRANCH   1  19
ATOM     18  N   UNL     1       2.223   7.675  18.930  0.00  0.00    +0.000 N 
ATOM     19  C   UNL     1       1.761   8.882  18.483  0.00  0.00    +0.000 C 
ATOM     20  O   UNL     1       2.118   9.274  17.383  0.00  0.00    +0.000 OA
ATOM     21  H   UNL     1       1.911   7.297  19.835  0.00  0.00    +0.000 HD
BRANCH  18  22
ATOM     22  C   UNL     1       3.123   6.881  18.114  0.00  0.00    +0.000 C 
BRANCH  22  23
ATOM     23  C   UNL     1       3.255   5.434  18.620  0.00  0.00    +0.000 C 
BRANCH  23  24
ATOM     24  N   UNL     1       2.082   4.566  18.330  0.00  0.00    +0.000 NA
BRANCH  24  26
ATOM     25  C   UNL     1       3.718   2.697  17.800  0.00  0.00    +0.000 C 
ATOM     26  C   UNL     1       2.431   3.440  17.423  0.00  0.00    +0.000 C 
ENDBRANCH  24  26
BRANCH  24  27
ATOM     27  C   UNL     1       1.418   4.148  19.597  0.00  0.00    +0.000 C 
ATOM     28  C   UNL     1       2.239   4.420  20.870  0.00  0.00    +0.000 C 
ENDBRANCH  24  27
ENDBRANCH  23  24
ENDBRANCH  22  23
ENDBRANCH  18  22
ENDBRANCH   1  19
TORSDOF 6
ENDMDL
MODEL 4
REMARK VINA RESULT:      -7.4      0.501      1.291
REMARK  Name = 
REMARK  8 active torsions:
REMARK  status: ('A' for Active; 'I' for Inactive)
REMARK    1  A    between atoms: C_1  and  C_2
REMARK    2  A    between atoms: C_2  and  N_3
REMARK    3  A    between atoms: N_3  and  C_4
REMARK    4  A    between atoms: N_3  and  C_6
REMARK    5  A    between atoms: C_4  and  C_5
REMARK    6  A    between atoms: C_6  and  C_7
REMARK    7  A    between atoms: C_7  and  N_8
REMARK    8  A    between atoms: C_9  and  C_11
REMARK                            x       y       z     vdW  Elec       q    Type
REMARK                         _______ _______ _______ _____ _____    ______ ____
ROOT
ATOM      1  C   UNL     1       4.319   5.002  17.244  0.00  0.00    +0.000 A 
ATOM      2  C   UNL     1       4.456   3.676  17.686  0.00  0.00    +0.000 A 
ATOM      3  C   UNL     1       3.847   3.234  18.849  0.00  0.00    +0.000 A 
ATOM      4  C   UNL     1       3.066   4.085  19.621  0.00  0.00    +0.000 A 
ATOM      5  I   UNL     1       2.240   3.154  21.356  0.00  0.00    +0.000 I 
ATOM      6  C   UNL     1       2.878   5.437  19.218  0.00  0.00    +0.000 A 
ATOM      7  C   UNL     1       2.072   6.344  19.957  0.00  0.00    +0.000 A 
ATOM      8  O   UNL     1       1.515   5.992  20.983  0.00  0.00    +0.000 OA
ATOM      9  C   UNL     1       1.893   7.662  19.507  0.00  0.00    +0.000 A 
ATOM     10  C   UNL     1       1.085   8.582  20.212  0.00  0.00    +0.000 A 
ATOM     11  C   UNL     1       0.915   9.884  19.736  0.00  0.00    +0.000 A 
ATOM     12  C   UNL     1       1.546  10.288  18.559  0.00  0.00    +0.000 A 
ATOM     13  C   UNL     1       2.349   9.389  17.854  0.00  0.00    +0.000 A 
ATOM     14  C   UNL     1       2.525   8.073  18.322  0.00  0.00    +0.000 A 
ATOM     15  N   UNL     1       3.301   7.201  17.622  0.00  0.00    +0.000 N 
ATOM     16  C   UNL     1       3.512   5.903  18.021  0.00  0.00    +0.000 A 
ATOM     17  H   UNL     1       3.710   7.575  16.746  0.00  0.00    +0.000 HD
ENDROOT
BRANCH   1  19
ATOM     18  N   UNL     1       5.533   4.458  15.114  0.00  0.00    +0.000 N 
ATOM     19  C   UNL     1       5.056   5.395  15.988  0.00  0.00    +0.000 C 
ATOM     20  O   UNL     1       5.247   6.576  15.742  0.00  0.00    +0.000 OA
ATOM     21  H   UNL     1       5.355   3.457  15.271  0.00  0.00    +0.000 HD
BRANCH  18  22
ATOM     22  C   UNL     1       6.257   4.861  13.923  0.00  0.00    +0.000 C 
BRANCH  22  23
ATOM     23  C   UNL     1       6.883   3.667  13.181  0.00  0.00    +0.000 C 
BRANCH  23  24
ATOM     24  N   UNL     1       6.266   3.364  11.862  0.00  0.00    +0.000 NA
BRANCH  24  26
ATOM     25  C   UNL     1       6.359   0.927  11.154  0.00  0.00    +0.000 C 
ATOM     26  C   UNL     1       7.015   2.311  11.124  0.00  0.00    +0.000 C 
ENDBRANCH  24  26
BRANCH  24  27
ATOM     27  C   UNL     1       4.811   3.083  12.020  0.00  0.00    +0.000 C 
ATOM     28  C   UNL     1       3.941   3.523  10.830  0.00  0.00    +0.000 C 
ENDBRANCH  24  27
ENDBRANCH  23  24
ENDBRANCH  22  23
ENDBRANCH  18  22
ENDBRANCH   1  19
TORSDOF 6
ENDMDL
MODEL 5
REMARK VINA RESULT:      -7.4      2.888      8.125
REMARK  Name = 
REMARK  8 active torsions:
REMARK  status: ('A' for Active; 'I' for Inactive)
REMARK    1  A    between atoms: C_1  and  C_2
REMARK    2  A    between atoms: C_2  and  N_3
REMARK    3  A    between atoms: N_3  and  C_4
REMARK    4  A    between atoms: N_3  and  C_6
REMARK    5  A    between atoms: C_4  and  C_5
REMARK    6  A    between atoms: C_6  and  C_7
REMARK    7  A    between atoms: C_7  and  N_8
REMARK    8  A    between atoms: C_9  and  C_11
REMARK                            x       y       z     vdW  Elec       q    Type
REMARK                         _______ _______ _______ _____ _____    ______ ____
ROOT
ATOM      1  C   UNL     1       2.160   7.564  19.101  0.00  0.00    +0.000 A 
ATOM      2  C   UNL     1       1.462   7.232  20.274  0.00  0.00    +0.000 A 
ATOM      3  C   UNL     1       1.520   5.958  20.814  0.00  0.00    +0.000 A 
ATOM      4  C   UNL     1       2.282   4.959  20.222  0.00  0.00    +0.000 A 
ATOM      5  I   UNL     1       2.204   3.093  21.259  0.00  0.00    +0.000 I 
ATOM      6  C   UNL     1       3.023   5.237  19.040  0.00  0.00    +0.000 A 
ATOM      7  C   UNL     1       3.837   4.260  18.406  0.00  0.00    +0.000 A 
ATOM      8  O   UNL     1       3.918   3.129  18.854  0.00  0.00    +0.000 OA
ATOM      9  C   UNL     1       4.572   4.586  17.256  0.00  0.00    +0.000 A 
ATOM     10  C   UNL     1       5.401   3.641  16.612  0.00  0.00    +0.000 A 
ATOM     11  C   UNL     1       6.131   3.996  15.476  0.00  0.00    +0.000 A 
ATOM     12  C   UNL     1       6.043   5.291  14.964  0.00  0.00    +0.000 A 
ATOM     13  C   UNL     1       5.226   6.235  15.589  0.00  0.00    +0.000 A 
ATOM     14  C   UNL     1       4.488   5.890  16.737  0.00  0.00    +0.000 A 
ATOM     15  N   UNL     1       3.703   6.820  17.346  0.00  0.00    +0.000 N 
ATOM     16  C   UNL     1       2.961   6.550  18.470  0.00  0.00    +0.000 A 
ATOM     17  H   UNL     1       3.717   7.763  16.916  0.00  0.00    +0.000 HD
ENDROOT
BRANCH   1  19
ATOM     18  N   UNL     1       1.485   9.970  19.341  0.00  0.00    +0.000 N 
ATOM     19  C   UNL     1       1.998   8.966  18.569  0.00  0.00    +0.000 C 
ATOM     20  O   UNL     1       2.318   9.219  17.418  0.00  0.00    +0.000 OA
ATOM     21  H   UNL     1       1.242   9.801  20.327  0.00  0.00    +0.000 HD
BRANCH  18  22
ATOM     22  C   UNL     1       1.319  11.307  18.801  0.00  0.00    +0.000 C 
BRANCH  22  23
ATOM     23  C   UNL     1       0.330  12.156  19.618  0.00  0.00    +0.000 C 
BRANCH  23  24
ATOM     24  N   UNL     1      -0.975  11.495  19.891  0.00  0.00    +0.000 NA
BRANCH  24  26
ATOM     25  C   UNL     1      -0.930  11.567  22.429  0.00  0.00    +0.000 C 
ATOM     26  C   UNL     1      -1.614  12.011  21.132  0.00  0.00    +0.000 C 
ENDBRANCH  24  26
BRANCH  24  27
ATOM     27  C   UNL     1      -1.848  11.550  18.686  0.00  0.00    +0.000 C 
ATOM     28  C   UNL     1      -2.145  10.182  18.047  0.00  0.00    +0.000 C 
ENDBRANCH  24  27
ENDBRANCH  23  24
ENDBRANCH  22  23
ENDBRANCH  18  22
ENDBRANCH   1  19
TORSDOF 6
ENDMDL
MODEL 6
REMARK VINA RESULT:      -7.3      4.324      7.026
REMARK  Name = 
REMARK  8 active torsions:
REMARK  status: ('A' for Active; 'I' for Inactive)
REMARK    1  A    between atoms: C_1  and  C_2
REMARK    2  A    between atoms: C_2  and  N_3
REMARK    3  A    between atoms: N_3  and  C_4
REMARK    4  A    between atoms: N_3  and  C_6
REMARK    5  A    between atoms: C_4  and  C_5
REMARK    6  A    between atoms: C_6  and  C_7
REMARK    7  A    between atoms: C_7  and  N_8
REMARK    8  A    between atoms: C_9  and  C_11
REMARK                            x       y       z     vdW  Elec       q    Type
REMARK                         _______ _______ _______ _____ _____    ______ ____
ROOT
ATOM      1  C   UNL     1       0.874   9.672  19.264  0.00  0.00    +0.000 A 
ATOM      2  C   UNL     1       1.297   9.987  20.566  0.00  0.00    +0.000 A 
ATOM      3  C   UNL     1       0.547  10.808  21.392  0.00  0.00    +0.000 A 
ATOM      4  C   UNL     1      -0.663  11.344  20.969  0.00  0.00    +0.000 A 
ATOM      5  I   UNL     1      -1.620  12.567  22.435  0.00  0.00    +0.000 I 
ATOM      6  C   UNL     1      -1.152  11.050  19.665  0.00  0.00    +0.000 A 
ATOM      7  C   UNL     1      -2.393  11.552  19.189  0.00  0.00    +0.000 A 
ATOM      8  O   UNL     1      -3.085  12.273  19.888  0.00  0.00    +0.000 OA
ATOM      9  C   UNL     1      -2.849  11.214  17.905  0.00  0.00    +0.000 A 
ATOM     10  C   UNL     1      -4.086  11.685  17.410  0.00  0.00    +0.000 A 
ATOM     11  C   UNL     1      -4.520  11.324  16.133  0.00  0.00    +0.000 A 
ATOM     12  C   UNL     1      -3.733  10.495  15.333  0.00  0.00    +0.000 A 
ATOM     13  C   UNL     1      -2.508  10.023  15.810  0.00  0.00    +0.000 A 
ATOM     14  C   UNL     1      -2.061  10.378  17.096  0.00  0.00    +0.000 A 
ATOM     15  N   UNL     1      -0.870   9.905  17.556  0.00  0.00    +0.000 N 
ATOM     16  C   UNL     1      -0.377  10.209  18.802  0.00  0.00    +0.000 A 
ATOM     17  H   UNL     1      -0.363   9.275  16.909  0.00  0.00    +0.000 HD
ENDROOT
BRANCH   1  19
ATOM     18  N   UNL     1       2.216   7.587  18.872  0.00  0.00    +0.000 N 
ATOM     19  C   UNL     1       1.783   8.805  18.429  0.00  0.00    +0.000 C 
ATOM     20  O   UNL     1       2.157   9.197  17.335  0.00  0.00    +0.000 OA
ATOM     21  H   UNL     1       1.888   7.209  19.771  0.00  0.00    +0.000 HD
BRANCH  18  22
ATOM     22  C   UNL     1       3.107   6.779  18.059  0.00  0.00    +0.000 C 
BRANCH  22  23
ATOM     23  C   UNL     1       4.038   5.895  18.905  0.00  0.00    +0.000 C 
BRANCH  23  24
ATOM     24  N   UNL     1       5.256   5.419  18.195  0.00  0.00    +0.000 NA
BRANCH  24  26
ATOM     25  C   UNL     1       7.650   6.087  18.717  0.00  0.00    +0.000 C 
ATOM     26  C   UNL     1       6.416   5.269  19.114  0.00  0.00    +0.000 C 
ENDBRANCH  24  26
BRANCH  24  27
ATOM     27  C   UNL     1       4.949   4.201  17.394  0.00  0.00    +0.000 C 
ATOM     28  C   UNL     1       5.675   4.125  16.040  0.00  0.00    +0.000 C 
ENDBRANCH  24  27
ENDBRANCH  23  24
ENDBRANCH  22  23
ENDBRANCH  18  22
ENDBRANCH   1  19
TORSDOF 6
ENDMDL
MODEL 7
REMARK VINA RESULT:      -7.3      4.267      6.902
REMARK  Name = 
REMARK  8 active torsions:
REMARK  status: ('A' for Active; 'I' for Inactive)
REMARK    1  A    between atoms: C_1  and  C_2
REMARK    2  A    between atoms: C_2  and  N_3
REMARK    3  A    between atoms: N_3  and  C_4
REMARK    4  A    between atoms: N_3  and  C_6
REMARK    5  A    between atoms: C_4  and  C_5
REMARK    6  A    between atoms: C_6  and  C_7
REMARK    7  A    between atoms: C_7  and  N_8
REMARK    8  A    between atoms: C_9  and  C_11
REMARK                            x       y       z     vdW  Elec       q    Type
REMARK                         _______ _______ _______ _____ _____    ______ ____
ROOT
ATOM      1  C   UNL     1       0.828   9.778  19.280  0.00  0.00    +0.000 A 
ATOM      2  C   UNL     1       1.228  10.069  20.595  0.00  0.00    +0.000 A 
ATOM      3  C   UNL     1       0.448  10.847  21.433  0.00  0.00    +0.000 A 
ATOM      4  C   UNL     1      -0.771  11.364  21.010  0.00  0.00    +0.000 A 
ATOM      5  I   UNL     1      -1.776  12.521  22.496  0.00  0.00    +0.000 I 
ATOM      6  C   UNL     1      -1.237  11.091  19.693  0.00  0.00    +0.000 A 
ATOM      7  C   UNL     1      -2.485  11.574  19.216  0.00  0.00    +0.000 A 
ATOM      8  O   UNL     1      -3.203  12.258  19.925  0.00  0.00    +0.000 OA
ATOM      9  C   UNL     1      -2.918  11.259  17.918  0.00  0.00    +0.000 A 
ATOM     10  C   UNL     1      -4.161  11.712  17.420  0.00  0.00    +0.000 A 
ATOM     11  C   UNL     1      -4.572  11.374  16.129  0.00  0.00    +0.000 A 
ATOM     12  C   UNL     1      -3.754  10.587  15.317  0.00  0.00    +0.000 A 
ATOM     13  C   UNL     1      -2.523  10.135  15.796  0.00  0.00    +0.000 A 
ATOM     14  C   UNL     1      -2.099  10.466  17.097  0.00  0.00    +0.000 A 
ATOM     15  N   UNL     1      -0.902  10.011  17.558  0.00  0.00    +0.000 N 
ATOM     16  C   UNL     1      -0.431  10.294  18.817  0.00  0.00    +0.000 A 
ATOM     17  H   UNL     1      -0.372   9.412  16.900  0.00  0.00    +0.000 HD
ENDROOT
BRANCH   1  19
ATOM     18  N   UNL     1       2.258   7.756  18.865  0.00  0.00    +0.000 N 
ATOM     19  C   UNL     1       1.768   8.957  18.433  0.00  0.00    +0.000 C 
ATOM     20  O   UNL     1       2.118   9.372  17.339  0.00  0.00    +0.000 OA
ATOM     21  H   UNL     1       1.953   7.358  19.764  0.00  0.00    +0.000 HD
BRANCH  18  22
ATOM     22  C   UNL     1       3.178   6.994  18.041  0.00  0.00    +0.000 C 
BRANCH  22  23
ATOM     23  C   UNL     1       3.410   5.571  18.577  0.00  0.00    +0.000 C 
BRANCH  23  24
ATOM     24  N   UNL     1       3.776   4.569  17.539  0.00  0.00    +0.000 NA
BRANCH  24  26
ATOM     25  C   UNL     1       5.531   3.962  15.807  0.00  0.00    +0.000 C 
ATOM     26  C   UNL     1       4.874   5.053  16.660  0.00  0.00    +0.000 C 
ENDBRANCH  24  26
BRANCH  24  27
ATOM     27  C   UNL     1       4.033   3.242  18.165  0.00  0.00    +0.000 C 
ATOM     28  C   UNL     1       2.970   2.172  17.858  0.00  0.00    +0.000 C 
ENDBRANCH  24  27
ENDBRANCH  23  24
ENDBRANCH  22  23
ENDBRANCH  18  22
ENDBRANCH   1  19
TORSDOF 6
ENDMDL
MODEL 8
REMARK VINA RESULT:      -7.3      4.298      6.938
REMARK  Name = 
REMARK  8 active torsions:
REMARK  status: ('A' for Active; 'I' for Inactive)
REMARK    1  A    between atoms: C_1  and  C_2
REMARK    2  A    between atoms: C_2  and  N_3
REMARK    3  A    between atoms: N_3  and  C_4
REMARK    4  A    between atoms: N_3  and  C_6
REMARK    5  A    between atoms: C_4  and  C_5
REMARK    6  A    between atoms: C_6  and  C_7
REMARK    7  A    between atoms: C_7  and  N_8
REMARK    8  A    between atoms: C_9  and  C_11
REMARK                            x       y       z     vdW  Elec       q    Type
REMARK                         _______ _______ _______ _____ _____    ______ ____
ROOT
ATOM      1  C   UNL     1       0.891   9.678  19.260  0.00  0.00    +0.000 A 
ATOM      2  C   UNL     1       1.319   9.964  20.567  0.00  0.00    +0.000 A 
ATOM      3  C   UNL     1       0.571  10.765  21.414  0.00  0.00    +0.000 A 
ATOM      4  C   UNL     1      -0.641  11.309  21.008  0.00  0.00    +0.000 A 
ATOM      5  I   UNL     1      -1.594  12.497  22.505  0.00  0.00    +0.000 I 
ATOM      6  C   UNL     1      -1.135  11.043  19.700  0.00  0.00    +0.000 A 
ATOM      7  C   UNL     1      -2.379  11.554  19.241  0.00  0.00    +0.000 A 
ATOM      8  O   UNL     1      -3.069  12.258  19.958  0.00  0.00    +0.000 OA
ATOM      9  C   UNL     1      -2.840  11.244  17.951  0.00  0.00    +0.000 A 
ATOM     10  C   UNL     1      -4.079  11.724  17.471  0.00  0.00    +0.000 A 
ATOM     11  C   UNL     1      -4.519  11.391  16.188  0.00  0.00    +0.000 A 
ATOM     12  C   UNL     1      -3.733  10.582  15.367  0.00  0.00    +0.000 A 
ATOM     13  C   UNL     1      -2.506  10.101  15.828  0.00  0.00    +0.000 A 
ATOM     14  C   UNL     1      -2.054  10.428  17.121  0.00  0.00    +0.000 A 
ATOM     15  N   UNL     1      -0.861   9.946  17.565  0.00  0.00    +0.000 N 
ATOM     16  C   UNL     1      -0.363  10.223  18.816  0.00  0.00    +0.000 A 
ATOM     17  H   UNL     1      -0.355   9.331  16.902  0.00  0.00    +0.000 HD
ENDROOT
BRANCH   1  19
ATOM     18  N   UNL     1       2.282   7.630  18.841  0.00  0.00    +0.000 N 
ATOM     19  C   UNL     1       1.797   8.831  18.403  0.00  0.00    +0.000 C 
ATOM     20  O   UNL     1       2.123   9.224  17.293  0.00  0.00    +0.000 OA
ATOM     21  H   UNL     1       1.996   7.251  19.754  0.00  0.00    +0.000 HD
BRANCH  18  22
ATOM     22  C   UNL     1       3.170   6.843  18.005  0.00  0.00    +0.000 C 
BRANCH  22  23
ATOM     23  C   UNL     1       4.110   5.944  18.826  0.00  0.00    +0.000 C 
BRANCH  23  24
ATOM     24  N   UNL     1       5.191   5.293  18.038  0.00  0.00    +0.000 NA
BRANCH  24  26
ATOM     25  C   UNL     1       5.440   4.868  15.546  0.00  0.00    +0.000 C 
ATOM     26  C   UNL     1       5.330   5.891  16.682  0.00  0.00    +0.000 C 
ENDBRANCH  24  26
BRANCH  24  27
ATOM     27  C   UNL     1       6.457   5.255  18.822  0.00  0.00    +0.000 C 
ATOM     28  C   UNL     1       7.509   6.291  18.391  0.00  0.00    +0.000 C 
ENDBRANCH  24  27
ENDBRANCH  23  24
ENDBRANCH  22  23
ENDBRANCH  18  22
ENDBRANCH   1  19
TORSDOF 6
ENDMDL
MODEL 9
REMARK VINA RESULT:      -7.2      2.895      8.333
REMARK  Name = 
REMARK  8 active torsions:
REMARK  status: ('A' for Active; 'I' for Inactive)
REMARK    1  A    between atoms: C_1  and  C_2
REMARK    2  A    between atoms: C_2  and  N_3
REMARK    3  A    between atoms: N_3  and  C_4
REMARK    4  A    between atoms: N_3  and  C_6
REMARK    5  A    between atoms: C_4  and  C_5
REMARK    6  A    between atoms: C_6  and  C_7
REMARK    7  A    between atoms: C_7  and  N_8
REMARK    8  A    between atoms: C_9  and  C_11
REMARK                            x       y       z     vdW  Elec       q    Type
REMARK                         _______ _______ _______ _____ _____    ______ ____
ROOT
ATOM      1  C   UNL     1       2.172   7.366  19.183  0.00  0.00    +0.000 A 
ATOM      2  C   UNL     1       1.504   6.977  20.356  0.00  0.00    +0.000 A 
ATOM      3  C   UNL     1       1.615   5.692  20.860  0.00  0.00    +0.000 A 
ATOM      4  C   UNL     1       2.403   4.737  20.230  0.00  0.00    +0.000 A 
ATOM      5  I   UNL     1       2.407   2.842  21.215  0.00  0.00    +0.000 I 
ATOM      6  C   UNL     1       3.117   5.075  19.046  0.00  0.00    +0.000 A 
ATOM      7  C   UNL     1       3.956   4.145  18.375  0.00  0.00    +0.000 A 
ATOM      8  O   UNL     1       4.084   3.006  18.790  0.00  0.00    +0.000 OA
ATOM      9  C   UNL     1       4.662   4.529  17.224  0.00  0.00    +0.000 A 
ATOM     10  C   UNL     1       5.515   3.632  16.543  0.00  0.00    +0.000 A 
ATOM     11  C   UNL     1       6.215   4.044  15.407  0.00  0.00    +0.000 A 
ATOM     12  C   UNL     1       6.074   5.349  14.933  0.00  0.00    +0.000 A 
ATOM     13  C   UNL     1       5.233   6.245  15.595  0.00  0.00    +0.000 A 
ATOM     14  C   UNL     1       4.525   5.842  16.743  0.00  0.00    +0.000 A 
ATOM     15  N   UNL     1       3.715   6.726  17.388  0.00  0.00    +0.000 N 
ATOM     16  C   UNL     1       3.000   6.399  18.514  0.00  0.00    +0.000 A 
ATOM     17  H   UNL     1       3.690   7.680  16.984  0.00  0.00    +0.000 HD
ENDROOT
BRANCH   1  19
ATOM     18  N   UNL     1       1.293   9.702  19.450  0.00  0.00    +0.000 N 
ATOM     19  C   UNL     1       1.952   8.775  18.693  0.00  0.00    +0.000 C 
ATOM     20  O   UNL     1       2.359   9.103  17.589  0.00  0.00    +0.000 OA
ATOM     21  H   UNL     1       0.972   9.471  20.401  0.00  0.00    +0.000 HD
BRANCH  18  22
ATOM     22  C   UNL     1       1.075  11.047  18.948  0.00  0.00    +0.000 C 
BRANCH  22  23
ATOM     23  C   UNL     1       1.052  12.099  20.070  0.00  0.00    +0.000 C 
BRANCH  23  24
ATOM     24  N   UNL     1      -0.309  12.489  20.526  0.00  0.00    +0.000 NA
BRANCH  24  26
ATOM     25  C   UNL     1      -2.764  12.467  19.878  0.00  0.00    +0.000 C 
ATOM     26  C   UNL     1      -1.376  11.838  19.720  0.00  0.00    +0.000 C 
ENDBRANCH  24  26
BRANCH  24  27
ATOM     27  C   UNL     1      -0.443  12.287  21.996  0.00  0.00    +0.000 C 
ATOM     28  C   UNL     1      -0.561  10.815  22.432  0.00  0.00    +0.000 C 
ENDBRANCH  24  27
ENDBRANCH  23  24
ENDBRANCH  22  23
ENDBRANCH  18  22
ENDBRANCH   1  19
TORSDOF 6
ENDMDL
