MODEL 1
REMARK VINA RESULT:      -8.1      0.000      0.000
REMARK  Name = 
REMARK  7 active torsions:
REMARK  status: ('A' for Active; 'I' for Inactive)
REMARK    1  A    between atoms: C_1  and  O_2
REMARK    2  A    between atoms: O_2  and  C_3
REMARK    3  A    between atoms: C_6  and  C_7
REMARK    4  A    between atoms: C_7  and  C_9
REMARK    5  A    between atoms: N_12  and  C_13
REMARK    6  A    between atoms: N_16  and  C_17
REMARK    7  A    between atoms: C_17  and  C_18
REMARK                            x       y       z     vdW  Elec       q    Type
REMARK                         _______ _______ _______ _____ _____    ______ ____
ROOT
ATOM      1  C   UNL     1       4.318   3.292  17.426  0.00  0.00    +0.000 C 
ATOM      2  C   UNL     1       2.831   3.230  17.073  0.00  0.00    +0.000 C 
ATOM      3  C   UNL     1       2.135   3.929  18.222  0.00  0.00    +0.000 C 
ATOM      4  N   UNL     1       2.971   3.661  19.368  0.00  0.00    +0.000 N 
ATOM      5  C   UNL     1       4.277   3.349  18.964  0.00  0.00    +0.000 C 
ATOM      6  O   UNL     1       5.231   3.238  19.719  0.00  0.00    +0.000 OA
ENDROOT
BRANCH   1  10
ATOM      7  C   UNL     1       7.047   6.157  18.296  0.00  0.00    +0.000 C 
ATOM      8  C   UNL     1       7.388   4.740  17.834  0.00  0.00    +0.000 C 
ATOM      9  C   UNL     1       6.527   4.267  16.664  0.00  0.00    +0.000 C 
ATOM     10  N   UNL     1       5.097   4.416  16.892  0.00  0.00    +0.000 NA
ATOM     11  C   UNL     1       4.703   5.752  17.312  0.00  0.00    +0.000 C 
ATOM     12  C   UNL     1       5.533   6.338  18.459  0.00  0.00    +0.000 C 
BRANCH   7  13
ATOM     13  C   UNL     1       7.681   7.205  17.373  0.00  0.00    +0.000 C 
ATOM     14  O   UNL     1       7.867   6.990  16.180  0.00  0.00    +0.000 OA
BRANCH  13  18
ATOM     15  C   UNL     1       8.975  11.024  18.896  0.00  0.00    +0.000 A 
ATOM     16  C   UNL     1       8.218  10.932  17.728  0.00  0.00    +0.000 A 
ATOM     17  C   UNL     1       7.791   9.687  17.255  0.00  0.00    +0.000 A 
ATOM     18  C   UNL     1       8.130   8.514  17.944  0.00  0.00    +0.000 A 
ATOM     19  C   UNL     1       8.899   8.610  19.107  0.00  0.00    +0.000 A 
ATOM     20  C   UNL     1       9.318   9.859  19.579  0.00  0.00    +0.000 A 
BRANCH  15  22
ATOM     21  C   UNL     1       9.306  13.268  18.213  0.00  0.00    +0.000 C 
ATOM     22  O   UNL     1       9.360  12.289  19.246  0.00  0.00    +0.000 OA
ENDBRANCH  15  22
ENDBRANCH  13  18
ENDBRANCH   7  13
ENDBRANCH   1  10
BRANCH   4  23
ATOM     23  C   UNL     1       2.797   4.415  20.603  0.00  0.00    +0.000 C 
BRANCH  23  24
ATOM     24  C   UNL     1       2.001   5.699  20.428  0.00  0.00    +0.000 C 
ATOM     25  O   UNL     1       0.814   5.758  20.746  0.00  0.00    +0.000 OA
ATOM     26  N   UNL     1       2.699   6.707  19.791  0.00  0.00    +0.000 N 
ATOM     27  C   UNL     1       2.064   7.882  19.482  0.00  0.00    +0.000 A 
ATOM     28  N   UNL     1       2.203   8.559  18.356  0.00  0.00    +0.000 NA
ATOM     29  N   UNL     1       1.346   9.657  18.393  0.00  0.00    +0.000 NA
ATOM     30  C   UNL     1       0.774   9.627  19.564  0.00  0.00    +0.000 A 
ATOM     31  N   UNL     1       1.222   8.576  20.291  0.00  0.00    +0.000 N 
ATOM     32  C   UNL     1       1.012   8.645  21.716  0.00  0.00    +0.000 C 
ATOM     33  C   UNL     1      -0.170   9.594  21.932  0.00  0.00    +0.000 C 
ATOM     34  S   UNL     1      -0.234  10.690  20.453  0.00  0.00    +0.000 S 
ATOM     35  H   UNL     1       3.440   6.425  19.156  0.00  0.00    +0.000 HD
ENDBRANCH  23  24
ENDBRANCH   4  23
TORSDOF 6
ENDMDL
MODEL 2
REMARK VINA RESULT:      -8.0      4.077      7.077
REMARK  Name = 
REMARK  7 active torsions:
REMARK  status: ('A' for Active; 'I' for Inactive)
REMARK    1  A    between atoms: C_1  and  O_2
REMARK    2  A    between atoms: O_2  and  C_3
REMARK    3  A    between atoms: C_6  and  C_7
REMARK    4  A    between atoms: C_7  and  C_9
REMARK    5  A    between atoms: N_12  and  C_13
REMARK    6  A    between atoms: N_16  and  C_17
REMARK    7  A    between atoms: C_17  and  C_18
REMARK                            x       y       z     vdW  Elec       q    Type
REMARK                         _______ _______ _______ _____ _____    ______ ____
ROOT
ATOM      1  C   UNL     1       0.543   9.152  19.207  0.00  0.00    +0.000 C 
ATOM      2  C   UNL     1       0.527  10.457  18.409  0.00  0.00    +0.000 C 
ATOM      3  C   UNL     1       0.699  11.544  19.449  0.00  0.00    +0.000 C 
ATOM      4  N   UNL     1       0.073  11.013  20.636  0.00  0.00    +0.000 N 
ATOM      5  C   UNL     1       0.017   9.612  20.578  0.00  0.00    +0.000 C 
ATOM      6  O   UNL     1      -0.310   8.891  21.508  0.00  0.00    +0.000 OA
ENDROOT
BRANCH   1  10
ATOM      7  C   UNL     1       2.522   5.654  18.701  0.00  0.00    +0.000 C 
ATOM      8  C   UNL     1       2.391   6.743  17.636  0.00  0.00    +0.000 C 
ATOM      9  C   UNL     1       2.630   8.149  18.183  0.00  0.00    +0.000 C 
ATOM     10  N   UNL     1       1.831   8.463  19.358  0.00  0.00    +0.000 NA
ATOM     11  C   UNL     1       1.932   7.474  20.421  0.00  0.00    +0.000 C 
ATOM     12  C   UNL     1       1.746   6.022  19.970  0.00  0.00    +0.000 C 
BRANCH   7  13
ATOM     13  C   UNL     1       3.995   5.324  18.973  0.00  0.00    +0.000 C 
ATOM     14  O   UNL     1       4.424   5.170  20.112  0.00  0.00    +0.000 OA
BRANCH  13  18
ATOM     15  C   UNL     1       6.781   5.185  15.686  0.00  0.00    +0.000 A 
ATOM     16  C   UNL     1       6.917   6.123  16.710  0.00  0.00    +0.000 A 
ATOM     17  C   UNL     1       6.016   6.145  17.778  0.00  0.00    +0.000 A 
ATOM     18  C   UNL     1       4.953   5.231  17.827  0.00  0.00    +0.000 A 
ATOM     19  C   UNL     1       4.814   4.301  16.794  0.00  0.00    +0.000 A 
ATOM     20  C   UNL     1       5.722   4.279  15.730  0.00  0.00    +0.000 A 
BRANCH  15  22
ATOM     21  C   UNL     1       7.275   4.831  13.397  0.00  0.00    +0.000 C 
ATOM     22  O   UNL     1       7.703   5.277  14.680  0.00  0.00    +0.000 OA
ENDBRANCH  15  22
ENDBRANCH  13  18
ENDBRANCH   7  13
ENDBRANCH   1  10
BRANCH   4  23
ATOM     23  C   UNL     1       0.297  11.637  21.933  0.00  0.00    +0.000 C 
BRANCH  23  24
ATOM     24  C   UNL     1      -0.873  12.481  22.416  0.00  0.00    +0.000 C 
ATOM     25  O   UNL     1      -0.738  13.682  22.644  0.00  0.00    +0.000 OA
ATOM     26  N   UNL     1      -2.019  11.752  22.670  0.00  0.00    +0.000 N 
ATOM     27  C   UNL     1      -3.116  12.377  23.204  0.00  0.00    +0.000 A 
ATOM     28  N   UNL     1      -3.900  11.883  24.146  0.00  0.00    +0.000 NA
ATOM     29  N   UNL     1      -4.860  12.841  24.467  0.00  0.00    +0.000 NA
ATOM     30  C   UNL     1      -4.651  13.844  23.662  0.00  0.00    +0.000 A 
ATOM     31  N   UNL     1      -3.614  13.584  22.830  0.00  0.00    +0.000 N 
ATOM     32  C   UNL     1      -3.531  14.389  21.637  0.00  0.00    +0.000 C 
ATOM     33  C   UNL     1      -4.283  15.689  21.940  0.00  0.00    +0.000 C 
ATOM     34  S   UNL     1      -5.482  15.293  23.281  0.00  0.00    +0.000 S 
ATOM     35  H   UNL     1      -1.899  10.776  22.924  0.00  0.00    +0.000 HD
ENDBRANCH  23  24
ENDBRANCH   4  23
TORSDOF 6
ENDMDL
MODEL 3
REMARK VINA RESULT:      -8.0      0.632      1.137
REMARK  Name = 
REMARK  7 active torsions:
REMARK  status: ('A' for Active; 'I' for Inactive)
REMARK    1  A    between atoms: C_1  and  O_2
REMARK    2  A    between atoms: O_2  and  C_3
REMARK    3  A    between atoms: C_6  and  C_7
REMARK    4  A    between atoms: C_7  and  C_9
REMARK    5  A    between atoms: N_12  and  C_13
REMARK    6  A    between atoms: N_16  and  C_17
REMARK    7  A    between atoms: C_17  and  C_18
REMARK                            x       y       z     vdW  Elec       q    Type
REMARK                         _______ _______ _______ _____ _____    ______ ____
ROOT
ATOM      1  C   UNL     1       4.130   2.967  17.573  0.00  0.00    +0.000 C 
ATOM      2  C   UNL     1       2.743   3.376  17.076  0.00  0.00    +0.000 C 
ATOM      3  C   UNL     1       2.183   4.250  18.178  0.00  0.00    +0.000 C 
ATOM      4  N   UNL     1       2.770   3.727  19.388  0.00  0.00    +0.000 N 
ATOM      5  C   UNL     1       3.950   3.025  19.100  0.00  0.00    +0.000 C 
ATOM      6  O   UNL     1       4.739   2.616  19.939  0.00  0.00    +0.000 OA
ENDROOT
BRANCH   1  10
ATOM      7  C   UNL     1       5.764   6.673  17.679  0.00  0.00    +0.000 C 
ATOM      8  C   UNL     1       5.983   5.593  18.739  0.00  0.00    +0.000 C 
ATOM      9  C   UNL     1       6.259   4.214  18.143  0.00  0.00    +0.000 C 
ATOM     10  N   UNL     1       5.272   3.793  17.160  0.00  0.00    +0.000 NA
ATOM     11  C   UNL     1       5.034   4.770  16.108  0.00  0.00    +0.000 C 
ATOM     12  C   UNL     1       4.785   6.200  16.599  0.00  0.00    +0.000 C 
BRANCH   7  13
ATOM     13  C   UNL     1       7.100   7.161  17.105  0.00  0.00    +0.000 C 
ATOM     14  O   UNL     1       7.677   6.559  16.206  0.00  0.00    +0.000 OA
BRANCH  13  18
ATOM     15  C   UNL     1       8.977  10.608  18.887  0.00  0.00    +0.000 A 
ATOM     16  C   UNL     1       9.220   9.322  19.371  0.00  0.00    +0.000 A 
ATOM     17  C   UNL     1       8.617   8.212  18.772  0.00  0.00    +0.000 A 
ATOM     18  C   UNL     1       7.749   8.379  17.684  0.00  0.00    +0.000 A 
ATOM     19  C   UNL     1       7.499   9.670  17.210  0.00  0.00    +0.000 A 
ATOM     20  C   UNL     1       8.110  10.777  17.809  0.00  0.00    +0.000 A 
BRANCH  15  22
ATOM     21  C   UNL     1       9.011  12.909  19.445  0.00  0.00    +0.000 C 
ATOM     22  O   UNL     1       9.598  11.618  19.569  0.00  0.00    +0.000 OA
ENDBRANCH  15  22
ENDBRANCH  13  18
ENDBRANCH   7  13
ENDBRANCH   1  10
BRANCH   4  23
ATOM     23  C   UNL     1       2.713   4.491  20.628  0.00  0.00    +0.000 C 
BRANCH  23  24
ATOM     24  C   UNL     1       1.966   5.810  20.500  0.00  0.00    +0.000 C 
ATOM     25  O   UNL     1       0.813   5.929  20.912  0.00  0.00    +0.000 OA
ATOM     26  N   UNL     1       2.657   6.776  19.794  0.00  0.00    +0.000 N 
ATOM     27  C   UNL     1       2.055   7.977  19.521  0.00  0.00    +0.000 A 
ATOM     28  N   UNL     1       2.135   8.635  18.378  0.00  0.00    +0.000 NA
ATOM     29  N   UNL     1       1.336   9.773  18.469  0.00  0.00    +0.000 NA
ATOM     30  C   UNL     1       0.860   9.783  19.682  0.00  0.00    +0.000 A 
ATOM     31  N   UNL     1       1.315   8.719  20.386  0.00  0.00    +0.000 N 
ATOM     32  C   UNL     1       1.225   8.813  21.822  0.00  0.00    +0.000 C 
ATOM     33  C   UNL     1       0.110   9.819  22.119  0.00  0.00    +0.000 C 
ATOM     34  S   UNL     1      -0.021  10.902  20.635  0.00  0.00    +0.000 S 
ATOM     35  H   UNL     1       3.330   6.452  19.107  0.00  0.00    +0.000 HD
ENDBRANCH  23  24
ENDBRANCH   4  23
TORSDOF 6
ENDMDL
MODEL 4
REMARK VINA RESULT:      -7.9      4.114      7.060
REMARK  Name = 
REMARK  7 active torsions:
REMARK  status: ('A' for Active; 'I' for Inactive)
REMARK    1  A    between atoms: C_1  and  O_2
REMARK    2  A    between atoms: O_2  and  C_3
REMARK    3  A    between atoms: C_6  and  C_7
REMARK    4  A    between atoms: C_7  and  C_9
REMARK    5  A    between atoms: N_12  and  C_13
REMARK    6  A    between atoms: N_16  and  C_17
REMARK    7  A    between atoms: C_17  and  C_18
REMARK                            x       y       z     vdW  Elec       q    Type
REMARK                         _______ _______ _______ _____ _____    ______ ____
ROOT
ATOM      1  C   UNL     1       0.422   8.990  19.480  0.00  0.00    +0.000 C 
ATOM      2  C   UNL     1       0.220   9.997  18.346  0.00  0.00    +0.000 C 
ATOM      3  C   UNL     1       0.546  11.341  18.963  0.00  0.00    +0.000 C 
ATOM      4  N   UNL     1       0.164  11.204  20.349  0.00  0.00    +0.000 N 
ATOM      5  C   UNL     1       0.142   9.853  20.723  0.00  0.00    +0.000 C 
ATOM      6  O   UNL     1       0.013   9.451  21.870  0.00  0.00    +0.000 OA
ENDROOT
BRANCH   1  10
ATOM      7  C   UNL     1       2.539   5.612  18.760  0.00  0.00    +0.000 C 
ATOM      8  C   UNL     1       2.365   6.759  17.766  0.00  0.00    +0.000 C 
ATOM      9  C   UNL     1       2.547   8.137  18.400  0.00  0.00    +0.000 C 
ATOM     10  N   UNL     1       1.736   8.345  19.590  0.00  0.00    +0.000 NA
ATOM     11  C   UNL     1       1.876   7.296  20.589  0.00  0.00    +0.000 C 
ATOM     12  C   UNL     1       1.748   5.869  20.048  0.00  0.00    +0.000 C 
BRANCH   7  13
ATOM     13  C   UNL     1       4.024   5.325  19.016  0.00  0.00    +0.000 C 
ATOM     14  O   UNL     1       4.456   5.102  20.141  0.00  0.00    +0.000 OA
BRANCH  13  18
ATOM     15  C   UNL     1       6.773   5.299  15.696  0.00  0.00    +0.000 A 
ATOM     16  C   UNL     1       5.671   4.444  15.727  0.00  0.00    +0.000 A 
ATOM     17  C   UNL     1       4.778   4.476  16.803  0.00  0.00    +0.000 A 
ATOM     18  C   UNL     1       4.988   5.360  17.871  0.00  0.00    +0.000 A 
ATOM     19  C   UNL     1       6.100   6.206  17.841  0.00  0.00    +0.000 A 
ATOM     20  C   UNL     1       6.987   6.175  16.759  0.00  0.00    +0.000 A 
BRANCH  15  22
ATOM     21  C   UNL     1       6.988   4.629  13.434  0.00  0.00    +0.000 C 
ATOM     22  O   UNL     1       7.592   5.160  14.609  0.00  0.00    +0.000 OA
ENDBRANCH  15  22
ENDBRANCH  13  18
ENDBRANCH   7  13
ENDBRANCH   1  10
BRANCH   4  23
ATOM     23  C   UNL     1       0.602  12.182  21.337  0.00  0.00    +0.000 C 
BRANCH  23  24
ATOM     24  C   UNL     1      -0.541  12.830  22.104  0.00  0.00    +0.000 C 
ATOM     25  O   UNL     1      -0.345  13.386  23.184  0.00  0.00    +0.000 OA
ATOM     26  N   UNL     1      -1.782  12.628  21.532  0.00  0.00    +0.000 N 
ATOM     27  C   UNL     1      -2.907  13.074  22.177  0.00  0.00    +0.000 A 
ATOM     28  N   UNL     1      -4.050  12.419  22.272  0.00  0.00    +0.000 NA
ATOM     29  N   UNL     1      -4.923  13.170  23.056  0.00  0.00    +0.000 NA
ATOM     30  C   UNL     1      -4.290  14.271  23.347  0.00  0.00    +0.000 A 
ATOM     31  N   UNL     1      -3.057  14.280  22.785  0.00  0.00    +0.000 N 
ATOM     32  C   UNL     1      -2.417  15.565  22.662  0.00  0.00    +0.000 C 
ATOM     33  C   UNL     1      -3.048  16.466  23.727  0.00  0.00    +0.000 C 
ATOM     34  S   UNL     1      -4.711  15.760  24.085  0.00  0.00    +0.000 S 
ATOM     35  H   UNL     1      -1.899  11.793  20.967  0.00  0.00    +0.000 HD
ENDBRANCH  23  24
ENDBRANCH   4  23
TORSDOF 6
ENDMDL
MODEL 5
REMARK VINA RESULT:      -7.8      4.357      7.528
REMARK  Name = 
REMARK  7 active torsions:
REMARK  status: ('A' for Active; 'I' for Inactive)
REMARK    1  A    between atoms: C_1  and  O_2
REMARK    2  A    between atoms: O_2  and  C_3
REMARK    3  A    between atoms: C_6  and  C_7
REMARK    4  A    between atoms: C_7  and  C_9
REMARK    5  A    between atoms: N_12  and  C_13
REMARK    6  A    between atoms: N_16  and  C_17
REMARK    7  A    between atoms: C_17  and  C_18
REMARK                            x       y       z     vdW  Elec       q    Type
REMARK                         _______ _______ _______ _____ _____    ______ ____
ROOT
ATOM      1  C   UNL     1       0.346   9.225  19.849  0.00  0.00    +0.000 C 
ATOM      2  C   UNL     1      -0.202  10.009  18.656  0.00  0.00    +0.000 C 
ATOM      3  C   UNL     1       0.209  11.443  18.917  0.00  0.00    +0.000 C 
ATOM      4  N   UNL     1       0.218  11.560  20.356  0.00  0.00    +0.000 N 
ATOM      5  C   UNL     1       0.365  10.298  20.952  0.00  0.00    +0.000 C 
ATOM      6  O   UNL     1       0.567  10.111  22.142  0.00  0.00    +0.000 OA
ENDROOT
BRANCH   1  10
ATOM      7  C   UNL     1       2.386   5.975  18.551  0.00  0.00    +0.000 C 
ATOM      8  C   UNL     1       2.043   7.190  17.689  0.00  0.00    +0.000 C 
ATOM      9  C   UNL     1       2.296   8.519  18.397  0.00  0.00    +0.000 C 
ATOM     10  N   UNL     1       1.672   8.611  19.709  0.00  0.00    +0.000 NA
ATOM     11  C   UNL     1       1.980   7.493  20.588  0.00  0.00    +0.000 C 
ATOM     12  C   UNL     1       1.796   6.109  19.959  0.00  0.00    +0.000 C 
BRANCH   7  13
ATOM     13  C   UNL     1       3.897   5.712  18.556  0.00  0.00    +0.000 C 
ATOM     14  O   UNL     1       4.577   5.862  19.565  0.00  0.00    +0.000 OA
BRANCH  13  18
ATOM     15  C   UNL     1       5.906   4.433  14.963  0.00  0.00    +0.000 A 
ATOM     16  C   UNL     1       5.492   3.512  15.926  0.00  0.00    +0.000 A 
ATOM     17  C   UNL     1       4.826   3.941  17.078  0.00  0.00    +0.000 A 
ATOM     18  C   UNL     1       4.578   5.305  17.287  0.00  0.00    +0.000 A 
ATOM     19  C   UNL     1       5.006   6.225  16.325  0.00  0.00    +0.000 A 
ATOM     20  C   UNL     1       5.666   5.790  15.171  0.00  0.00    +0.000 A 
BRANCH  15  22
ATOM     21  C   UNL     1       5.778   3.594  12.752  0.00  0.00    +0.000 C 
ATOM     22  O   UNL     1       6.572   3.902  13.893  0.00  0.00    +0.000 OA
ENDBRANCH  15  22
ENDBRANCH  13  18
ENDBRANCH   7  13
ENDBRANCH   1  10
BRANCH   4  23
ATOM     23  C   UNL     1       0.855  12.701  21.001  0.00  0.00    +0.000 C 
BRANCH  23  24
ATOM     24  C   UNL     1      -0.052  13.435  21.977  0.00  0.00    +0.000 C 
ATOM     25  O   UNL     1       0.378  14.353  22.675  0.00  0.00    +0.000 OA
ATOM     26  N   UNL     1      -1.323  12.900  22.069  0.00  0.00    +0.000 N 
ATOM     27  C   UNL     1      -2.207  13.407  22.986  0.00  0.00    +0.000 A 
ATOM     28  N   UNL     1      -3.032  12.696  23.734  0.00  0.00    +0.000 NA
ATOM     29  N   UNL     1      -3.717  13.564  24.581  0.00  0.00    +0.000 NA
ATOM     30  C   UNL     1      -3.321  14.764  24.264  0.00  0.00    +0.000 A 
ATOM     31  N   UNL     1      -2.424  14.722  23.250  0.00  0.00    +0.000 N 
ATOM     32  C   UNL     1      -2.219  15.950  22.523  0.00  0.00    +0.000 C 
ATOM     33  C   UNL     1      -2.622  17.084  23.469  0.00  0.00    +0.000 C 
ATOM     34  S   UNL     1      -3.803  16.356  24.680  0.00  0.00    +0.000 S 
ATOM     35  H   UNL     1      -1.424  11.913  21.857  0.00  0.00    +0.000 HD
ENDBRANCH  23  24
ENDBRANCH   4  23
TORSDOF 6
ENDMDL
MODEL 6
REMARK VINA RESULT:      -7.8      4.312      7.203
REMARK  Name = 
REMARK  7 active torsions:
REMARK  status: ('A' for Active; 'I' for Inactive)
REMARK    1  A    between atoms: C_1  and  O_2
REMARK    2  A    between atoms: O_2  and  C_3
REMARK    3  A    between atoms: C_6  and  C_7
REMARK    4  A    between atoms: C_7  and  C_9
REMARK    5  A    between atoms: N_12  and  C_13
REMARK    6  A    between atoms: N_16  and  C_17
REMARK    7  A    between atoms: C_17  and  C_18
REMARK                            x       y       z     vdW  Elec       q    Type
REMARK                         _______ _______ _______ _____ _____    ______ ____
ROOT
ATOM      1  C   UNL     1       0.686   9.191  19.642  0.00  0.00    +0.000 C 
ATOM      2  C   UNL     1       0.391   9.935  18.340  0.00  0.00    +0.000 C 
ATOM      3  C   UNL     1       0.945  11.327  18.559  0.00  0.00    +0.000 C 
ATOM      4  N   UNL     1       0.794  11.557  19.976  0.00  0.00    +0.000 N 
ATOM      5  C   UNL     1       0.706  10.340  20.666  0.00  0.00    +0.000 C 
ATOM      6  O   UNL     1       0.736  10.226  21.882  0.00  0.00    +0.000 OA
ENDROOT
BRANCH   1  10
ATOM      7  C   UNL     1       2.439   5.627  18.844  0.00  0.00    +0.000 C 
ATOM      8  C   UNL     1       2.358   6.797  17.864  0.00  0.00    +0.000 C 
ATOM      9  C   UNL     1       2.691   8.142  18.506  0.00  0.00    +0.000 C 
ATOM     10  N   UNL     1       1.931   8.417  19.716  0.00  0.00    +0.000 NA
ATOM     11  C   UNL     1       1.988   7.348  20.703  0.00  0.00    +0.000 C 
ATOM     12  C   UNL     1       1.706   5.947  20.152  0.00  0.00    +0.000 C 
BRANCH   7  13
ATOM     13  C   UNL     1       3.893   5.190  19.062  0.00  0.00    +0.000 C 
ATOM     14  O   UNL     1       4.324   4.908  20.175  0.00  0.00    +0.000 OA
BRANCH  13  18
ATOM     15  C   UNL     1       6.626   5.197  15.729  0.00  0.00    +0.000 A 
ATOM     16  C   UNL     1       6.801   6.065  16.808  0.00  0.00    +0.000 A 
ATOM     17  C   UNL     1       5.915   6.039  17.890  0.00  0.00    +0.000 A 
ATOM     18  C   UNL     1       4.832   5.149  17.898  0.00  0.00    +0.000 A 
ATOM     19  C   UNL     1       4.655   4.290  16.810  0.00  0.00    +0.000 A 
ATOM     20  C   UNL     1       5.547   4.315  15.732  0.00  0.00    +0.000 A 
BRANCH  15  22
ATOM     21  C   UNL     1       7.160   4.775  13.461  0.00  0.00    +0.000 C 
ATOM     22  O   UNL     1       7.536   5.332  14.717  0.00  0.00    +0.000 OA
ENDBRANCH  15  22
ENDBRANCH  13  18
ENDBRANCH   7  13
ENDBRANCH   1  10
BRANCH   4  23
ATOM     23  C   UNL     1       1.486  12.664  20.624  0.00  0.00    +0.000 C 
BRANCH  23  24
ATOM     24  C   UNL     1       0.556  13.759  21.122  0.00  0.00    +0.000 C 
ATOM     25  O   UNL     1       0.517  14.859  20.572  0.00  0.00    +0.000 OA
ATOM     26  N   UNL     1      -0.122  13.431  22.281  0.00  0.00    +0.000 N 
ATOM     27  C   UNL     1      -0.917  14.368  22.890  0.00  0.00    +0.000 A 
ATOM     28  N   UNL     1      -1.000  14.576  24.192  0.00  0.00    +0.000 NA
ATOM     29  N   UNL     1      -1.860  15.651  24.411  0.00  0.00    +0.000 NA
ATOM     30  C   UNL     1      -2.303  16.003  23.237  0.00  0.00    +0.000 A 
ATOM     31  N   UNL     1      -1.786  15.207  22.270  0.00  0.00    +0.000 N 
ATOM     32  C   UNL     1      -2.484  15.194  21.009  0.00  0.00    +0.000 C 
ATOM     33  C   UNL     1      -3.253  16.517  20.927  0.00  0.00    +0.000 C 
ATOM     34  S   UNL     1      -3.510  17.076  22.663  0.00  0.00    +0.000 S 
ATOM     35  H   UNL     1       0.320  12.758  22.899  0.00  0.00    +0.000 HD
ENDBRANCH  23  24
ENDBRANCH   4  23
TORSDOF 6
ENDMDL
MODEL 7
REMARK VINA RESULT:      -7.7      1.493      2.149
REMARK  Name = 
REMARK  7 active torsions:
REMARK  status: ('A' for Active; 'I' for Inactive)
REMARK    1  A    between atoms: C_1  and  O_2
REMARK    2  A    between atoms: O_2  and  C_3
REMARK    3  A    between atoms: C_6  and  C_7
REMARK    4  A    between atoms: C_7  and  C_9
REMARK    5  A    between atoms: N_12  and  C_13
REMARK    6  A    between atoms: N_16  and  C_17
REMARK    7  A    between atoms: C_17  and  C_18
REMARK                            x       y       z     vdW  Elec       q    Type
REMARK                         _______ _______ _______ _____ _____    ______ ____
ROOT
ATOM      1  C   UNL     1       3.235   3.114  17.995  0.00  0.00    +0.000 C 
ATOM      2  C   UNL     1       2.082   3.845  17.306  0.00  0.00    +0.000 C 
ATOM      3  C   UNL     1       1.586   4.837  18.337  0.00  0.00    +0.000 C 
ATOM      4  N   UNL     1       1.835   4.194  19.606  0.00  0.00    +0.000 N 
ATOM      5  C   UNL     1       2.840   3.225  19.478  0.00  0.00    +0.000 C 
ATOM      6  O   UNL     1       3.367   2.642  20.414  0.00  0.00    +0.000 OA
ENDROOT
BRANCH   1  10
ATOM      7  C   UNL     1       5.425   6.250  16.658  0.00  0.00    +0.000 C 
ATOM      8  C   UNL     1       4.908   6.095  18.088  0.00  0.00    +0.000 C 
ATOM      9  C   UNL     1       5.108   4.687  18.649  0.00  0.00    +0.000 C 
ATOM     10  N   UNL     1       4.592   3.635  17.786  0.00  0.00    +0.000 NA
ATOM     11  C   UNL     1       5.066   3.714  16.412  0.00  0.00    +0.000 C 
ATOM     12  C   UNL     1       4.947   5.098  15.767  0.00  0.00    +0.000 C 
BRANCH   7  13
ATOM     13  C   UNL     1       6.947   6.432  16.638  0.00  0.00    +0.000 C 
ATOM     14  O   UNL     1       7.677   5.711  15.966  0.00  0.00    +0.000 OA
BRANCH  13  18
ATOM     15  C   UNL     1       8.762   9.546  19.002  0.00  0.00    +0.000 A 
ATOM     16  C   UNL     1       8.022   9.846  17.858  0.00  0.00    +0.000 A 
ATOM     17  C   UNL     1       7.425   8.827  17.111  0.00  0.00    +0.000 A 
ATOM     18  C   UNL     1       7.574   7.486  17.496  0.00  0.00    +0.000 A 
ATOM     19  C   UNL     1       8.327   7.190  18.636  0.00  0.00    +0.000 A 
ATOM     20  C   UNL     1       8.917   8.215  19.384  0.00  0.00    +0.000 A 
BRANCH  15  22
ATOM     21  C   UNL     1      10.483  11.173  19.022  0.00  0.00    +0.000 C 
ATOM     22  O   UNL     1       9.323  10.621  19.636  0.00  0.00    +0.000 OA
ENDBRANCH  15  22
ENDBRANCH  13  18
ENDBRANCH   7  13
ENDBRANCH   1  10
BRANCH   4  23
ATOM     23  C   UNL     1       1.772   4.957  20.846  0.00  0.00    +0.000 C 
BRANCH  23  24
ATOM     24  C   UNL     1       1.825   6.464  20.640  0.00  0.00    +0.000 C 
ATOM     25  O   UNL     1       2.775   6.992  20.065  0.00  0.00    +0.000 OA
ATOM     26  N   UNL     1       0.790   7.147  21.250  0.00  0.00    +0.000 N 
ATOM     27  C   UNL     1       0.775   8.517  21.225  0.00  0.00    +0.000 A 
ATOM     28  N   UNL     1       0.441   9.301  22.235  0.00  0.00    +0.000 NA
ATOM     29  N   UNL     1       0.615  10.626  21.840  0.00  0.00    +0.000 NA
ATOM     30  C   UNL     1       0.988  10.584  20.592  0.00  0.00    +0.000 A 
ATOM     31  N   UNL     1       1.054   9.304  20.154  0.00  0.00    +0.000 N 
ATOM     32  C   UNL     1       1.038   9.114  18.725  0.00  0.00    +0.000 C 
ATOM     33  C   UNL     1       1.546  10.421  18.110  0.00  0.00    +0.000 C 
ATOM     34  S   UNL     1       1.213  11.742  19.349  0.00  0.00    +0.000 S 
ATOM     35  H   UNL     1       0.370   6.714  22.067  0.00  0.00    +0.000 HD
ENDBRANCH  23  24
ENDBRANCH   4  23
TORSDOF 6
ENDMDL
MODEL 8
REMARK VINA RESULT:      -7.7      5.160     10.718
REMARK  Name = 
REMARK  7 active torsions:
REMARK  status: ('A' for Active; 'I' for Inactive)
REMARK    1  A    between atoms: C_1  and  O_2
REMARK    2  A    between atoms: O_2  and  C_3
REMARK    3  A    between atoms: C_6  and  C_7
REMARK    4  A    between atoms: C_7  and  C_9
REMARK    5  A    between atoms: N_12  and  C_13
REMARK    6  A    between atoms: N_16  and  C_17
REMARK    7  A    between atoms: C_17  and  C_18
REMARK                            x       y       z     vdW  Elec       q    Type
REMARK                         _______ _______ _______ _____ _____    ______ ____
ROOT
ATOM      1  C   UNL     1       0.558  10.972  20.967  0.00  0.00    +0.000 C 
ATOM      2  C   UNL     1       0.967  10.935  19.494  0.00  0.00    +0.000 C 
ATOM      3  C   UNL     1       1.129   9.463  19.177  0.00  0.00    +0.000 C 
ATOM      4  N   UNL     1       1.565   8.872  20.419  0.00  0.00    +0.000 N 
ATOM      5  C   UNL     1       1.197   9.680  21.505  0.00  0.00    +0.000 C 
ATOM      6  O   UNL     1       1.292   9.352  22.679  0.00  0.00    +0.000 OA
ENDROOT
BRANCH   1  10
ATOM      7  C   UNL     1      -2.609  13.340  21.844  0.00  0.00    +0.000 C 
ATOM      8  C   UNL     1      -2.167  12.965  20.430  0.00  0.00    +0.000 C 
ATOM      9  C   UNL     1      -1.825  11.484  20.281  0.00  0.00    +0.000 C 
ATOM     10  N   UNL     1      -0.877  11.000  21.274  0.00  0.00    +0.000 NA
ATOM     11  C   UNL     1      -1.254  11.305  22.646  0.00  0.00    +0.000 C 
ATOM     12  C   UNL     1      -1.655  12.762  22.896  0.00  0.00    +0.000 C 
BRANCH   7  13
ATOM     13  C   UNL     1      -4.073  12.953  22.085  0.00  0.00    +0.000 C 
ATOM     14  O   UNL     1      -4.446  12.458  23.144  0.00  0.00    +0.000 OA
BRANCH  13  18
ATOM     15  C   UNL     1      -6.984  13.600  18.973  0.00  0.00    +0.000 A 
ATOM     16  C   UNL     1      -6.324  14.670  19.578  0.00  0.00    +0.000 A 
ATOM     17  C   UNL     1      -5.370  14.443  20.574  0.00  0.00    +0.000 A 
ATOM     18  C   UNL     1      -5.074  13.136  20.988  0.00  0.00    +0.000 A 
ATOM     19  C   UNL     1      -5.747  12.068  20.387  0.00  0.00    +0.000 A 
ATOM     20  C   UNL     1      -6.696  12.300  19.386  0.00  0.00    +0.000 A 
BRANCH  15  22
ATOM     21  C   UNL     1      -7.410  14.492  16.821  0.00  0.00    +0.000 C 
ATOM     22  O   UNL     1      -7.917  13.943  18.033  0.00  0.00    +0.000 OA
ENDBRANCH  15  22
ENDBRANCH  13  18
ENDBRANCH   7  13
ENDBRANCH   1  10
BRANCH   4  23
ATOM     23  C   UNL     1       1.538   7.426  20.601  0.00  0.00    +0.000 C 
BRANCH  23  24
ATOM     24  C   UNL     1       2.367   6.666  19.576  0.00  0.00    +0.000 C 
ATOM     25  O   UNL     1       2.040   6.638  18.390  0.00  0.00    +0.000 OA
ATOM     26  N   UNL     1       3.412   5.949  20.125  0.00  0.00    +0.000 N 
ATOM     27  C   UNL     1       4.176   5.141  19.322  0.00  0.00    +0.000 A 
ATOM     28  N   UNL     1       4.615   3.936  19.639  0.00  0.00    +0.000 NA
ATOM     29  N   UNL     1       5.295   3.413  18.541  0.00  0.00    +0.000 NA
ATOM     30  C   UNL     1       5.290   4.349  17.634  0.00  0.00    +0.000 A 
ATOM     31  N   UNL     1       4.651   5.454  18.089  0.00  0.00    +0.000 N 
ATOM     32  C   UNL     1       4.922   6.685  17.388  0.00  0.00    +0.000 C 
ATOM     33  C   UNL     1       5.381   6.289  15.982  0.00  0.00    +0.000 C 
ATOM     34  S   UNL     1       6.053   4.580  16.117  0.00  0.00    +0.000 S 
ATOM     35  H   UNL     1       3.307   5.643  21.087  0.00  0.00    +0.000 HD
ENDBRANCH  23  24
ENDBRANCH   4  23
TORSDOF 6
ENDMDL
MODEL 9
REMARK VINA RESULT:      -7.6      4.299      7.129
REMARK  Name = 
REMARK  7 active torsions:
REMARK  status: ('A' for Active; 'I' for Inactive)
REMARK    1  A    between atoms: C_1  and  O_2
REMARK    2  A    between atoms: O_2  and  C_3
REMARK    3  A    between atoms: C_6  and  C_7
REMARK    4  A    between atoms: C_7  and  C_9
REMARK    5  A    between atoms: N_12  and  C_13
REMARK    6  A    between atoms: N_16  and  C_17
REMARK    7  A    between atoms: C_17  and  C_18
REMARK                            x       y       z     vdW  Elec       q    Type
REMARK                         _______ _______ _______ _____ _____    ______ ____
ROOT
ATOM      1  C   UNL     1       0.718   9.094  19.687  0.00  0.00    +0.000 C 
ATOM      2  C   UNL     1       0.435   9.857  18.392  0.00  0.00    +0.000 C 
ATOM      3  C   UNL     1       1.050  11.224  18.610  0.00  0.00    +0.000 C 
ATOM      4  N   UNL     1       0.929  11.452  20.030  0.00  0.00    +0.000 N 
ATOM      5  C   UNL     1       0.801  10.235  20.716  0.00  0.00    +0.000 C 
ATOM      6  O   UNL     1       0.845  10.114  21.931  0.00  0.00    +0.000 OA
ENDROOT
BRANCH   1  10
ATOM      7  C   UNL     1       2.343   5.505  18.742  0.00  0.00    +0.000 C 
ATOM      8  C   UNL     1       2.320   6.722  17.816  0.00  0.00    +0.000 C 
ATOM      9  C   UNL     1       2.696   8.022  18.525  0.00  0.00    +0.000 C 
ATOM     10  N   UNL     1       1.932   8.269  19.738  0.00  0.00    +0.000 NA
ATOM     11  C   UNL     1       1.934   7.154  20.674  0.00  0.00    +0.000 C 
ATOM     12  C   UNL     1       1.606   5.792  20.055  0.00  0.00    +0.000 C 
BRANCH   7  13
ATOM     13  C   UNL     1       3.776   5.002  18.955  0.00  0.00    +0.000 C 
ATOM     14  O   UNL     1       4.136   4.505  20.017  0.00  0.00    +0.000 OA
BRANCH  13  18
ATOM     15  C   UNL     1       6.652   5.334  15.762  0.00  0.00    +0.000 A 
ATOM     16  C   UNL     1       5.562   4.468  15.665  0.00  0.00    +0.000 A 
ATOM     17  C   UNL     1       4.628   4.384  16.702  0.00  0.00    +0.000 A 
ATOM     18  C   UNL     1       4.783   5.160  17.860  0.00  0.00    +0.000 A 
ATOM     19  C   UNL     1       5.882   6.018  17.957  0.00  0.00    +0.000 A 
ATOM     20  C   UNL     1       6.811   6.103  16.913  0.00  0.00    +0.000 A 
BRANCH  15  22
ATOM     21  C   UNL     1       7.065   4.614  13.544  0.00  0.00    +0.000 C 
ATOM     22  O   UNL     1       7.514   5.312  14.700  0.00  0.00    +0.000 OA
ENDBRANCH  15  22
ENDBRANCH  13  18
ENDBRANCH   7  13
ENDBRANCH   1  10
BRANCH   4  23
ATOM     23  C   UNL     1       1.676  12.526  20.673  0.00  0.00    +0.000 C 
BRANCH  23  24
ATOM     24  C   UNL     1       0.793  13.592  21.304  0.00  0.00    +0.000 C 
ATOM     25  O   UNL     1       1.228  14.341  22.178  0.00  0.00    +0.000 OA
ATOM     26  N   UNL     1      -0.523  13.546  20.885  0.00  0.00    +0.000 N 
ATOM     27  C   UNL     1      -1.445  14.388  21.452  0.00  0.00    +0.000 A 
ATOM     28  N   UNL     1      -2.679  14.061  21.792  0.00  0.00    +0.000 NA
ATOM     29  N   UNL     1      -3.277  15.167  22.394  0.00  0.00    +0.000 NA
ATOM     30  C   UNL     1      -2.399  16.128  22.335  0.00  0.00    +0.000 A 
ATOM     31  N   UNL     1      -1.268  15.709  21.717  0.00  0.00    +0.000 N 
ATOM     32  C   UNL     1      -0.395  16.738  21.210  0.00  0.00    +0.000 C 
ATOM     33  C   UNL     1      -0.694  17.998  22.027  0.00  0.00    +0.000 C 
ATOM     34  S   UNL     1      -2.411  17.810  22.664  0.00  0.00    +0.000 S 
ATOM     35  H   UNL     1      -0.878  12.646  20.576  0.00  0.00    +0.000 HD
ENDBRANCH  23  24
ENDBRANCH   4  23
TORSDOF 6
ENDMDL
