MODEL 1
REMARK VINA RESULT:      -6.7      0.000      0.000
REMARK  Name = 
REMARK  5 active torsions:
REMARK  status: ('A' for Active; 'I' for Inactive)
REMARK    1  A    between atoms: C_1  and  N_2
REMARK    2  A    between atoms: C_3  and  C_4
REMARK    3  A    between atoms: C_4  and  O_6
REMARK    4  A    between atoms: C_10  and  O_11
REMARK    5  A    between atoms: C_12  and  O_13
REMARK                            x       y       z     vdW  Elec       q    Type
REMARK                         _______ _______ _______ _____ _____    ______ ____
ROOT
ATOM      1  C   UNL     1       6.064   5.436  19.419  0.00  0.00    +0.000 C 
ATOM      2  N   UNL     1       5.349   4.701  18.393  0.00  0.00    +0.000 N 
ATOM      3  C   UNL     1       5.777   4.431  17.102  0.00  0.00    +0.000 A 
ATOM      4  C   UNL     1       4.759   3.693  16.509  0.00  0.00    +0.000 A 
ATOM      5  C   UNL     1       3.691   3.546  17.428  0.00  0.00    +0.000 A 
ATOM      6  C   UNL     1       2.434   2.909  17.359  0.00  0.00    +0.000 A 
ATOM      7  C   UNL     1       1.606   2.952  18.479  0.00  0.00    +0.000 A 
ATOM      8  C   UNL     1       2.008   3.602  19.639  0.00  0.00    +0.000 A 
ATOM      9  C   UNL     1       3.244   4.231  19.735  0.00  0.00    +0.000 A 
ATOM     10  C   UNL     1       4.077   4.188  18.604  0.00  0.00    +0.000 A 
ENDROOT
BRANCH   3  11
ATOM     11  C   UNL     1       7.057   4.814  16.539  0.00  0.00    +0.000 C 
ATOM     12  O   UNL     1       7.247   5.664  15.684  0.00  0.00    +0.000 OA
BRANCH  11  13
ATOM     13  O   UNL     1       8.082   4.096  17.067  0.00  0.00    +0.000 OA
ATOM     14  H   UNL     1       8.951   4.505  16.921  0.00  0.00    +0.000 HD
ENDBRANCH  11  13
ENDBRANCH   3  11
BRANCH   7  15
ATOM     15  O   UNL     1       0.372   2.358  18.478  0.00  0.00    +0.000 OA
ATOM     16  H   UNL     1      -0.284   3.021  18.759  0.00  0.00    +0.000 HD
ENDBRANCH   7  15
BRANCH   8  17
ATOM     17  O   UNL     1       1.174   3.625  20.724  0.00  0.00    +0.000 OA
ATOM     18  H   UNL     1       1.249   2.729  21.107  0.00  0.00    +0.000 HD
ENDBRANCH   8  17
TORSDOF 4
ENDMDL
MODEL 2
REMARK VINA RESULT:      -6.5      0.799      2.190
REMARK  Name = 
REMARK  5 active torsions:
REMARK  status: ('A' for Active; 'I' for Inactive)
REMARK    1  A    between atoms: C_1  and  N_2
REMARK    2  A    between atoms: C_3  and  C_4
REMARK    3  A    between atoms: C_4  and  O_6
REMARK    4  A    between atoms: C_10  and  O_11
REMARK    5  A    between atoms: C_12  and  O_13
REMARK                            x       y       z     vdW  Elec       q    Type
REMARK                         _______ _______ _______ _____ _____    ______ ____
ROOT
ATOM      1  C   UNL     1       5.145   3.676  15.798  0.00  0.00    +0.000 C 
ATOM      2  N   UNL     1       5.026   4.065  17.190  0.00  0.00    +0.000 N 
ATOM      3  C   UNL     1       5.994   4.673  17.977  0.00  0.00    +0.000 A 
ATOM      4  C   UNL     1       5.410   4.857  19.225  0.00  0.00    +0.000 A 
ATOM      5  C   UNL     1       4.098   4.325  19.211  0.00  0.00    +0.000 A 
ATOM      6  C   UNL     1       3.078   4.235  20.182  0.00  0.00    +0.000 A 
ATOM      7  C   UNL     1       1.871   3.638  19.824  0.00  0.00    +0.000 A 
ATOM      8  C   UNL     1       1.672   3.145  18.540  0.00  0.00    +0.000 A 
ATOM      9  C   UNL     1       2.658   3.227  17.563  0.00  0.00    +0.000 A 
ATOM     10  C   UNL     1       3.875   3.828  17.927  0.00  0.00    +0.000 A 
ENDROOT
BRANCH   3  11
ATOM     11  C   UNL     1       7.317   5.069  17.534  0.00  0.00    +0.000 C 
ATOM     12  O   UNL     1       7.624   6.142  17.040  0.00  0.00    +0.000 OA
BRANCH  11  13
ATOM     13  O   UNL     1       8.231   4.082  17.716  0.00  0.00    +0.000 OA
ATOM     14  H   UNL     1       8.674   4.125  18.580  0.00  0.00    +0.000 HD
ENDBRANCH  11  13
ENDBRANCH   3  11
BRANCH   7  15
ATOM     15  O   UNL     1       0.841   3.515  20.718  0.00  0.00    +0.000 OA
ATOM     16  H   UNL     1       1.116   3.925  21.557  0.00  0.00    +0.000 HD
ENDBRANCH   7  15
BRANCH   8  17
ATOM     17  O   UNL     1       0.475   2.566  18.217  0.00  0.00    +0.000 OA
ATOM     18  H   UNL     1      -0.160   2.948  18.855  0.00  0.00    +0.000 HD
ENDBRANCH   8  17
TORSDOF 4
ENDMDL
MODEL 3
REMARK VINA RESULT:      -6.4      1.527      5.494
REMARK  Name = 
REMARK  5 active torsions:
REMARK  status: ('A' for Active; 'I' for Inactive)
REMARK    1  A    between atoms: C_1  and  N_2
REMARK    2  A    between atoms: C_3  and  C_4
REMARK    3  A    between atoms: C_4  and  O_6
REMARK    4  A    between atoms: C_10  and  O_11
REMARK    5  A    between atoms: C_12  and  O_13
REMARK                            x       y       z     vdW  Elec       q    Type
REMARK                         _______ _______ _______ _____ _____    ______ ____
ROOT
ATOM      1  C   UNL     1       3.530   1.660  18.200  0.00  0.00    +0.000 C 
ATOM      2  N   UNL     1       3.243   3.081  18.144  0.00  0.00    +0.000 N 
ATOM      3  C   UNL     1       2.060   3.713  18.497  0.00  0.00    +0.000 A 
ATOM      4  C   UNL     1       2.273   5.070  18.283  0.00  0.00    +0.000 A 
ATOM      5  C   UNL     1       3.576   5.262  17.762  0.00  0.00    +0.000 A 
ATOM      6  C   UNL     1       4.302   6.405  17.365  0.00  0.00    +0.000 A 
ATOM      7  C   UNL     1       5.601   6.234  16.888  0.00  0.00    +0.000 A 
ATOM      8  C   UNL     1       6.171   4.969  16.808  0.00  0.00    +0.000 A 
ATOM      9  C   UNL     1       5.479   3.829  17.198  0.00  0.00    +0.000 A 
ATOM     10  C   UNL     1       4.169   4.003  17.677  0.00  0.00    +0.000 A 
ENDROOT
BRANCH   3  11
ATOM     11  C   UNL     1       0.879   3.060  19.028  0.00  0.00    +0.000 C 
ATOM     12  O   UNL     1       0.215   2.200  18.471  0.00  0.00    +0.000 OA
BRANCH  11  13
ATOM     13  O   UNL     1       0.552   3.521  20.262  0.00  0.00    +0.000 OA
ATOM     14  H   UNL     1      -0.406   3.552  20.419  0.00  0.00    +0.000 HD
ENDBRANCH  11  13
ENDBRANCH   3  11
BRANCH   7  15
ATOM     15  O   UNL     1       6.360   7.300  16.484  0.00  0.00    +0.000 OA
ATOM     16  H   UNL     1       7.053   7.450  17.151  0.00  0.00    +0.000 HD
ENDBRANCH   7  15
BRANCH   8  17
ATOM     17  O   UNL     1       7.449   4.833  16.338  0.00  0.00    +0.000 OA
ATOM     18  H   UNL     1       7.896   4.280  17.008  0.00  0.00    +0.000 HD
ENDBRANCH   8  17
TORSDOF 4
ENDMDL
MODEL 4
REMARK VINA RESULT:      -6.4      1.828      5.412
REMARK  Name = 
REMARK  5 active torsions:
REMARK  status: ('A' for Active; 'I' for Inactive)
REMARK    1  A    between atoms: C_1  and  N_2
REMARK    2  A    between atoms: C_3  and  C_4
REMARK    3  A    between atoms: C_4  and  O_6
REMARK    4  A    between atoms: C_10  and  O_11
REMARK    5  A    between atoms: C_12  and  O_13
REMARK                            x       y       z     vdW  Elec       q    Type
REMARK                         _______ _______ _______ _____ _____    ______ ____
ROOT
ATOM      1  C   UNL     1       3.370   1.600  18.764  0.00  0.00    +0.000 C 
ATOM      2  N   UNL     1       3.339   3.043  18.901  0.00  0.00    +0.000 N 
ATOM      3  C   UNL     1       2.733   3.778  19.910  0.00  0.00    +0.000 A 
ATOM      4  C   UNL     1       2.984   5.113  19.615  0.00  0.00    +0.000 A 
ATOM      5  C   UNL     1       3.712   5.194  18.402  0.00  0.00    +0.000 A 
ATOM      6  C   UNL     1       4.217   6.273  17.646  0.00  0.00    +0.000 A 
ATOM      7  C   UNL     1       4.911   5.993  16.470  0.00  0.00    +0.000 A 
ATOM      8  C   UNL     1       5.105   4.682  16.052  0.00  0.00    +0.000 A 
ATOM      9  C   UNL     1       4.622   3.601  16.782  0.00  0.00    +0.000 A 
ATOM     10  C   UNL     1       3.922   3.886  17.966  0.00  0.00    +0.000 A 
ENDROOT
BRANCH   3  11
ATOM     11  C   UNL     1       2.033   3.224  21.054  0.00  0.00    +0.000 C 
ATOM     12  O   UNL     1       2.535   2.876  22.111  0.00  0.00    +0.000 OA
BRANCH  11  13
ATOM     13  O   UNL     1       0.699   3.111  20.828  0.00  0.00    +0.000 OA
ATOM     14  H   UNL     1       0.178   3.816  21.247  0.00  0.00    +0.000 HD
ENDBRANCH  11  13
ENDBRANCH   3  11
BRANCH   7  15
ATOM     15  O   UNL     1       5.425   6.992  15.688  0.00  0.00    +0.000 OA
ATOM     16  H   UNL     1       4.726   7.292  15.081  0.00  0.00    +0.000 HD
ENDBRANCH   7  15
BRANCH   8  17
ATOM     17  O   UNL     1       5.792   4.437  14.894  0.00  0.00    +0.000 OA
ATOM     18  H   UNL     1       5.285   3.724  14.457  0.00  0.00    +0.000 HD
ENDBRANCH   8  17
TORSDOF 4
ENDMDL
MODEL 5
REMARK VINA RESULT:      -6.4      1.608      5.333
REMARK  Name = 
REMARK  5 active torsions:
REMARK  status: ('A' for Active; 'I' for Inactive)
REMARK    1  A    between atoms: C_1  and  N_2
REMARK    2  A    between atoms: C_3  and  C_4
REMARK    3  A    between atoms: C_4  and  O_6
REMARK    4  A    between atoms: C_10  and  O_11
REMARK    5  A    between atoms: C_12  and  O_13
REMARK                            x       y       z     vdW  Elec       q    Type
REMARK                         _______ _______ _______ _____ _____    ______ ____
ROOT
ATOM      1  C   UNL     1       3.764   2.510  20.266  0.00  0.00    +0.000 C 
ATOM      2  N   UNL     1       3.390   3.525  19.300  0.00  0.00    +0.000 N 
ATOM      3  C   UNL     1       2.127   3.762  18.778  0.00  0.00    +0.000 A 
ATOM      4  C   UNL     1       2.269   4.837  17.908  0.00  0.00    +0.000 A 
ATOM      5  C   UNL     1       3.629   5.232  17.871  0.00  0.00    +0.000 A 
ATOM      6  C   UNL     1       4.327   6.239  17.171  0.00  0.00    +0.000 A 
ATOM      7  C   UNL     1       5.700   6.360  17.375  0.00  0.00    +0.000 A 
ATOM      8  C   UNL     1       6.369   5.512  18.250  0.00  0.00    +0.000 A 
ATOM      9  C   UNL     1       5.703   4.516  18.956  0.00  0.00    +0.000 A 
ATOM     10  C   UNL     1       4.319   4.395  18.747  0.00  0.00    +0.000 A 
ENDROOT
BRANCH   3  11
ATOM     11  C   UNL     1       0.918   3.044  19.133  0.00  0.00    +0.000 C 
ATOM     12  O   UNL     1       0.361   2.189  18.464  0.00  0.00    +0.000 OA
BRANCH  11  13
ATOM     13  O   UNL     1       0.426   3.438  20.336  0.00  0.00    +0.000 OA
ATOM     14  H   UNL     1       1.038   3.271  21.073  0.00  0.00    +0.000 HD
ENDBRANCH  11  13
ENDBRANCH   3  11
BRANCH   7  15
ATOM     15  O   UNL     1       6.438   7.313  16.726  0.00  0.00    +0.000 OA
ATOM     16  H   UNL     1       7.060   6.861  16.129  0.00  0.00    +0.000 HD
ENDBRANCH   7  15
BRANCH   8  17
ATOM     17  O   UNL     1       7.717   5.656  18.432  0.00  0.00    +0.000 OA
ATOM     18  H   UNL     1       8.086   4.774  18.224  0.00  0.00    +0.000 HD
ENDBRANCH   8  17
TORSDOF 4
ENDMDL
MODEL 6
REMARK VINA RESULT:      -6.3      1.372      5.239
REMARK  Name = 
REMARK  5 active torsions:
REMARK  status: ('A' for Active; 'I' for Inactive)
REMARK    1  A    between atoms: C_1  and  N_2
REMARK    2  A    between atoms: C_3  and  C_4
REMARK    3  A    between atoms: C_4  and  O_6
REMARK    4  A    between atoms: C_10  and  O_11
REMARK    5  A    between atoms: C_12  and  O_13
REMARK                            x       y       z     vdW  Elec       q    Type
REMARK                         _______ _______ _______ _____ _____    ______ ____
ROOT
ATOM      1  C   UNL     1       3.504   5.486  19.756  0.00  0.00    +0.000 C 
ATOM      2  N   UNL     1       3.743   4.727  18.543  0.00  0.00    +0.000 N 
ATOM      3  C   UNL     1       3.024   3.635  18.080  0.00  0.00    +0.000 A 
ATOM      4  C   UNL     1       3.622   3.264  16.881  0.00  0.00    +0.000 A 
ATOM      5  C   UNL     1       4.732   4.108  16.631  0.00  0.00    +0.000 A 
ATOM      6  C   UNL     1       5.679   4.180  15.589  0.00  0.00    +0.000 A 
ATOM      7  C   UNL     1       6.665   5.162  15.653  0.00  0.00    +0.000 A 
ATOM      8  C   UNL     1       6.713   6.056  16.716  0.00  0.00    +0.000 A 
ATOM      9  C   UNL     1       5.787   6.011  17.752  0.00  0.00    +0.000 A 
ATOM     10  C   UNL     1       4.795   5.018  17.686  0.00  0.00    +0.000 A 
ENDROOT
BRANCH   3  11
ATOM     11  C   UNL     1       1.858   3.058  18.722  0.00  0.00    +0.000 C 
ATOM     12  O   UNL     1       0.970   3.670  19.293  0.00  0.00    +0.000 OA
BRANCH  11  13
ATOM     13  O   UNL     1       1.848   1.703  18.637  0.00  0.00    +0.000 OA
ATOM     14  H   UNL     1       1.728   1.377  17.729  0.00  0.00    +0.000 HD
ENDBRANCH  11  13
ENDBRANCH   3  11
BRANCH   7  15
ATOM     15  O   UNL     1       7.617   5.285  14.677  0.00  0.00    +0.000 OA
ATOM     16  H   UNL     1       7.477   6.134  14.220  0.00  0.00    +0.000 HD
ENDBRANCH   7  15
BRANCH   8  17
ATOM     17  O   UNL     1       7.691   7.013  16.751  0.00  0.00    +0.000 OA
ATOM     18  H   UNL     1       7.497   7.586  15.982  0.00  0.00    +0.000 HD
ENDBRANCH   8  17
TORSDOF 4
ENDMDL
MODEL 7
REMARK VINA RESULT:      -6.2      1.706      2.560
REMARK  Name = 
REMARK  5 active torsions:
REMARK  status: ('A' for Active; 'I' for Inactive)
REMARK    1  A    between atoms: C_1  and  N_2
REMARK    2  A    between atoms: C_3  and  C_4
REMARK    3  A    between atoms: C_4  and  O_6
REMARK    4  A    between atoms: C_10  and  O_11
REMARK    5  A    between atoms: C_12  and  O_13
REMARK                            x       y       z     vdW  Elec       q    Type
REMARK                         _______ _______ _______ _____ _____    ______ ____
ROOT
ATOM      1  C   UNL     1       5.291   3.701  16.026  0.00  0.00    +0.000 C 
ATOM      2  N   UNL     1       4.497   4.546  16.897  0.00  0.00    +0.000 N 
ATOM      3  C   UNL     1       4.622   5.916  17.081  0.00  0.00    +0.000 A 
ATOM      4  C   UNL     1       3.637   6.270  17.995  0.00  0.00    +0.000 A 
ATOM      5  C   UNL     1       2.934   5.108  18.399  0.00  0.00    +0.000 A 
ATOM      6  C   UNL     1       1.865   4.884  19.291  0.00  0.00    +0.000 A 
ATOM      7  C   UNL     1       1.399   3.581  19.456  0.00  0.00    +0.000 A 
ATOM      8  C   UNL     1       1.970   2.525  18.755  0.00  0.00    +0.000 A 
ATOM      9  C   UNL     1       3.021   2.721  17.866  0.00  0.00    +0.000 A 
ATOM     10  C   UNL     1       3.490   4.035  17.703  0.00  0.00    +0.000 A 
ENDROOT
BRANCH   3  11
ATOM     11  C   UNL     1       5.569   6.776  16.398  0.00  0.00    +0.000 C 
ATOM     12  O   UNL     1       6.581   7.262  16.877  0.00  0.00    +0.000 OA
BRANCH  11  13
ATOM     13  O   UNL     1       5.206   7.016  15.112  0.00  0.00    +0.000 OA
ATOM     14  H   UNL     1       4.933   6.214  14.635  0.00  0.00    +0.000 HD
ENDBRANCH  11  13
ENDBRANCH   3  11
BRANCH   7  15
ATOM     15  O   UNL     1       0.367   3.293  20.308  0.00  0.00    +0.000 OA
ATOM     16  H   UNL     1       0.491   2.387  20.641  0.00  0.00    +0.000 HD
ENDBRANCH   7  15
BRANCH   8  17
ATOM     17  O   UNL     1       1.490   1.257  18.936  0.00  0.00    +0.000 OA
ATOM     18  H   UNL     1       2.285   0.688  18.895  0.00  0.00    +0.000 HD
ENDBRANCH   8  17
TORSDOF 4
ENDMDL
MODEL 8
REMARK VINA RESULT:      -6.2      1.646      1.970
REMARK  Name = 
REMARK  5 active torsions:
REMARK  status: ('A' for Active; 'I' for Inactive)
REMARK    1  A    between atoms: C_1  and  N_2
REMARK    2  A    between atoms: C_3  and  C_4
REMARK    3  A    between atoms: C_4  and  O_6
REMARK    4  A    between atoms: C_10  and  O_11
REMARK    5  A    between atoms: C_12  and  O_13
REMARK                            x       y       z     vdW  Elec       q    Type
REMARK                         _______ _______ _______ _____ _____    ______ ____
ROOT
ATOM      1  C   UNL     1       3.391   7.304  18.009  0.00  0.00    +0.000 C 
ATOM      2  N   UNL     1       3.707   5.941  17.626  0.00  0.00    +0.000 N 
ATOM      3  C   UNL     1       4.706   5.522  16.759  0.00  0.00    +0.000 A 
ATOM      4  C   UNL     1       4.622   4.135  16.722  0.00  0.00    +0.000 A 
ATOM      5  C   UNL     1       3.546   3.709  17.538  0.00  0.00    +0.000 A 
ATOM      6  C   UNL     1       3.014   2.442  17.857  0.00  0.00    +0.000 A 
ATOM      7  C   UNL     1       1.923   2.378  18.721  0.00  0.00    +0.000 A 
ATOM      8  C   UNL     1       1.371   3.533  19.260  0.00  0.00    +0.000 A 
ATOM      9  C   UNL     1       1.880   4.793  18.967  0.00  0.00    +0.000 A 
ATOM     10  C   UNL     1       2.980   4.856  18.095  0.00  0.00    +0.000 A 
ENDROOT
BRANCH   3  11
ATOM     11  C   UNL     1       5.657   6.386  16.087  0.00  0.00    +0.000 C 
ATOM     12  O   UNL     1       6.802   6.616  16.443  0.00  0.00    +0.000 OA
BRANCH  11  13
ATOM     13  O   UNL     1       5.130   6.956  14.974  0.00  0.00    +0.000 OA
ATOM     14  H   UNL     1       5.722   6.913  14.204  0.00  0.00    +0.000 HD
ENDBRANCH  11  13
ENDBRANCH   3  11
BRANCH   7  15
ATOM     15  O   UNL     1       1.356   1.181  19.069  0.00  0.00    +0.000 OA
ATOM     16  H   UNL     1       0.481   1.360  19.456  0.00  0.00    +0.000 HD
ENDBRANCH   7  15
BRANCH   8  17
ATOM     17  O   UNL     1       0.301   3.439  20.108  0.00  0.00    +0.000 OA
ATOM     18  H   UNL     1      -0.376   2.958  19.591  0.00  0.00    +0.000 HD
ENDBRANCH   8  17
TORSDOF 4
ENDMDL
MODEL 9
REMARK VINA RESULT:      -6.2      1.637      5.443
REMARK  Name = 
REMARK  5 active torsions:
REMARK  status: ('A' for Active; 'I' for Inactive)
REMARK    1  A    between atoms: C_1  and  N_2
REMARK    2  A    between atoms: C_3  and  C_4
REMARK    3  A    between atoms: C_4  and  O_6
REMARK    4  A    between atoms: C_10  and  O_11
REMARK    5  A    between atoms: C_12  and  O_13
REMARK                            x       y       z     vdW  Elec       q    Type
REMARK                         _______ _______ _______ _____ _____    ______ ____
ROOT
ATOM      1  C   UNL     1       4.459   2.207  20.139  0.00  0.00    +0.000 C 
ATOM      2  N   UNL     1       3.924   3.469  19.663  0.00  0.00    +0.000 N 
ATOM      3  C   UNL     1       2.727   4.066  20.032  0.00  0.00    +0.000 A 
ATOM      4  C   UNL     1       2.661   5.259  19.322  0.00  0.00    +0.000 A 
ATOM      5  C   UNL     1       3.801   5.372  18.489  0.00  0.00    +0.000 A 
ATOM      6  C   UNL     1       4.238   6.351  17.572  0.00  0.00    +0.000 A 
ATOM      7  C   UNL     1       5.444   6.145  16.905  0.00  0.00    +0.000 A 
ATOM      8  C   UNL     1       6.203   5.004  17.139  0.00  0.00    +0.000 A 
ATOM      9  C   UNL     1       5.798   4.028  18.043  0.00  0.00    +0.000 A 
ATOM     10  C   UNL     1       4.580   4.237  18.713  0.00  0.00    +0.000 A 
ENDROOT
BRANCH   3  11
ATOM     11  C   UNL     1       1.788   3.543  21.005  0.00  0.00    +0.000 C 
ATOM     12  O   UNL     1       2.033   3.252  22.165  0.00  0.00    +0.000 OA
BRANCH  11  13
ATOM     13  O   UNL     1       0.545   3.387  20.481  0.00  0.00    +0.000 OA
ATOM     14  H   UNL     1      -0.160   3.423  21.149  0.00  0.00    +0.000 HD
ENDBRANCH  11  13
ENDBRANCH   3  11
BRANCH   7  15
ATOM     15  O   UNL     1       5.925   7.052  16.000  0.00  0.00    +0.000 OA
ATOM     16  H   UNL     1       5.572   7.930  16.232  0.00  0.00    +0.000 HD
ENDBRANCH   7  15
BRANCH   8  17
ATOM     17  O   UNL     1       7.385   4.831  16.471  0.00  0.00    +0.000 OA
ATOM     18  H   UNL     1       7.429   5.589  15.856  0.00  0.00    +0.000 HD
ENDBRANCH   8  17
TORSDOF 4
ENDMDL
