MODEL 1
REMARK VINA RESULT:      -7.5      0.000      0.000
REMARK  Name = 
REMARK  6 active torsions:
REMARK  status: ('A' for Active; 'I' for Inactive)
REMARK    1  A    between atoms: C_1  and  O_2
REMARK    2  A    between atoms: O_2  and  C_3
REMARK    3  A    between atoms: C_3  and  N_5
REMARK    4  A    between atoms: N_5  and  C_6
REMARK    5  A    between atoms: C_6  and  C_7
REMARK    6  A    between atoms: N_9  and  C_10
REMARK                            x       y       z     vdW  Elec       q    Type
REMARK                         _______ _______ _______ _____ _____    ______ ____
ROOT
ATOM      1  C   UNL     1       4.373   4.522  19.442  0.00  0.00    +0.000 C 
ATOM      2  C   UNL     1       4.026   5.926  18.985  0.00  0.00    +0.000 C 
ATOM      3  N   UNL     1       2.727   6.128  19.549  0.00  0.00    +0.000 N 
ATOM      4  C   UNL     1       2.195   4.921  19.959  0.00  0.00    +0.000 C 
ATOM      5  O   UNL     1       1.077   4.692  20.395  0.00  0.00    +0.000 OA
ATOM      6  O   UNL     1       3.112   3.921  19.774  0.00  0.00    +0.000 OA
ENDROOT
BRANCH   3   7
ATOM      7  C   UNL     1       2.146   7.405  19.710  0.00  0.00    +0.000 A 
ATOM      8  C   UNL     1       1.982   8.256  18.621  0.00  0.00    +0.000 A 
ATOM      9  C   UNL     1       1.261   9.447  18.749  0.00  0.00    +0.000 A 
ATOM     10  C   UNL     1       0.709   9.861  19.969  0.00  0.00    +0.000 A 
ATOM     11  C   UNL     1       0.967   9.041  21.090  0.00  0.00    +0.000 A 
ATOM     12  C   UNL     1       1.656   7.820  20.950  0.00  0.00    +0.000 A 
ATOM     13  S   UNL     1       0.423   9.446  22.756  0.00  0.00    +0.000 S 
ATOM     14  C   UNL     1      -0.889  10.631  22.338  0.00  0.00    +0.000 C 
ATOM     15  C   UNL     1      -0.397  11.640  21.306  0.00  0.00    +0.000 C 
ATOM     16  C   UNL     1      -1.487  12.659  20.960  0.00  0.00    +0.000 C 
ATOM     17  C   UNL     1      -1.652  12.652  19.447  0.00  0.00    +0.000 C 
ATOM     18  C   UNL     1      -0.632  11.674  18.886  0.00  0.00    +0.000 C 
ATOM     19  N   UNL     1      -0.069  10.999  20.039  0.00  0.00    +0.000 N 
ENDBRANCH   3   7
BRANCH   1  20
ATOM     20  C   UNL     1       5.056   3.712  18.356  0.00  0.00    +0.000 C 
BRANCH  20  21
ATOM     21  N   UNL     1       6.467   4.038  18.241  0.00  0.00    +0.000 N 
ATOM     22  H   UNL     1       7.147   3.512  18.783  0.00  0.00    +0.000 HD
BRANCH  21  23
ATOM     23  C   UNL     1       6.977   4.774  17.205  0.00  0.00    +0.000 C 
ATOM     24  S   UNL     1       6.622   4.412  15.629  0.00  0.00    +0.000 S 
BRANCH  23  26
ATOM     25  C   UNL     1       7.455   7.168  17.348  0.00  0.00    +0.000 C 
ATOM     26  O   UNL     1       7.770   5.791  17.616  0.00  0.00    +0.000 OA
ENDBRANCH  23  26
ENDBRANCH  21  23
ENDBRANCH  20  21
ENDBRANCH   1  20
TORSDOF 5
ENDMDL
MODEL 2
REMARK VINA RESULT:      -7.3      0.913      1.040
REMARK  Name = 
REMARK  6 active torsions:
REMARK  status: ('A' for Active; 'I' for Inactive)
REMARK    1  A    between atoms: C_1  and  O_2
REMARK    2  A    between atoms: O_2  and  C_3
REMARK    3  A    between atoms: C_3  and  N_5
REMARK    4  A    between atoms: N_5  and  C_6
REMARK    5  A    between atoms: C_6  and  C_7
REMARK    6  A    between atoms: N_9  and  C_10
REMARK                            x       y       z     vdW  Elec       q    Type
REMARK                         _______ _______ _______ _____ _____    ______ ____
ROOT
ATOM      1  C   UNL     1       4.202   4.572  19.562  0.00  0.00    +0.000 C 
ATOM      2  C   UNL     1       3.873   5.987  19.125  0.00  0.00    +0.000 C 
ATOM      3  N   UNL     1       2.576   6.197  19.690  0.00  0.00    +0.000 N 
ATOM      4  C   UNL     1       2.028   4.991  20.082  0.00  0.00    +0.000 C 
ATOM      5  O   UNL     1       0.906   4.770  20.512  0.00  0.00    +0.000 OA
ATOM      6  O   UNL     1       2.932   3.983  19.883  0.00  0.00    +0.000 OA
ENDROOT
BRANCH   3   7
ATOM      7  C   UNL     1       2.011   7.479  19.870  0.00  0.00    +0.000 A 
ATOM      8  C   UNL     1       1.855   8.347  18.793  0.00  0.00    +0.000 A 
ATOM      9  C   UNL     1       1.149   9.545  18.939  0.00  0.00    +0.000 A 
ATOM     10  C   UNL     1       0.604   9.949  20.165  0.00  0.00    +0.000 A 
ATOM     11  C   UNL     1       0.855   9.111  21.275  0.00  0.00    +0.000 A 
ATOM     12  C   UNL     1       1.528   7.884  21.116  0.00  0.00    +0.000 A 
ATOM     13  S   UNL     1       0.319   9.500  22.947  0.00  0.00    +0.000 S 
ATOM     14  C   UNL     1      -0.979  10.706  22.549  0.00  0.00    +0.000 C 
ATOM     15  C   UNL     1      -0.477  11.723  21.528  0.00  0.00    +0.000 C 
ATOM     16  C   UNL     1      -1.556  12.760  21.199  0.00  0.00    +0.000 C 
ATOM     17  C   UNL     1      -1.723  12.776  19.686  0.00  0.00    +0.000 C 
ATOM     18  C   UNL     1      -0.717  11.793  19.110  0.00  0.00    +0.000 C 
ATOM     19  N   UNL     1      -0.159  11.096  20.252  0.00  0.00    +0.000 N 
ENDBRANCH   3   7
BRANCH   1  20
ATOM     20  C   UNL     1       4.875   3.770  18.465  0.00  0.00    +0.000 C 
BRANCH  20  21
ATOM     21  N   UNL     1       6.282   4.108  18.330  0.00  0.00    +0.000 N 
ATOM     22  H   UNL     1       6.974   3.592  18.868  0.00  0.00    +0.000 HD
BRANCH  21  23
ATOM     23  C   UNL     1       6.773   4.841  17.283  0.00  0.00    +0.000 C 
ATOM     24  S   UNL     1       7.296   6.399  17.486  0.00  0.00    +0.000 S 
BRANCH  23  26
ATOM     25  C   UNL     1       6.993   4.804  14.848  0.00  0.00    +0.000 C 
ATOM     26  O   UNL     1       6.779   4.158  16.115  0.00  0.00    +0.000 OA
ENDBRANCH  23  26
ENDBRANCH  21  23
ENDBRANCH  20  21
ENDBRANCH   1  20
TORSDOF 5
ENDMDL
MODEL 3
REMARK VINA RESULT:      -7.3      1.212      1.319
REMARK  Name = 
REMARK  6 active torsions:
REMARK  status: ('A' for Active; 'I' for Inactive)
REMARK    1  A    between atoms: C_1  and  O_2
REMARK    2  A    between atoms: O_2  and  C_3
REMARK    3  A    between atoms: C_3  and  N_5
REMARK    4  A    between atoms: N_5  and  C_6
REMARK    5  A    between atoms: C_6  and  C_7
REMARK    6  A    between atoms: N_9  and  C_10
REMARK                            x       y       z     vdW  Elec       q    Type
REMARK                         _______ _______ _______ _____ _____    ______ ____
ROOT
ATOM      1  C   UNL     1       4.399   4.375  19.193  0.00  0.00    +0.000 C 
ATOM      2  C   UNL     1       4.335   5.890  19.203  0.00  0.00    +0.000 C 
ATOM      3  N   UNL     1       2.982   6.151  18.820  0.00  0.00    +0.000 N 
ATOM      4  C   UNL     1       2.411   5.010  18.289  0.00  0.00    +0.000 C 
ATOM      5  O   UNL     1       1.312   4.880  17.772  0.00  0.00    +0.000 OA
ATOM      6  O   UNL     1       3.293   3.967  18.373  0.00  0.00    +0.000 OA
ENDROOT
BRANCH   3   7
ATOM      7  C   UNL     1       2.342   7.391  19.042  0.00  0.00    +0.000 A 
ATOM      8  C   UNL     1       2.072   8.253  17.984  0.00  0.00    +0.000 A 
ATOM      9  C   UNL     1       1.295   9.400  18.180  0.00  0.00    +0.000 A 
ATOM     10  C   UNL     1       0.790   9.757  19.437  0.00  0.00    +0.000 A 
ATOM     11  C   UNL     1       1.154   8.930  20.523  0.00  0.00    +0.000 A 
ATOM     12  C   UNL     1       1.899   7.752  20.317  0.00  0.00    +0.000 A 
ATOM     13  S   UNL     1       0.682   9.269  22.225  0.00  0.00    +0.000 S 
ATOM     14  C   UNL     1      -0.714  10.388  21.907  0.00  0.00    +0.000 C 
ATOM     15  C   UNL     1      -0.335  11.444  20.873  0.00  0.00    +0.000 C 
ATOM     16  C   UNL     1      -1.497  12.408  20.612  0.00  0.00    +0.000 C 
ATOM     17  C   UNL     1      -1.745  12.423  19.109  0.00  0.00    +0.000 C 
ATOM     18  C   UNL     1      -0.706  11.515  18.472  0.00  0.00    +0.000 C 
ATOM     19  N   UNL     1      -0.044  10.849  19.576  0.00  0.00    +0.000 N 
ENDBRANCH   3   7
BRANCH   1  20
ATOM     20  C   UNL     1       5.694   3.854  18.600  0.00  0.00    +0.000 C 
BRANCH  20  21
ATOM     21  N   UNL     1       6.765   4.833  18.692  0.00  0.00    +0.000 N 
ATOM     22  H   UNL     1       7.325   4.882  19.539  0.00  0.00    +0.000 HD
BRANCH  21  23
ATOM     23  C   UNL     1       7.292   5.462  17.596  0.00  0.00    +0.000 C 
ATOM     24  S   UNL     1       7.504   7.104  17.559  0.00  0.00    +0.000 S 
BRANCH  23  26
ATOM     25  C   UNL     1       7.029   4.715  15.282  0.00  0.00    +0.000 C 
ATOM     26  O   UNL     1       7.607   4.608  16.594  0.00  0.00    +0.000 OA
ENDBRANCH  23  26
ENDBRANCH  21  23
ENDBRANCH  20  21
ENDBRANCH   1  20
TORSDOF 5
ENDMDL
MODEL 4
REMARK VINA RESULT:      -7.2      2.222      3.008
REMARK  Name = 
REMARK  6 active torsions:
REMARK  status: ('A' for Active; 'I' for Inactive)
REMARK    1  A    between atoms: C_1  and  O_2
REMARK    2  A    between atoms: O_2  and  C_3
REMARK    3  A    between atoms: C_3  and  N_5
REMARK    4  A    between atoms: N_5  and  C_6
REMARK    5  A    between atoms: C_6  and  C_7
REMARK    6  A    between atoms: N_9  and  C_10
REMARK                            x       y       z     vdW  Elec       q    Type
REMARK                         _______ _______ _______ _____ _____    ______ ____
ROOT
ATOM      1  C   UNL     1       5.907   4.626  17.723  0.00  0.00    +0.000 C 
ATOM      2  C   UNL     1       5.199   5.955  17.906  0.00  0.00    +0.000 C 
ATOM      3  N   UNL     1       3.859   5.558  18.212  0.00  0.00    +0.000 N 
ATOM      4  C   UNL     1       3.675   4.225  17.895  0.00  0.00    +0.000 C 
ATOM      5  O   UNL     1       2.644   3.572  17.929  0.00  0.00    +0.000 OA
ATOM      6  O   UNL     1       4.857   3.682  17.466  0.00  0.00    +0.000 OA
ENDROOT
BRANCH   3   7
ATOM      7  C   UNL     1       2.919   6.419  18.820  0.00  0.00    +0.000 A 
ATOM      8  C   UNL     1       2.298   6.066  20.015  0.00  0.00    +0.000 A 
ATOM      9  C   UNL     1       1.495   6.985  20.699  0.00  0.00    +0.000 A 
ATOM     10  C   UNL     1       1.245   8.273  20.207  0.00  0.00    +0.000 A 
ATOM     11  C   UNL     1       1.796   8.586  18.944  0.00  0.00    +0.000 A 
ATOM     12  C   UNL     1       2.640   7.675  18.279  0.00  0.00    +0.000 A 
ATOM     13  S   UNL     1       1.514  10.151  18.104  0.00  0.00    +0.000 S 
ATOM     14  C   UNL     1       1.001  11.145  19.535  0.00  0.00    +0.000 C 
ATOM     15  C   UNL     1      -0.034  10.397  20.369  0.00  0.00    +0.000 C 
ATOM     16  C   UNL     1      -0.493  11.233  21.568  0.00  0.00    +0.000 C 
ATOM     17  C   UNL     1      -0.298  10.383  22.816  0.00  0.00    +0.000 C 
ATOM     18  C   UNL     1       0.224   9.029  22.362  0.00  0.00    +0.000 C 
ATOM     19  N   UNL     1       0.518   9.180  20.951  0.00  0.00    +0.000 N 
ENDBRANCH   3   7
BRANCH   1  20
ATOM     20  C   UNL     1       6.877   4.644  16.556  0.00  0.00    +0.000 C 
BRANCH  20  21
ATOM     21  N   UNL     1       6.309   4.027  15.369  0.00  0.00    +0.000 N 
ATOM     22  H   UNL     1       5.423   3.533  15.438  0.00  0.00    +0.000 HD
BRANCH  21  23
ATOM     23  C   UNL     1       6.709   4.349  14.101  0.00  0.00    +0.000 C 
ATOM     24  S   UNL     1       6.063   3.601  12.772  0.00  0.00    +0.000 S 
BRANCH  23  26
ATOM     25  C   UNL     1       8.335   5.693  12.862  0.00  0.00    +0.000 C 
ATOM     26  O   UNL     1       7.656   5.316  14.073  0.00  0.00    +0.000 OA
ENDBRANCH  23  26
ENDBRANCH  21  23
ENDBRANCH  20  21
ENDBRANCH   1  20
TORSDOF 5
ENDMDL
MODEL 5
REMARK VINA RESULT:      -7.2      3.718      8.457
REMARK  Name = 
REMARK  6 active torsions:
REMARK  status: ('A' for Active; 'I' for Inactive)
REMARK    1  A    between atoms: C_1  and  O_2
REMARK    2  A    between atoms: O_2  and  C_3
REMARK    3  A    between atoms: C_3  and  N_5
REMARK    4  A    between atoms: N_5  and  C_6
REMARK    5  A    between atoms: C_6  and  C_7
REMARK    6  A    between atoms: N_9  and  C_10
REMARK                            x       y       z     vdW  Elec       q    Type
REMARK                         _______ _______ _______ _____ _____    ______ ____
ROOT
ATOM      1  C   UNL     1      -1.285  11.282  19.243  0.00  0.00    +0.000 C 
ATOM      2  C   UNL     1      -0.500  10.114  18.676  0.00  0.00    +0.000 C 
ATOM      3  N   UNL     1       0.527   9.922  19.652  0.00  0.00    +0.000 N 
ATOM      4  C   UNL     1       0.602  11.022  20.485  0.00  0.00    +0.000 C 
ATOM      5  O   UNL     1       1.416  11.255  21.366  0.00  0.00    +0.000 OA
ATOM      6  O   UNL     1      -0.386  11.915  20.167  0.00  0.00    +0.000 OA
ENDROOT
BRANCH   3   7
ATOM      7  C   UNL     1       1.279   8.731  19.757  0.00  0.00    +0.000 A 
ATOM      8  C   UNL     1       1.114   7.877  20.843  0.00  0.00    +0.000 A 
ATOM      9  C   UNL     1       1.734   6.624  20.865  0.00  0.00    +0.000 A 
ATOM     10  C   UNL     1       2.573   6.185  19.832  0.00  0.00    +0.000 A 
ATOM     11  C   UNL     1       2.816   7.100  18.783  0.00  0.00    +0.000 A 
ATOM     12  C   UNL     1       2.155   8.343  18.741  0.00  0.00    +0.000 A 
ATOM     13  S   UNL     1       3.932   6.759  17.414  0.00  0.00    +0.000 S 
ATOM     14  C   UNL     1       3.982   4.948  17.542  0.00  0.00    +0.000 C 
ATOM     15  C   UNL     1       4.207   4.515  18.987  0.00  0.00    +0.000 C 
ATOM     16  C   UNL     1       4.274   2.988  19.107  0.00  0.00    +0.000 C 
ATOM     17  C   UNL     1       3.257   2.571  20.161  0.00  0.00    +0.000 C 
ATOM     18  C   UNL     1       2.624   3.841  20.705  0.00  0.00    +0.000 C 
ATOM     19  N   UNL     1       3.099   4.909  19.848  0.00  0.00    +0.000 N 
ENDBRANCH   3   7
BRANCH   1  20
ATOM     20  C   UNL     1      -1.701  12.274  18.173  0.00  0.00    +0.000 C 
BRANCH  20  21
ATOM     21  N   UNL     1      -1.823  11.645  16.869  0.00  0.00    +0.000 N 
ATOM     22  H   UNL     1      -1.009  11.203  16.450  0.00  0.00    +0.000 HD
BRANCH  21  23
ATOM     23  C   UNL     1      -3.029  11.311  16.314  0.00  0.00    +0.000 C 
ATOM     24  S   UNL     1      -4.403  11.200  17.232  0.00  0.00    +0.000 S 
BRANCH  23  26
ATOM     25  C   UNL     1      -3.696  10.049  14.329  0.00  0.00    +0.000 C 
ATOM     26  O   UNL     1      -2.959  11.098  14.980  0.00  0.00    +0.000 OA
ENDBRANCH  23  26
ENDBRANCH  21  23
ENDBRANCH  20  21
ENDBRANCH   1  20
TORSDOF 5
ENDMDL
MODEL 6
REMARK VINA RESULT:      -7.1      1.071      1.086
REMARK  Name = 
REMARK  6 active torsions:
REMARK  status: ('A' for Active; 'I' for Inactive)
REMARK    1  A    between atoms: C_1  and  O_2
REMARK    2  A    between atoms: O_2  and  C_3
REMARK    3  A    between atoms: C_3  and  N_5
REMARK    4  A    between atoms: N_5  and  C_6
REMARK    5  A    between atoms: C_6  and  C_7
REMARK    6  A    between atoms: N_9  and  C_10
REMARK                            x       y       z     vdW  Elec       q    Type
REMARK                         _______ _______ _______ _____ _____    ______ ____
ROOT
ATOM      1  C   UNL     1       4.103   3.958  18.722  0.00  0.00    +0.000 C 
ATOM      2  C   UNL     1       4.175   5.470  18.815  0.00  0.00    +0.000 C 
ATOM      3  N   UNL     1       2.843   5.870  18.482  0.00  0.00    +0.000 N 
ATOM      4  C   UNL     1       2.161   4.815  17.906  0.00  0.00    +0.000 C 
ATOM      5  O   UNL     1       1.045   4.812  17.411  0.00  0.00    +0.000 OA
ATOM      6  O   UNL     1       2.948   3.695  17.911  0.00  0.00    +0.000 OA
ENDROOT
BRANCH   3   7
ATOM      7  C   UNL     1       2.322   7.147  18.787  0.00  0.00    +0.000 A 
ATOM      8  C   UNL     1       2.074   8.075  17.779  0.00  0.00    +0.000 A 
ATOM      9  C   UNL     1       1.407   9.271  18.061  0.00  0.00    +0.000 A 
ATOM     10  C   UNL     1       0.996   9.613  19.356  0.00  0.00    +0.000 A 
ATOM     11  C   UNL     1       1.342   8.712  20.388  0.00  0.00    +0.000 A 
ATOM     12  C   UNL     1       1.974   7.487  20.096  0.00  0.00    +0.000 A 
ATOM     13  S   UNL     1       0.983   9.013  22.124  0.00  0.00    +0.000 S 
ATOM     14  C   UNL     1      -0.327  10.256  21.924  0.00  0.00    +0.000 C 
ATOM     15  C   UNL     1       0.089  11.321  20.915  0.00  0.00    +0.000 C 
ATOM     16  C   UNL     1      -0.999  12.389  20.753  0.00  0.00    +0.000 C 
ATOM     17  C   UNL     1      -1.317  12.490  19.268  0.00  0.00    +0.000 C 
ATOM     18  C   UNL     1      -0.391  11.529  18.541  0.00  0.00    +0.000 C 
ATOM     19  N   UNL     1       0.265  10.762  19.581  0.00  0.00    +0.000 N 
ENDBRANCH   3   7
BRANCH   1  20
ATOM     20  C   UNL     1       5.334   3.359  18.069  0.00  0.00    +0.000 C 
BRANCH  20  21
ATOM     21  N   UNL     1       6.474   4.257  18.133  0.00  0.00    +0.000 N 
ATOM     22  H   UNL     1       7.074   4.246  18.954  0.00  0.00    +0.000 HD
BRANCH  21  23
ATOM     23  C   UNL     1       6.995   4.876  17.029  0.00  0.00    +0.000 C 
ATOM     24  S   UNL     1       6.660   4.341  15.497  0.00  0.00    +0.000 S 
BRANCH  23  26
ATOM     25  C   UNL     1       7.845   6.488  18.661  0.00  0.00    +0.000 C 
ATOM     26  O   UNL     1       7.779   5.936  17.334  0.00  0.00    +0.000 OA
ENDBRANCH  23  26
ENDBRANCH  21  23
ENDBRANCH  20  21
ENDBRANCH   1  20
TORSDOF 5
ENDMDL
MODEL 7
REMARK VINA RESULT:      -7.1      2.142      3.335
REMARK  Name = 
REMARK  6 active torsions:
REMARK  status: ('A' for Active; 'I' for Inactive)
REMARK    1  A    between atoms: C_1  and  O_2
REMARK    2  A    between atoms: O_2  and  C_3
REMARK    3  A    between atoms: C_3  and  N_5
REMARK    4  A    between atoms: N_5  and  C_6
REMARK    5  A    between atoms: C_6  and  C_7
REMARK    6  A    between atoms: N_9  and  C_10
REMARK                            x       y       z     vdW  Elec       q    Type
REMARK                         _______ _______ _______ _____ _____    ______ ____
ROOT
ATOM      1  C   UNL     1       2.680   3.951  17.325  0.00  0.00    +0.000 C 
ATOM      2  C   UNL     1       1.912   4.897  18.228  0.00  0.00    +0.000 C 
ATOM      3  N   UNL     1       2.739   6.064  18.239  0.00  0.00    +0.000 N 
ATOM      4  C   UNL     1       3.993   5.760  17.743  0.00  0.00    +0.000 C 
ATOM      5  O   UNL     1       4.983   6.474  17.692  0.00  0.00    +0.000 OA
ATOM      6  O   UNL     1       4.023   4.459  17.320  0.00  0.00    +0.000 OA
ENDROOT
BRANCH   3   7
ATOM      7  C   UNL     1       2.274   7.337  18.637  0.00  0.00    +0.000 A 
ATOM      8  C   UNL     1       2.052   8.340  17.699  0.00  0.00    +0.000 A 
ATOM      9  C   UNL     1       1.438   9.540  18.071  0.00  0.00    +0.000 A 
ATOM     10  C   UNL     1       1.058   9.809  19.393  0.00  0.00    +0.000 A 
ATOM     11  C   UNL     1       1.380   8.826  20.356  0.00  0.00    +0.000 A 
ATOM     12  C   UNL     1       1.958   7.600  19.972  0.00  0.00    +0.000 A 
ATOM     13  S   UNL     1       1.057   9.023  22.114  0.00  0.00    +0.000 S 
ATOM     14  C   UNL     1      -0.204  10.327  22.020  0.00  0.00    +0.000 C 
ATOM     15  C   UNL     1       0.241  11.442  21.078  0.00  0.00    +0.000 C 
ATOM     16  C   UNL     1      -0.804  12.560  21.006  0.00  0.00    +0.000 C 
ATOM     17  C   UNL     1      -1.138  12.775  19.536  0.00  0.00    +0.000 C 
ATOM     18  C   UNL     1      -0.261  11.830  18.731  0.00  0.00    +0.000 C 
ATOM     19  N   UNL     1       0.378  10.969  19.707  0.00  0.00    +0.000 N 
ENDBRANCH   3   7
BRANCH   1  20
ATOM     20  C   UNL     1       2.674   2.525  17.843  0.00  0.00    +0.000 C 
BRANCH  20  21
ATOM     21  N   UNL     1       2.280   2.456  19.240  0.00  0.00    +0.000 N 
ATOM     22  H   UNL     1       1.331   2.182  19.478  0.00  0.00    +0.000 HD
BRANCH  21  23
ATOM     23  C   UNL     1       3.185   2.407  20.265  0.00  0.00    +0.000 C 
ATOM     24  S   UNL     1       4.792   2.115  19.989  0.00  0.00    +0.000 S 
BRANCH  23  26
ATOM     25  C   UNL     1       1.219   2.874  21.643  0.00  0.00    +0.000 C 
ATOM     26  O   UNL     1       2.625   2.621  21.479  0.00  0.00    +0.000 OA
ENDBRANCH  23  26
ENDBRANCH  21  23
ENDBRANCH  20  21
ENDBRANCH   1  20
TORSDOF 5
ENDMDL
MODEL 8
REMARK VINA RESULT:      -7.1      2.301      3.486
REMARK  Name = 
REMARK  6 active torsions:
REMARK  status: ('A' for Active; 'I' for Inactive)
REMARK    1  A    between atoms: C_1  and  O_2
REMARK    2  A    between atoms: O_2  and  C_3
REMARK    3  A    between atoms: C_3  and  N_5
REMARK    4  A    between atoms: N_5  and  C_6
REMARK    5  A    between atoms: C_6  and  C_7
REMARK    6  A    between atoms: N_9  and  C_10
REMARK                            x       y       z     vdW  Elec       q    Type
REMARK                         _______ _______ _______ _____ _____    ______ ____
ROOT
ATOM      1  C   UNL     1       3.553   4.305  17.331  0.00  0.00    +0.000 C 
ATOM      2  C   UNL     1       2.669   5.095  18.277  0.00  0.00    +0.000 C 
ATOM      3  N   UNL     1       3.192   6.421  18.163  0.00  0.00    +0.000 N 
ATOM      4  C   UNL     1       4.431   6.392  17.552  0.00  0.00    +0.000 C 
ATOM      5  O   UNL     1       5.213   7.313  17.374  0.00  0.00    +0.000 OA
ATOM      6  O   UNL     1       4.730   5.111  17.171  0.00  0.00    +0.000 OA
ENDROOT
BRANCH   3   7
ATOM      7  C   UNL     1       2.476   7.571  18.565  0.00  0.00    +0.000 A 
ATOM      8  C   UNL     1       2.033   8.498  17.628  0.00  0.00    +0.000 A 
ATOM      9  C   UNL     1       1.186   9.545  18.006  0.00  0.00    +0.000 A 
ATOM     10  C   UNL     1       0.778   9.737  19.333  0.00  0.00    +0.000 A 
ATOM     11  C   UNL     1       1.315   8.851  20.293  0.00  0.00    +0.000 A 
ATOM     12  C   UNL     1       2.132   7.771  19.904  0.00  0.00    +0.000 A 
ATOM     13  S   UNL     1       0.985   8.987  22.056  0.00  0.00    +0.000 S 
ATOM     14  C   UNL     1      -0.523   9.996  21.978  0.00  0.00    +0.000 C 
ATOM     15  C   UNL     1      -0.337  11.173  21.026  0.00  0.00    +0.000 C 
ATOM     16  C   UNL     1      -1.595  12.046  20.967  0.00  0.00    +0.000 C 
ATOM     17  C   UNL     1      -1.989  12.176  19.502  0.00  0.00    +0.000 C 
ATOM     18  C   UNL     1      -0.946  11.431  18.686  0.00  0.00    +0.000 C 
ATOM     19  N   UNL     1      -0.125  10.730  19.654  0.00  0.00    +0.000 N 
ENDBRANCH   3   7
BRANCH   1  20
ATOM     20  C   UNL     1       3.935   2.949  17.894  0.00  0.00    +0.000 C 
BRANCH  20  21
ATOM     21  N   UNL     1       3.788   2.899  19.339  0.00  0.00    +0.000 N 
ATOM     22  H   UNL     1       4.436   3.419  19.925  0.00  0.00    +0.000 HD
BRANCH  21  23
ATOM     23  C   UNL     1       2.639   2.480  19.954  0.00  0.00    +0.000 C 
ATOM     24  S   UNL     1       2.328   2.833  21.541  0.00  0.00    +0.000 S 
BRANCH  23  26
ATOM     25  C   UNL     1       0.507   2.227  18.782  0.00  0.00    +0.000 C 
ATOM     26  O   UNL     1       1.826   1.773  19.134  0.00  0.00    +0.000 OA
ENDBRANCH  23  26
ENDBRANCH  21  23
ENDBRANCH  20  21
ENDBRANCH   1  20
TORSDOF 5
ENDMDL
MODEL 9
REMARK VINA RESULT:      -7.0      1.667      1.729
REMARK  Name = 
REMARK  6 active torsions:
REMARK  status: ('A' for Active; 'I' for Inactive)
REMARK    1  A    between atoms: C_1  and  O_2
REMARK    2  A    between atoms: O_2  and  C_3
REMARK    3  A    between atoms: C_3  and  N_5
REMARK    4  A    between atoms: N_5  and  C_6
REMARK    5  A    between atoms: C_6  and  C_7
REMARK    6  A    between atoms: N_9  and  C_10
REMARK                            x       y       z     vdW  Elec       q    Type
REMARK                         _______ _______ _______ _____ _____    ______ ____
ROOT
ATOM      1  C   UNL     1       4.932   4.804  17.981  0.00  0.00    +0.000 C 
ATOM      2  C   UNL     1       4.385   6.184  17.668  0.00  0.00    +0.000 C 
ATOM      3  N   UNL     1       3.148   6.203  18.385  0.00  0.00    +0.000 N 
ATOM      4  C   UNL     1       2.799   4.920  18.764  0.00  0.00    +0.000 C 
ATOM      5  O   UNL     1       1.772   4.540  19.303  0.00  0.00    +0.000 OA
ATOM      6  O   UNL     1       3.790   4.045  18.407  0.00  0.00    +0.000 OA
ENDROOT
BRANCH   3   7
ATOM      7  C   UNL     1       2.457   7.394  18.702  0.00  0.00    +0.000 A 
ATOM      8  C   UNL     1       2.020   8.253  17.697  0.00  0.00    +0.000 A 
ATOM      9  C   UNL     1       1.197   9.342  17.999  0.00  0.00    +0.000 A 
ATOM     10  C   UNL     1       0.807   9.645  19.311  0.00  0.00    +0.000 A 
ATOM     11  C   UNL     1       1.338   8.827  20.333  0.00  0.00    +0.000 A 
ATOM     12  C   UNL     1       2.130   7.705  20.023  0.00  0.00    +0.000 A 
ATOM     13  S   UNL     1       1.029   9.109  22.083  0.00  0.00    +0.000 S 
ATOM     14  C   UNL     1      -0.462  10.137  21.939  0.00  0.00    +0.000 C 
ATOM     15  C   UNL     1      -0.264  11.231  20.895  0.00  0.00    +0.000 C 
ATOM     16  C   UNL     1      -1.507  12.120  20.779  0.00  0.00    +0.000 C 
ATOM     17  C   UNL     1      -1.915  12.142  19.312  0.00  0.00    +0.000 C 
ATOM     18  C   UNL     1      -0.894  11.315  18.548  0.00  0.00    +0.000 C 
ATOM     19  N   UNL     1      -0.076  10.677  19.561  0.00  0.00    +0.000 N 
ENDBRANCH   3   7
BRANCH   1  20
ATOM     20  C   UNL     1       5.563   4.144  16.770  0.00  0.00    +0.000 C 
BRANCH  20  21
ATOM     21  N   UNL     1       6.365   5.078  15.999  0.00  0.00    +0.000 N 
ATOM     22  H   UNL     1       6.957   5.748  16.484  0.00  0.00    +0.000 HD
BRANCH  21  23
ATOM     23  C   UNL     1       6.640   4.900  14.670  0.00  0.00    +0.000 C 
ATOM     24  S   UNL     1       5.700   3.928  13.714  0.00  0.00    +0.000 S 
BRANCH  23  26
ATOM     25  C   UNL     1       8.262   5.460  12.926  0.00  0.00    +0.000 C 
ATOM     26  O   UNL     1       7.727   5.591  14.255  0.00  0.00    +0.000 OA
ENDBRANCH  23  26
ENDBRANCH  21  23
ENDBRANCH  20  21
ENDBRANCH   1  20
TORSDOF 5
ENDMDL
