MODEL 1
REMARK VINA RESULT:      -6.6      0.000      0.000
REMARK  Name = 
REMARK  2 active torsions:
REMARK  status: ('A' for Active; 'I' for Inactive)
REMARK    1  A    between atoms: C_2  and  C_3
REMARK    2  A    between atoms: C_3  and  C_4
REMARK                            x       y       z     vdW  Elec       q    Type
REMARK                         _______ _______ _______ _____ _____    ______ ____
ROOT
ATOM      1  O   UNL     1       7.784  12.584  22.318  0.00  0.00    +0.000 OA
ATOM      2  C   UNL     1       8.493  13.511  22.721  0.00  0.00    +0.000 C 
ATOM      3  N   UNL     1       8.228  14.153  23.940  0.00  0.00    +0.000 N 
ATOM      4  C   UNL     1       8.956  15.239  24.648  0.00  0.00    +0.000 C 
ATOM      5  C   UNL     1      10.068  16.080  24.004  0.00  0.00    +0.000 C 
ATOM      6  O   UNL     1       9.559  16.827  22.906  0.00  0.00    +0.000 OA
ATOM      7  C   UNL     1      10.580  17.259  21.999  0.00  0.00    +0.000 C 
ATOM      8  C   UNL     1       9.929  17.888  20.762  0.00  0.00    +0.000 C 
ATOM      9  O   UNL     1       9.291  16.899  19.937  0.00  0.00    +0.000 OA
ATOM     10  C   UNL     1       8.561  17.507  18.861  0.00  0.00    +0.000 C 
ATOM     11  C   UNL     1       7.832  16.467  17.998  0.00  0.00    +0.000 C 
ATOM     12  O   UNL     1       6.763  15.816  18.688  0.00  0.00    +0.000 OA
ATOM     13  C   UNL     1       5.507  16.492  18.575  0.00  0.00    +0.000 C 
ATOM     14  C   UNL     1       4.440  15.727  19.360  0.00  0.00    +0.000 C 
ATOM     15  O   UNL     1       4.584  15.991  20.758  0.00  0.00    +0.000 OA
ATOM     16  C   UNL     1       3.707  15.176  21.545  0.00  0.00    +0.000 C 
ATOM     17  C   UNL     1       4.124  15.256  23.012  0.00  0.00    +0.000 C 
ATOM     18  O   UNL     1       5.274  14.430  23.209  0.00  0.00    +0.000 OA
ATOM     19  C   UNL     1       5.797  14.526  24.529  0.00  0.00    +0.000 C 
ATOM     20  C   UNL     1       7.051  13.649  24.678  0.00  0.00    +0.000 C 
ENDROOT
BRANCH   2  21
ATOM     21  C   UNL     1       9.708  13.936  21.916  0.00  0.00    +0.000 C 
BRANCH  21  22
ATOM     22  C   UNL     1      10.024  13.258  20.565  0.00  0.00    +0.000 C 
ATOM     23  C   UNL     1       8.857  13.359  19.559  0.00  0.00    +0.000 C 
ATOM     24  C   UNL     1       9.229  12.722  18.210  0.00  0.00    +0.000 C 
ATOM     25  C   UNL     1      10.454  13.431  17.606  0.00  0.00    +0.000 C 
ATOM     26  C   UNL     1      11.637  13.343  18.578  0.00  0.00    +0.000 C 
ATOM     27  C   UNL     1      11.984  11.866  18.815  0.00  0.00    +0.000 C 
ATOM     28  C   UNL     1      10.774  11.131  19.412  0.00  0.00    +0.000 C 
ATOM     29  C   UNL     1       9.573  11.243  18.456  0.00  0.00    +0.000 C 
ATOM     30  C   UNL     1      10.411  11.775  20.758  0.00  0.00    +0.000 C 
ATOM     31  C   UNL     1      11.241  13.993  19.916  0.00  0.00    +0.000 C 
ENDBRANCH  21  22
ENDBRANCH   2  21
TORSDOF 2
ENDMDL
MODEL 2
REMARK VINA RESULT:      -6.6      2.260      6.937
REMARK  Name = 
REMARK  2 active torsions:
REMARK  status: ('A' for Active; 'I' for Inactive)
REMARK    1  A    between atoms: C_2  and  C_3
REMARK    2  A    between atoms: C_3  and  C_4
REMARK                            x       y       z     vdW  Elec       q    Type
REMARK                         _______ _______ _______ _____ _____    ______ ____
ROOT
ATOM      1  O   UNL     1       7.569  15.763  17.450  0.00  0.00    +0.000 OA
ATOM      2  C   UNL     1       7.505  16.007  18.658  0.00  0.00    +0.000 C 
ATOM      3  N   UNL     1       8.160  17.118  19.210  0.00  0.00    +0.000 N 
ATOM      4  C   UNL     1       8.189  17.640  20.602  0.00  0.00    +0.000 C 
ATOM      5  C   UNL     1       7.670  16.856  21.817  0.00  0.00    +0.000 C 
ATOM      6  O   UNL     1       8.425  15.666  22.005  0.00  0.00    +0.000 OA
ATOM      7  C   UNL     1       7.741  14.687  22.796  0.00  0.00    +0.000 C 
ATOM      8  C   UNL     1       8.541  13.379  22.790  0.00  0.00    +0.000 C 
ATOM      9  O   UNL     1       8.481  12.726  21.512  0.00  0.00    +0.000 OA
ATOM     10  C   UNL     1       9.348  11.582  21.468  0.00  0.00    +0.000 C 
ATOM     11  C   UNL     1       9.333  10.900  20.092  0.00  0.00    +0.000 C 
ATOM     12  O   UNL     1       9.924  11.699  19.064  0.00  0.00    +0.000 OA
ATOM     13  C   UNL     1      11.333  11.505  18.920  0.00  0.00    +0.000 C 
ATOM     14  C   UNL     1      11.867  12.416  17.813  0.00  0.00    +0.000 C 
ATOM     15  O   UNL     1      11.987  13.754  18.301  0.00  0.00    +0.000 OA
ATOM     16  C   UNL     1      12.333  14.671  17.256  0.00  0.00    +0.000 C 
ATOM     17  C   UNL     1      12.130  16.102  17.751  0.00  0.00    +0.000 C 
ATOM     18  O   UNL     1      10.733  16.404  17.725  0.00  0.00    +0.000 OA
ATOM     19  C   UNL     1      10.439  17.684  18.270  0.00  0.00    +0.000 C 
ATOM     20  C   UNL     1       8.924  17.945  18.252  0.00  0.00    +0.000 C 
ENDROOT
BRANCH   2  21
ATOM     21  C   UNL     1       6.663  15.127  19.564  0.00  0.00    +0.000 C 
BRANCH  21  22
ATOM     22  C   UNL     1       5.121  15.209  19.516  0.00  0.00    +0.000 C 
ATOM     23  C   UNL     1       4.452  14.621  20.778  0.00  0.00    +0.000 C 
ATOM     24  C   UNL     1       2.924  14.771  20.717  0.00  0.00    +0.000 C 
ATOM     25  C   UNL     1       2.538  16.257  20.610  0.00  0.00    +0.000 C 
ATOM     26  C   UNL     1       3.180  16.872  19.361  0.00  0.00    +0.000 C 
ATOM     27  C   UNL     1       2.666  16.133  18.116  0.00  0.00    +0.000 C 
ATOM     28  C   UNL     1       3.032  14.644  18.200  0.00  0.00    +0.000 C 
ATOM     29  C   UNL     1       2.417  14.028  19.470  0.00  0.00    +0.000 C 
ATOM     30  C   UNL     1       4.560  14.506  18.260  0.00  0.00    +0.000 C 
ATOM     31  C   UNL     1       4.709  16.714  19.449  0.00  0.00    +0.000 C 
ENDBRANCH  21  22
ENDBRANCH   2  21
TORSDOF 2
ENDMDL
MODEL 3
REMARK VINA RESULT:      -6.6      2.265      6.930
REMARK  Name = 
REMARK  2 active torsions:
REMARK  status: ('A' for Active; 'I' for Inactive)
REMARK    1  A    between atoms: C_2  and  C_3
REMARK    2  A    between atoms: C_3  and  C_4
REMARK                            x       y       z     vdW  Elec       q    Type
REMARK                         _______ _______ _______ _____ _____    ______ ____
ROOT
ATOM      1  O   UNL     1       7.567  15.747  17.432  0.00  0.00    +0.000 OA
ATOM      2  C   UNL     1       7.505  16.004  18.637  0.00  0.00    +0.000 C 
ATOM      3  N   UNL     1       8.163  17.118  19.177  0.00  0.00    +0.000 N 
ATOM      4  C   UNL     1       8.194  17.654  20.564  0.00  0.00    +0.000 C 
ATOM      5  C   UNL     1       7.675  16.884  21.787  0.00  0.00    +0.000 C 
ATOM      6  O   UNL     1       8.427  15.694  21.987  0.00  0.00    +0.000 OA
ATOM      7  C   UNL     1       7.742  14.725  22.788  0.00  0.00    +0.000 C 
ATOM      8  C   UNL     1       8.538  13.415  22.796  0.00  0.00    +0.000 C 
ATOM      9  O   UNL     1       8.476  12.749  21.524  0.00  0.00    +0.000 OA
ATOM     10  C   UNL     1       9.339  11.603  21.491  0.00  0.00    +0.000 C 
ATOM     11  C   UNL     1       9.322  10.907  20.121  0.00  0.00    +0.000 C 
ATOM     12  O   UNL     1       9.913  11.693  19.086  0.00  0.00    +0.000 OA
ATOM     13  C   UNL     1      11.322  11.495  18.942  0.00  0.00    +0.000 C 
ATOM     14  C   UNL     1      11.858  12.393  17.825  0.00  0.00    +0.000 C 
ATOM     15  O   UNL     1      11.981  13.736  18.299  0.00  0.00    +0.000 OA
ATOM     16  C   UNL     1      12.329  14.641  17.245  0.00  0.00    +0.000 C 
ATOM     17  C   UNL     1      12.129  16.077  17.725  0.00  0.00    +0.000 C 
ATOM     18  O   UNL     1      10.733  16.382  17.697  0.00  0.00    +0.000 OA
ATOM     19  C   UNL     1      10.442  17.669  18.229  0.00  0.00    +0.000 C 
ATOM     20  C   UNL     1       8.928  17.933  18.210  0.00  0.00    +0.000 C 
ENDROOT
BRANCH   2  21
ATOM     21  C   UNL     1       6.661  15.134  19.553  0.00  0.00    +0.000 C 
BRANCH  21  22
ATOM     22  C   UNL     1       5.122  15.266  19.552  0.00  0.00    +0.000 C 
ATOM     23  C   UNL     1       4.649  16.735  19.495  0.00  0.00    +0.000 C 
ATOM     24  C   UNL     1       3.115  16.822  19.440  0.00  0.00    +0.000 C 
ATOM     25  C   UNL     1       2.584  16.091  18.194  0.00  0.00    +0.000 C 
ATOM     26  C   UNL     1       3.030  14.625  18.223  0.00  0.00    +0.000 C 
ATOM     27  C   UNL     1       2.458  13.949  19.478  0.00  0.00    +0.000 C 
ATOM     28  C   UNL     1       2.967  14.665  20.738  0.00  0.00    +0.000 C 
ATOM     29  C   UNL     1       2.550  16.146  20.700  0.00  0.00    +0.000 C 
ATOM     30  C   UNL     1       4.499  14.571  20.782  0.00  0.00    +0.000 C 
ATOM     31  C   UNL     1       4.567  14.565  18.271  0.00  0.00    +0.000 C 
ENDBRANCH  21  22
ENDBRANCH   2  21
TORSDOF 2
ENDMDL
MODEL 4
REMARK VINA RESULT:      -6.5      2.261      6.958
REMARK  Name = 
REMARK  2 active torsions:
REMARK  status: ('A' for Active; 'I' for Inactive)
REMARK    1  A    between atoms: C_2  and  C_3
REMARK    2  A    between atoms: C_3  and  C_4
REMARK                            x       y       z     vdW  Elec       q    Type
REMARK                         _______ _______ _______ _____ _____    ______ ____
ROOT
ATOM      1  O   UNL     1       7.594  15.961  17.455  0.00  0.00    +0.000 OA
ATOM      2  C   UNL     1       7.563  16.139  18.676  0.00  0.00    +0.000 C 
ATOM      3  N   UNL     1       8.253  17.204  19.273  0.00  0.00    +0.000 N 
ATOM      4  C   UNL     1       8.325  17.646  20.691  0.00  0.00    +0.000 C 
ATOM      5  C   UNL     1       7.819  16.805  21.872  0.00  0.00    +0.000 C 
ATOM      6  O   UNL     1       8.554  15.592  21.975  0.00  0.00    +0.000 OA
ATOM      7  C   UNL     1       7.869  14.583  22.726  0.00  0.00    +0.000 C 
ATOM      8  C   UNL     1       8.642  13.263  22.629  0.00  0.00    +0.000 C 
ATOM      9  O   UNL     1       8.539  12.684  21.318  0.00  0.00    +0.000 OA
ATOM     10  C   UNL     1       9.382  11.529  21.189  0.00  0.00    +0.000 C 
ATOM     11  C   UNL     1       9.322  10.925  19.777  0.00  0.00    +0.000 C 
ATOM     12  O   UNL     1       9.904  11.769  18.782  0.00  0.00    +0.000 OA
ATOM     13  C   UNL     1      11.305  11.558  18.593  0.00  0.00    +0.000 C 
ATOM     14  C   UNL     1      11.831  12.519  17.525  0.00  0.00    +0.000 C 
ATOM     15  O   UNL     1      11.990  13.826  18.084  0.00  0.00    +0.000 OA
ATOM     16  C   UNL     1      12.330  14.793  17.085  0.00  0.00    +0.000 C 
ATOM     17  C   UNL     1      12.166  16.197  17.663  0.00  0.00    +0.000 C 
ATOM     18  O   UNL     1      10.776  16.526  17.687  0.00  0.00    +0.000 OA
ATOM     19  C   UNL     1      10.520  17.779  18.310  0.00  0.00    +0.000 C 
ATOM     20  C   UNL     1       9.011  18.069  18.344  0.00  0.00    +0.000 C 
ENDROOT
BRANCH   2  21
ATOM     21  C   UNL     1       6.725  15.224  19.551  0.00  0.00    +0.000 C 
BRANCH  21  22
ATOM     22  C   UNL     1       5.183  15.269  19.472  0.00  0.00    +0.000 C 
ATOM     23  C   UNL     1       4.626  14.530  18.236  0.00  0.00    +0.000 C 
ATOM     24  C   UNL     1       3.089  14.549  18.223  0.00  0.00    +0.000 C 
ATOM     25  C   UNL     1       2.536  13.867  19.487  0.00  0.00    +0.000 C 
ATOM     26  C   UNL     1       3.064  14.583  20.736  0.00  0.00    +0.000 C 
ATOM     27  C   UNL     1       2.595  16.046  20.714  0.00  0.00    +0.000 C 
ATOM     28  C   UNL     1       3.127  16.749  19.456  0.00  0.00    +0.000 C 
ATOM     29  C   UNL     1       2.628  16.016  18.199  0.00  0.00    +0.000 C 
ATOM     30  C   UNL     1       4.662  16.723  19.481  0.00  0.00    +0.000 C 
ATOM     31  C   UNL     1       4.603  14.544  20.729  0.00  0.00    +0.000 C 
ENDBRANCH  21  22
ENDBRANCH   2  21
TORSDOF 2
ENDMDL
MODEL 5
REMARK VINA RESULT:      -6.5      0.178      1.352
REMARK  Name = 
REMARK  2 active torsions:
REMARK  status: ('A' for Active; 'I' for Inactive)
REMARK    1  A    between atoms: C_2  and  C_3
REMARK    2  A    between atoms: C_3  and  C_4
REMARK                            x       y       z     vdW  Elec       q    Type
REMARK                         _______ _______ _______ _____ _____    ______ ____
ROOT
ATOM      1  O   UNL     1       7.778  12.624  22.253  0.00  0.00    +0.000 OA
ATOM      2  C   UNL     1       8.486  13.522  22.717  0.00  0.00    +0.000 C 
ATOM      3  N   UNL     1       8.210  14.090  23.970  0.00  0.00    +0.000 N 
ATOM      4  C   UNL     1       8.934  15.129  24.749  0.00  0.00    +0.000 C 
ATOM      5  C   UNL     1      10.053  16.006  24.168  0.00  0.00    +0.000 C 
ATOM      6  O   UNL     1       9.554  16.819  23.112  0.00  0.00    +0.000 OA
ATOM      7  C   UNL     1      10.584  17.303  22.243  0.00  0.00    +0.000 C 
ATOM      8  C   UNL     1       9.946  18.007  21.040  0.00  0.00    +0.000 C 
ATOM      9  O   UNL     1       9.314  17.072  20.152  0.00  0.00    +0.000 OA
ATOM     10  C   UNL     1       8.594  17.746  19.108  0.00  0.00    +0.000 C 
ATOM     11  C   UNL     1       7.871  16.761  18.177  0.00  0.00    +0.000 C 
ATOM     12  O   UNL     1       6.795  16.073  18.816  0.00  0.00    +0.000 OA
ATOM     13  C   UNL     1       5.541  16.756  18.734  0.00  0.00    +0.000 C 
ATOM     14  C   UNL     1       4.465  15.948  19.461  0.00  0.00    +0.000 C 
ATOM     15  O   UNL     1       4.597  16.126  20.874  0.00  0.00    +0.000 OA
ATOM     16  C   UNL     1       3.713  15.266  21.602  0.00  0.00    +0.000 C 
ATOM     17  C   UNL     1       4.117  15.256  23.075  0.00  0.00    +0.000 C 
ATOM     18  O   UNL     1       5.264  14.417  23.232  0.00  0.00    +0.000 OA
ATOM     19  C   UNL     1       5.775  14.431  24.560  0.00  0.00    +0.000 C 
ATOM     20  C   UNL     1       7.026  13.545  24.666  0.00  0.00    +0.000 C 
ENDROOT
BRANCH   2  21
ATOM     21  C   UNL     1       9.708  13.994  21.950  0.00  0.00    +0.000 C 
BRANCH  21  22
ATOM     22  C   UNL     1      10.097  13.321  20.615  0.00  0.00    +0.000 C 
ATOM     23  C   UNL     1      10.387  11.812  20.768  0.00  0.00    +0.000 C 
ATOM     24  C   UNL     1      10.715  11.169  19.412  0.00  0.00    +0.000 C 
ATOM     25  C   UNL     1       9.535  11.341  18.440  0.00  0.00    +0.000 C 
ATOM     26  C   UNL     1       9.225  12.832  18.258  0.00  0.00    +0.000 C 
ATOM     27  C   UNL     1      10.459  13.534  17.672  0.00  0.00    +0.000 C 
ATOM     28  C   UNL     1      11.656  13.371  18.619  0.00  0.00    +0.000 C 
ATOM     29  C   UNL     1      11.953  11.876  18.832  0.00  0.00    +0.000 C 
ATOM     30  C   UNL     1      11.317  14.017  19.970  0.00  0.00    +0.000 C 
ATOM     31  C   UNL     1       8.893  13.449  19.628  0.00  0.00    +0.000 C 
ENDBRANCH  21  22
ENDBRANCH   2  21
TORSDOF 2
ENDMDL
MODEL 6
REMARK VINA RESULT:      -6.5      0.179      1.363
REMARK  Name = 
REMARK  2 active torsions:
REMARK  status: ('A' for Active; 'I' for Inactive)
REMARK    1  A    between atoms: C_2  and  C_3
REMARK    2  A    between atoms: C_3  and  C_4
REMARK                            x       y       z     vdW  Elec       q    Type
REMARK                         _______ _______ _______ _____ _____    ______ ____
ROOT
ATOM      1  O   UNL     1       7.780  12.626  22.256  0.00  0.00    +0.000 OA
ATOM      2  C   UNL     1       8.485  13.525  22.722  0.00  0.00    +0.000 C 
ATOM      3  N   UNL     1       8.208  14.092  23.975  0.00  0.00    +0.000 N 
ATOM      4  C   UNL     1       8.929  15.132  24.755  0.00  0.00    +0.000 C 
ATOM      5  C   UNL     1      10.047  16.011  24.175  0.00  0.00    +0.000 C 
ATOM      6  O   UNL     1       9.549  16.823  23.119  0.00  0.00    +0.000 OA
ATOM      7  C   UNL     1      10.579  17.309  22.251  0.00  0.00    +0.000 C 
ATOM      8  C   UNL     1       9.941  18.013  21.048  0.00  0.00    +0.000 C 
ATOM      9  O   UNL     1       9.312  17.077  20.158  0.00  0.00    +0.000 OA
ATOM     10  C   UNL     1       8.592  17.750  19.115  0.00  0.00    +0.000 C 
ATOM     11  C   UNL     1       7.871  16.765  18.182  0.00  0.00    +0.000 C 
ATOM     12  O   UNL     1       6.796  16.074  18.819  0.00  0.00    +0.000 OA
ATOM     13  C   UNL     1       5.541  16.756  18.736  0.00  0.00    +0.000 C 
ATOM     14  C   UNL     1       4.466  15.946  19.462  0.00  0.00    +0.000 C 
ATOM     15  O   UNL     1       4.596  16.124  20.875  0.00  0.00    +0.000 OA
ATOM     16  C   UNL     1       3.711  15.263  21.602  0.00  0.00    +0.000 C 
ATOM     17  C   UNL     1       4.114  15.253  23.075  0.00  0.00    +0.000 C 
ATOM     18  O   UNL     1       5.261  14.416  23.233  0.00  0.00    +0.000 OA
ATOM     19  C   UNL     1       5.771  14.430  24.561  0.00  0.00    +0.000 C 
ATOM     20  C   UNL     1       7.023  13.545  24.669  0.00  0.00    +0.000 C 
ENDROOT
BRANCH   2  21
ATOM     21  C   UNL     1       9.708  13.999  21.956  0.00  0.00    +0.000 C 
BRANCH  21  22
ATOM     22  C   UNL     1      10.059  13.377  20.587  0.00  0.00    +0.000 C 
ATOM     23  C   UNL     1      11.280  14.047  19.921  0.00  0.00    +0.000 C 
ATOM     24  C   UNL     1      11.631  13.366  18.589  0.00  0.00    +0.000 C 
ATOM     25  C   UNL     1      11.958  11.880  18.820  0.00  0.00    +0.000 C 
ATOM     26  C   UNL     1      10.761  11.180  19.474  0.00  0.00    +0.000 C 
ATOM     27  C   UNL     1       9.547  11.283  18.539  0.00  0.00    +0.000 C 
ATOM     28  C   UNL     1       9.202  12.757  18.285  0.00  0.00    +0.000 C 
ATOM     29  C   UNL     1      10.411  13.474  17.658  0.00  0.00    +0.000 C 
ATOM     30  C   UNL     1       8.854  13.428  19.622  0.00  0.00    +0.000 C 
ATOM     31  C   UNL     1      10.435  11.877  20.808  0.00  0.00    +0.000 C 
ENDBRANCH  21  22
ENDBRANCH   2  21
TORSDOF 2
ENDMDL
MODEL 7
REMARK VINA RESULT:      -6.4      7.152     10.790
REMARK  Name = 
REMARK  2 active torsions:
REMARK  status: ('A' for Active; 'I' for Inactive)
REMARK    1  A    between atoms: C_2  and  C_3
REMARK    2  A    between atoms: C_3  and  C_4
REMARK                            x       y       z     vdW  Elec       q    Type
REMARK                         _______ _______ _______ _____ _____    ______ ____
ROOT
ATOM      1  O   UNL     1      -1.077  12.927  17.622  0.00  0.00    +0.000 OA
ATOM      2  C   UNL     1      -0.792  12.416  18.709  0.00  0.00    +0.000 C 
ATOM      3  N   UNL     1      -0.887  11.030  18.908  0.00  0.00    +0.000 N 
ATOM      4  C   UNL     1      -0.556  10.191  20.089  0.00  0.00    +0.000 C 
ATOM      5  C   UNL     1      -0.265  10.760  21.486  0.00  0.00    +0.000 C 
ATOM      6  O   UNL     1      -1.407  11.435  21.999  0.00  0.00    +0.000 OA
ATOM      7  C   UNL     1      -1.089  12.356  23.048  0.00  0.00    +0.000 C 
ATOM      8  C   UNL     1      -2.340  13.167  23.410  0.00  0.00    +0.000 C 
ATOM      9  O   UNL     1      -2.683  14.103  22.376  0.00  0.00    +0.000 OA
ATOM     10  C   UNL     1      -3.932  14.753  22.652  0.00  0.00    +0.000 C 
ATOM     11  C   UNL     1      -4.339  15.722  21.532  0.00  0.00    +0.000 C 
ATOM     12  O   UNL     1      -4.669  15.059  20.310  0.00  0.00    +0.000 OA
ATOM     13  C   UNL     1      -6.045  14.685  20.209  0.00  0.00    +0.000 C 
ATOM     14  C   UNL     1      -6.288  13.970  18.878  0.00  0.00    +0.000 C 
ATOM     15  O   UNL     1      -5.811  12.624  18.957  0.00  0.00    +0.000 OA
ATOM     16  C   UNL     1      -5.873  11.963  17.688  0.00  0.00    +0.000 C 
ATOM     17  C   UNL     1      -5.064  10.670  17.751  0.00  0.00    +0.000 C 
ATOM     18  O   UNL     1      -3.675  10.990  17.657  0.00  0.00    +0.000 OA
ATOM     19  C   UNL     1      -2.838   9.850  17.813  0.00  0.00    +0.000 C 
ATOM     20  C   UNL     1      -1.356  10.253  17.741  0.00  0.00    +0.000 C 
ENDROOT
BRANCH   2  21
ATOM     21  C   UNL     1      -0.279  13.287  19.842  0.00  0.00    +0.000 C 
BRANCH  21  22
ATOM     22  C   UNL     1       0.993  14.142  19.652  0.00  0.00    +0.000 C 
ATOM     23  C   UNL     1       0.715  15.471  18.916  0.00  0.00    +0.000 C 
ATOM     24  C   UNL     1       1.993  16.317  18.795  0.00  0.00    +0.000 C 
ATOM     25  C   UNL     1       2.550  16.643  20.192  0.00  0.00    +0.000 C 
ATOM     26  C   UNL     1       2.845  15.343  20.950  0.00  0.00    +0.000 C 
ATOM     27  C   UNL     1       3.894  14.535  20.172  0.00  0.00    +0.000 C 
ATOM     28  C   UNL     1       3.366  14.201  18.769  0.00  0.00    +0.000 C 
ATOM     29  C   UNL     1       3.037  15.502  18.014  0.00  0.00    +0.000 C 
ATOM     30  C   UNL     1       2.091  13.356  18.901  0.00  0.00    +0.000 C 
ATOM     31  C   UNL     1       1.550  14.518  21.062  0.00  0.00    +0.000 C 
ENDBRANCH  21  22
ENDBRANCH   2  21
TORSDOF 2
ENDMDL
MODEL 8
REMARK VINA RESULT:      -6.3      7.150     10.805
REMARK  Name = 
REMARK  2 active torsions:
REMARK  status: ('A' for Active; 'I' for Inactive)
REMARK    1  A    between atoms: C_2  and  C_3
REMARK    2  A    between atoms: C_3  and  C_4
REMARK                            x       y       z     vdW  Elec       q    Type
REMARK                         _______ _______ _______ _____ _____    ______ ____
ROOT
ATOM      1  O   UNL     1      -1.067  12.951  17.644  0.00  0.00    +0.000 OA
ATOM      2  C   UNL     1      -0.787  12.448  18.736  0.00  0.00    +0.000 C 
ATOM      3  N   UNL     1      -0.871  11.062  18.941  0.00  0.00    +0.000 N 
ATOM      4  C   UNL     1      -0.543  10.231  20.130  0.00  0.00    +0.000 C 
ATOM      5  C   UNL     1      -0.272  10.811  21.526  0.00  0.00    +0.000 C 
ATOM      6  O   UNL     1      -1.425  11.477  22.025  0.00  0.00    +0.000 OA
ATOM      7  C   UNL     1      -1.127  12.406  23.073  0.00  0.00    +0.000 C 
ATOM      8  C   UNL     1      -2.389  13.206  23.418  0.00  0.00    +0.000 C 
ATOM      9  O   UNL     1      -2.730  14.134  22.376  0.00  0.00    +0.000 OA
ATOM     10  C   UNL     1      -3.989  14.773  22.637  0.00  0.00    +0.000 C 
ATOM     11  C   UNL     1      -4.394  15.733  21.508  0.00  0.00    +0.000 C 
ATOM     12  O   UNL     1      -4.705  15.061  20.286  0.00  0.00    +0.000 OA
ATOM     13  C   UNL     1      -6.077  14.672  20.173  0.00  0.00    +0.000 C 
ATOM     14  C   UNL     1      -6.299  13.949  18.844  0.00  0.00    +0.000 C 
ATOM     15  O   UNL     1      -5.810  12.608  18.934  0.00  0.00    +0.000 OA
ATOM     16  C   UNL     1      -5.853  11.940  17.667  0.00  0.00    +0.000 C 
ATOM     17  C   UNL     1      -5.033  10.655  17.745  0.00  0.00    +0.000 C 
ATOM     18  O   UNL     1      -3.645  10.989  17.663  0.00  0.00    +0.000 OA
ATOM     19  C   UNL     1      -2.799   9.858  17.833  0.00  0.00    +0.000 C 
ATOM     20  C   UNL     1      -1.321  10.275  17.774  0.00  0.00    +0.000 C 
ENDROOT
BRANCH   2  21
ATOM     21  C   UNL     1      -0.294  13.329  19.870  0.00  0.00    +0.000 C 
BRANCH  21  22
ATOM     22  C   UNL     1       1.024  14.122  19.723  0.00  0.00    +0.000 C 
ATOM     23  C   UNL     1       2.095  13.356  18.917  0.00  0.00    +0.000 C 
ATOM     24  C   UNL     1       3.369  14.199  18.745  0.00  0.00    +0.000 C 
ATOM     25  C   UNL     1       3.047  15.508  18.004  0.00  0.00    +0.000 C 
ATOM     26  C   UNL     1       1.989  16.299  18.784  0.00  0.00    +0.000 C 
ATOM     27  C   UNL     1       2.541  16.638  20.176  0.00  0.00    +0.000 C 
ATOM     28  C   UNL     1       2.879  15.347  20.937  0.00  0.00    +0.000 C 
ATOM     29  C   UNL     1       3.916  14.532  20.144  0.00  0.00    +0.000 C 
ATOM     30  C   UNL     1       1.599  14.514  21.102  0.00  0.00    +0.000 C 
ATOM     31  C   UNL     1       0.723  15.437  18.935  0.00  0.00    +0.000 C 
ENDBRANCH  21  22
ENDBRANCH   2  21
TORSDOF 2
ENDMDL
MODEL 9
REMARK VINA RESULT:      -6.3      7.146     10.841
REMARK  Name = 
REMARK  2 active torsions:
REMARK  status: ('A' for Active; 'I' for Inactive)
REMARK    1  A    between atoms: C_2  and  C_3
REMARK    2  A    between atoms: C_3  and  C_4
REMARK                            x       y       z     vdW  Elec       q    Type
REMARK                         _______ _______ _______ _____ _____    ______ ____
ROOT
ATOM      1  O   UNL     1      -1.041  12.988  17.689  0.00  0.00    +0.000 OA
ATOM      2  C   UNL     1      -0.775  12.488  18.786  0.00  0.00    +0.000 C 
ATOM      3  N   UNL     1      -0.848  11.102  18.989  0.00  0.00    +0.000 N 
ATOM      4  C   UNL     1      -0.532  10.275  20.184  0.00  0.00    +0.000 C 
ATOM      5  C   UNL     1      -0.290  10.857  21.584  0.00  0.00    +0.000 C 
ATOM      6  O   UNL     1      -1.458  11.512  22.064  0.00  0.00    +0.000 OA
ATOM      7  C   UNL     1      -1.186  12.444  23.116  0.00  0.00    +0.000 C 
ATOM      8  C   UNL     1      -2.461  13.232  23.440  0.00  0.00    +0.000 C 
ATOM      9  O   UNL     1      -2.795  14.156  22.392  0.00  0.00    +0.000 OA
ATOM     10  C   UNL     1      -4.064  14.782  22.632  0.00  0.00    +0.000 C 
ATOM     11  C   UNL     1      -4.460  15.738  21.496  0.00  0.00    +0.000 C 
ATOM     12  O   UNL     1      -4.744  15.063  20.269  0.00  0.00    +0.000 OA
ATOM     13  C   UNL     1      -6.109  14.661  20.134  0.00  0.00    +0.000 C 
ATOM     14  C   UNL     1      -6.303  13.935  18.801  0.00  0.00    +0.000 C 
ATOM     15  O   UNL     1      -5.802  12.599  18.900  0.00  0.00    +0.000 OA
ATOM     16  C   UNL     1      -5.818  11.931  17.633  0.00  0.00    +0.000 C 
ATOM     17  C   UNL     1      -4.986  10.654  17.725  0.00  0.00    +0.000 C 
ATOM     18  O   UNL     1      -3.600  11.001  17.666  0.00  0.00    +0.000 OA
ATOM     19  C   UNL     1      -2.746   9.879  17.850  0.00  0.00    +0.000 C 
ATOM     20  C   UNL     1      -1.271  10.310  17.815  0.00  0.00    +0.000 C 
ENDROOT
BRANCH   2  21
ATOM     21  C   UNL     1      -0.309  13.375  19.927  0.00  0.00    +0.000 C 
BRANCH  21  22
ATOM     22  C   UNL     1       0.975  14.221  19.782  0.00  0.00    +0.000 C 
ATOM     23  C   UNL     1       1.590  14.611  21.143  0.00  0.00    +0.000 C 
ATOM     24  C   UNL     1       2.894  15.403  20.957  0.00  0.00    +0.000 C 
ATOM     25  C   UNL     1       3.923  14.562  20.182  0.00  0.00    +0.000 C 
ATOM     26  C   UNL     1       3.346  14.163  18.819  0.00  0.00    +0.000 C 
ATOM     27  C   UNL     1       3.035  15.433  18.013  0.00  0.00    +0.000 C 
ATOM     28  C   UNL     1       2.014  16.297  18.768  0.00  0.00    +0.000 C 
ATOM     29  C   UNL     1       2.573  16.674  20.152  0.00  0.00    +0.000 C 
ATOM     30  C   UNL     1       0.716  15.495  18.949  0.00  0.00    +0.000 C 
ATOM     31  C   UNL     1       2.047  13.366  19.033  0.00  0.00    +0.000 C 
ENDBRANCH  21  22
ENDBRANCH   2  21
TORSDOF 2
ENDMDL
