MODEL 1
REMARK VINA RESULT:      -6.9      0.000      0.000
REMARK  Name = 
REMARK  4 active torsions:
REMARK  status: ('A' for Active; 'I' for Inactive)
REMARK    1  A    between atoms: C_2  and  C_3
REMARK    2  A    between atoms: C_3  and  N_4
REMARK    3  A    between atoms: C_8  and  C_9
REMARK    4  A    between atoms: N_24  and  C_25
REMARK                            x       y       z     vdW  Elec       q    Type
REMARK                         _______ _______ _______ _____ _____    ______ ____
ROOT
ATOM      1  N   UNL     1       0.744  11.267  18.885  0.00  0.00    +0.000 N 
ATOM      2  C   UNL     1       1.705  12.260  19.004  0.00  0.00    +0.000 C 
ATOM      3  O   UNL     1       2.406  12.562  18.028  0.00  0.00    +0.000 OA
ATOM      4  C   UNL     1       2.055  12.855  20.360  0.00  0.00    +0.000 C 
ATOM      5  C   UNL     1       0.920  13.452  21.179  0.00  0.00    +0.000 C 
ATOM      6  S   UNL     1      -0.134  12.105  21.729  0.00  0.00    +0.000 S 
ATOM      7  O   UNL     1      -0.924  12.558  22.853  0.00  0.00    +0.000 OA
ATOM      8  O   UNL     1       0.636  10.874  21.857  0.00  0.00    +0.000 OA
ATOM      9  C   UNL     1      -1.188  11.911  20.338  0.00  0.00    +0.000 A 
ATOM     10  C   UNL     1      -2.540  12.257  20.518  0.00  0.00    +0.000 A 
ATOM     11  C   UNL     1      -3.394  12.268  19.427  0.00  0.00    +0.000 A 
ATOM     12  C   UNL     1      -2.908  11.864  18.191  0.00  0.00    +0.000 A 
ATOM     13  C   UNL     1      -1.567  11.463  18.033  0.00  0.00    +0.000 A 
ATOM     14  C   UNL     1      -0.657  11.525  19.100  0.00  0.00    +0.000 A 
ENDROOT
BRANCH   5  15
ATOM     15  C   UNL     1       0.141  14.588  20.499  0.00  0.00    +0.000 A 
ATOM     16  C   UNL     1       0.414  14.993  19.176  0.00  0.00    +0.000 A 
ATOM     17  C   UNL     1      -0.281  16.029  18.553  0.00  0.00    +0.000 A 
ATOM     18  C   UNL     1      -1.263  16.714  19.252  0.00  0.00    +0.000 A 
ATOM     19  C   UNL     1      -1.544  16.360  20.572  0.00  0.00    +0.000 A 
ATOM     20  C   UNL     1      -0.845  15.314  21.189  0.00  0.00    +0.000 A 
ENDBRANCH   5  15
BRANCH   1  21
ATOM     21  C   UNL     1       1.167  10.108  18.084  0.00  0.00    +0.000 C 
BRANCH  21  23
ATOM     22  O   UNL     1       1.577   8.555  19.882  0.00  0.00    +0.000 OA
ATOM     23  C   UNL     1       1.713   8.800  18.684  0.00  0.00    +0.000 C 
ATOM     24  N   UNL     1       2.481   8.016  17.853  0.00  0.00    +0.000 N 
ATOM     25  H   UNL     1       2.673   8.371  16.922  0.00  0.00    +0.000 HD
BRANCH  24  26
ATOM     26  C   UNL     1       3.138   6.802  18.305  0.00  0.00    +0.000 C 
ATOM     27  C   UNL     1       2.261   5.567  18.123  0.00  0.00    +0.000 C 
ATOM     28  C   UNL     1       3.246   4.405  18.153  0.00  0.00    +0.000 C 
ATOM     29  C   UNL     1       4.568   4.958  17.623  0.00  0.00    +0.000 C 
ATOM     30  C   UNL     1       4.375   6.467  17.476  0.00  0.00    +0.000 C 
ENDBRANCH  24  26
ENDBRANCH  21  23
ENDBRANCH   1  21
TORSDOF 4
ENDMDL
MODEL 2
REMARK VINA RESULT:      -6.7      7.772      9.315
REMARK  Name = 
REMARK  4 active torsions:
REMARK  status: ('A' for Active; 'I' for Inactive)
REMARK    1  A    between atoms: C_2  and  C_3
REMARK    2  A    between atoms: C_3  and  N_4
REMARK    3  A    between atoms: C_8  and  C_9
REMARK    4  A    between atoms: N_24  and  C_25
REMARK                            x       y       z     vdW  Elec       q    Type
REMARK                         _______ _______ _______ _____ _____    ______ ____
ROOT
ATOM      1  N   UNL     1      10.009  12.415  18.398  0.00  0.00    +0.000 N 
ATOM      2  C   UNL     1      11.303  12.899  18.271  0.00  0.00    +0.000 C 
ATOM      3  O   UNL     1      11.943  12.683  17.234  0.00  0.00    +0.000 OA
ATOM      4  C   UNL     1      12.026  13.522  19.456  0.00  0.00    +0.000 C 
ATOM      5  C   UNL     1      11.349  14.690  20.158  0.00  0.00    +0.000 C 
ATOM      6  S   UNL     1       9.904  14.056  21.017  0.00  0.00    +0.000 S 
ATOM      7  O   UNL     1       9.514  15.004  22.038  0.00  0.00    +0.000 OA
ATOM      8  O   UNL     1      10.101  12.660  21.387  0.00  0.00    +0.000 OA
ATOM      9  C   UNL     1       8.707  14.084  19.732  0.00  0.00    +0.000 A 
ATOM     10  C   UNL     1       7.653  15.006  19.872  0.00  0.00    +0.000 A 
ATOM     11  C   UNL     1       6.757  15.183  18.829  0.00  0.00    +0.000 A 
ATOM     12  C   UNL     1       6.881  14.390  17.697  0.00  0.00    +0.000 A 
ATOM     13  C   UNL     1       7.905  13.428  17.592  0.00  0.00    +0.000 A 
ATOM     14  C   UNL     1       8.878  13.286  18.593  0.00  0.00    +0.000 A 
ENDROOT
BRANCH   5  15
ATOM     15  C   UNL     1      11.038  15.904  19.269  0.00  0.00    +0.000 A 
ATOM     16  C   UNL     1      11.215  15.872  17.871  0.00  0.00    +0.000 A 
ATOM     17  C   UNL     1      10.944  16.972  17.058  0.00  0.00    +0.000 A 
ATOM     18  C   UNL     1      10.508  18.157  17.629  0.00  0.00    +0.000 A 
ATOM     19  C   UNL     1      10.344  18.236  19.012  0.00  0.00    +0.000 A 
ATOM     20  C   UNL     1      10.613  17.125  19.823  0.00  0.00    +0.000 A 
ENDBRANCH   5  15
BRANCH   1  21
ATOM     21  C   UNL     1       9.813  11.061  17.857  0.00  0.00    +0.000 C 
BRANCH  21  23
ATOM     22  O   UNL     1       8.875   9.868  19.730  0.00  0.00    +0.000 OA
ATOM     23  C   UNL     1       8.913   9.995  18.507  0.00  0.00    +0.000 C 
ATOM     24  N   UNL     1       8.293   9.111  17.654  0.00  0.00    +0.000 N 
ATOM     25  H   UNL     1       8.502   9.191  16.665  0.00  0.00    +0.000 HD
BRANCH  24  26
ATOM     26  C   UNL     1       7.488   7.998  18.126  0.00  0.00    +0.000 C 
ATOM     27  C   UNL     1       6.768   7.280  16.988  0.00  0.00    +0.000 C 
ATOM     28  C   UNL     1       6.424   5.914  17.569  0.00  0.00    +0.000 C 
ATOM     29  C   UNL     1       7.502   5.615  18.610  0.00  0.00    +0.000 C 
ATOM     30  C   UNL     1       8.335   6.889  18.746  0.00  0.00    +0.000 C 
ENDBRANCH  24  26
ENDBRANCH  21  23
ENDBRANCH   1  21
TORSDOF 4
ENDMDL
MODEL 3
REMARK VINA RESULT:      -6.7      4.453      6.345
REMARK  Name = 
REMARK  4 active torsions:
REMARK  status: ('A' for Active; 'I' for Inactive)
REMARK    1  A    between atoms: C_2  and  C_3
REMARK    2  A    between atoms: C_3  and  N_4
REMARK    3  A    between atoms: C_8  and  C_9
REMARK    4  A    between atoms: N_24  and  C_25
REMARK                            x       y       z     vdW  Elec       q    Type
REMARK                         _______ _______ _______ _____ _____    ______ ____
ROOT
ATOM      1  N   UNL     1      -4.509  13.889  20.929  0.00  0.00    +0.000 N 
ATOM      2  C   UNL     1      -3.766  15.039  20.704  0.00  0.00    +0.000 C 
ATOM      3  O   UNL     1      -4.325  16.065  20.295  0.00  0.00    +0.000 OA
ATOM      4  C   UNL     1      -2.245  15.014  20.759  0.00  0.00    +0.000 C 
ATOM      5  C   UNL     1      -1.597  14.497  22.035  0.00  0.00    +0.000 C 
ATOM      6  S   UNL     1      -1.909  12.731  22.138  0.00  0.00    +0.000 S 
ATOM      7  O   UNL     1      -0.954  12.140  23.049  0.00  0.00    +0.000 OA
ATOM      8  O   UNL     1      -2.060  12.160  20.805  0.00  0.00    +0.000 OA
ATOM      9  C   UNL     1      -3.496  12.711  22.890  0.00  0.00    +0.000 A 
ATOM     10  C   UNL     1      -3.566  12.200  24.200  0.00  0.00    +0.000 A 
ATOM     11  C   UNL     1      -4.757  12.289  24.904  0.00  0.00    +0.000 A 
ATOM     12  C   UNL     1      -5.873  12.816  24.270  0.00  0.00    +0.000 A 
ATOM     13  C   UNL     1      -5.807  13.270  22.938  0.00  0.00    +0.000 A 
ATOM     14  C   UNL     1      -4.596  13.274  22.229  0.00  0.00    +0.000 A 
ENDROOT
BRANCH   5  15
ATOM     15  C   UNL     1      -1.974  15.252  23.320  0.00  0.00    +0.000 A 
ATOM     16  C   UNL     1      -1.373  14.959  24.562  0.00  0.00    +0.000 A 
ATOM     17  C   UNL     1      -1.714  15.631  25.733  0.00  0.00    +0.000 A 
ATOM     18  C   UNL     1      -2.696  16.610  25.703  0.00  0.00    +0.000 A 
ATOM     19  C   UNL     1      -3.332  16.911  24.498  0.00  0.00    +0.000 A 
ATOM     20  C   UNL     1      -2.979  16.234  23.322  0.00  0.00    +0.000 A 
ENDBRANCH   5  15
BRANCH   1  21
ATOM     21  C   UNL     1      -5.546  13.631  19.920  0.00  0.00    +0.000 C 
BRANCH  21  23
ATOM     22  O   UNL     1      -6.502  11.912  18.525  0.00  0.00    +0.000 OA
ATOM     23  C   UNL     1      -5.479  12.492  18.886  0.00  0.00    +0.000 C 
ATOM     24  N   UNL     1      -4.222  12.067  18.521  0.00  0.00    +0.000 N 
ATOM     25  H   UNL     1      -3.430  12.497  18.986  0.00  0.00    +0.000 HD
BRANCH  24  26
ATOM     26  C   UNL     1      -4.002  10.943  17.627  0.00  0.00    +0.000 C 
ATOM     27  C   UNL     1      -3.997  11.361  16.160  0.00  0.00    +0.000 C 
ATOM     28  C   UNL     1      -3.274  10.223  15.452  0.00  0.00    +0.000 C 
ATOM     29  C   UNL     1      -2.307   9.634  16.477  0.00  0.00    +0.000 C 
ATOM     30  C   UNL     1      -2.622  10.317  17.808  0.00  0.00    +0.000 C 
ENDBRANCH  24  26
ENDBRANCH  21  23
ENDBRANCH   1  21
TORSDOF 4
ENDMDL
MODEL 4
REMARK VINA RESULT:      -6.5      7.399      9.221
REMARK  Name = 
REMARK  4 active torsions:
REMARK  status: ('A' for Active; 'I' for Inactive)
REMARK    1  A    between atoms: C_2  and  C_3
REMARK    2  A    between atoms: C_3  and  N_4
REMARK    3  A    between atoms: C_8  and  C_9
REMARK    4  A    between atoms: N_24  and  C_25
REMARK                            x       y       z     vdW  Elec       q    Type
REMARK                         _______ _______ _______ _____ _____    ______ ____
ROOT
ATOM      1  N   UNL     1       9.210  11.554  18.245  0.00  0.00    +0.000 N 
ATOM      2  C   UNL     1      10.596  11.491  18.265  0.00  0.00    +0.000 C 
ATOM      3  O   UNL     1      11.215  11.184  17.238  0.00  0.00    +0.000 OA
ATOM      4  C   UNL     1      11.366  11.600  19.573  0.00  0.00    +0.000 C 
ATOM      5  C   UNL     1      11.121  12.831  20.432  0.00  0.00    +0.000 C 
ATOM      6  S   UNL     1       9.457  12.717  21.100  0.00  0.00    +0.000 S 
ATOM      7  O   UNL     1       9.354  13.589  22.249  0.00  0.00    +0.000 OA
ATOM      8  O   UNL     1       9.055  11.322  21.232  0.00  0.00    +0.000 OA
ATOM      9  C   UNL     1       8.517  13.402  19.784  0.00  0.00    +0.000 A 
ATOM     10  C   UNL     1       7.896  14.640  20.031  0.00  0.00    +0.000 A 
ATOM     11  C   UNL     1       7.262  15.305  18.992  0.00  0.00    +0.000 A 
ATOM     12  C   UNL     1       7.194  14.695  17.748  0.00  0.00    +0.000 A 
ATOM     13  C   UNL     1       7.769  13.428  17.527  0.00  0.00    +0.000 A 
ATOM     14  C   UNL     1       8.492  12.770  18.533  0.00  0.00    +0.000 A 
ENDROOT
BRANCH   5  15
ATOM     15  C   UNL     1      11.408  14.179  19.753  0.00  0.00    +0.000 A 
ATOM     16  C   UNL     1      11.321  15.401  20.452  0.00  0.00    +0.000 A 
ATOM     17  C   UNL     1      11.570  16.630  19.843  0.00  0.00    +0.000 A 
ATOM     18  C   UNL     1      11.891  16.675  18.495  0.00  0.00    +0.000 A 
ATOM     19  C   UNL     1      11.962  15.489  17.763  0.00  0.00    +0.000 A 
ATOM     20  C   UNL     1      11.716  14.257  18.384  0.00  0.00    +0.000 A 
ENDBRANCH   5  15
BRANCH   1  21
ATOM     21  C   UNL     1       8.567  10.483  17.470  0.00  0.00    +0.000 C 
BRANCH  21  23
ATOM     22  O   UNL     1       8.801   8.666  19.037  0.00  0.00    +0.000 OA
ATOM     23  C   UNL     1       8.224   9.094  18.037  0.00  0.00    +0.000 C 
ATOM     24  N   UNL     1       7.373   8.316  17.287  0.00  0.00    +0.000 N 
ATOM     25  H   UNL     1       7.065   8.687  16.395  0.00  0.00    +0.000 HD
BRANCH  24  26
ATOM     26  C   UNL     1       7.033   6.951  17.649  0.00  0.00    +0.000 C 
ATOM     27  C   UNL     1       5.525   6.721  17.694  0.00  0.00    +0.000 C 
ATOM     28  C   UNL     1       5.376   5.210  17.576  0.00  0.00    +0.000 C 
ATOM     29  C   UNL     1       6.583   4.728  16.774  0.00  0.00    +0.000 C 
ATOM     30  C   UNL     1       7.501   5.938  16.606  0.00  0.00    +0.000 C 
ENDBRANCH  24  26
ENDBRANCH  21  23
ENDBRANCH   1  21
TORSDOF 4
ENDMDL
MODEL 5
REMARK VINA RESULT:      -6.4      3.455      7.385
REMARK  Name = 
REMARK  4 active torsions:
REMARK  status: ('A' for Active; 'I' for Inactive)
REMARK    1  A    between atoms: C_2  and  C_3
REMARK    2  A    between atoms: C_3  and  N_4
REMARK    3  A    between atoms: C_8  and  C_9
REMARK    4  A    between atoms: N_24  and  C_25
REMARK                            x       y       z     vdW  Elec       q    Type
REMARK                         _______ _______ _______ _____ _____    ______ ____
ROOT
ATOM      1  N   UNL     1      -1.559  12.286  22.303  0.00  0.00    +0.000 N 
ATOM      2  C   UNL     1      -1.295  13.646  22.255  0.00  0.00    +0.000 C 
ATOM      3  O   UNL     1      -0.964  14.247  23.286  0.00  0.00    +0.000 OA
ATOM      4  C   UNL     1      -1.592  14.460  21.004  0.00  0.00    +0.000 C 
ATOM      5  C   UNL     1      -0.960  13.998  19.700  0.00  0.00    +0.000 C 
ATOM      6  S   UNL     1      -1.745  12.455  19.221  0.00  0.00    +0.000 S 
ATOM      7  O   UNL     1      -1.518  12.233  17.809  0.00  0.00    +0.000 OA
ATOM      8  O   UNL     1      -3.108  12.393  19.736  0.00  0.00    +0.000 OA
ATOM      9  C   UNL     1      -0.796  11.294  20.135  0.00  0.00    +0.000 A 
ATOM     10  C   UNL     1       0.022  10.423  19.392  0.00  0.00    +0.000 A 
ATOM     11  C   UNL     1       0.904   9.584  20.054  0.00  0.00    +0.000 A 
ATOM     12  C   UNL     1       0.906   9.573  21.442  0.00  0.00    +0.000 A 
ATOM     13  C   UNL     1       0.041  10.406  22.177  0.00  0.00    +0.000 A 
ATOM     14  C   UNL     1      -0.801  11.329  21.536  0.00  0.00    +0.000 A 
ENDROOT
BRANCH   5  15
ATOM     15  C   UNL     1       0.574  13.920  19.700  0.00  0.00    +0.000 A 
ATOM     16  C   UNL     1       1.310  13.687  18.519  0.00  0.00    +0.000 A 
ATOM     17  C   UNL     1       2.702  13.605  18.511  0.00  0.00    +0.000 A 
ATOM     18  C   UNL     1       3.404  13.729  19.700  0.00  0.00    +0.000 A 
ATOM     19  C   UNL     1       2.710  13.935  20.893  0.00  0.00    +0.000 A 
ATOM     20  C   UNL     1       1.311  14.022  20.892  0.00  0.00    +0.000 A 
ENDBRANCH   5  15
BRANCH   1  21
ATOM     21  C   UNL     1      -2.299  11.853  23.498  0.00  0.00    +0.000 C 
BRANCH  21  23
ATOM     22  O   UNL     1      -4.283  11.968  24.863  0.00  0.00    +0.000 OA
ATOM     23  C   UNL     1      -3.780  12.181  23.760  0.00  0.00    +0.000 C 
ATOM     24  N   UNL     1      -4.526  12.567  22.671  0.00  0.00    +0.000 N 
ATOM     25  H   UNL     1      -4.068  12.567  21.766  0.00  0.00    +0.000 HD
BRANCH  24  26
ATOM     26  C   UNL     1      -5.955  12.819  22.748  0.00  0.00    +0.000 C 
ATOM     27  C   UNL     1      -6.270  14.274  23.085  0.00  0.00    +0.000 C 
ATOM     28  C   UNL     1      -7.712  14.457  22.630  0.00  0.00    +0.000 C 
ATOM     29  C   UNL     1      -7.916  13.481  21.473  0.00  0.00    +0.000 C 
ATOM     30  C   UNL     1      -6.654  12.622  21.405  0.00  0.00    +0.000 C 
ENDBRANCH  24  26
ENDBRANCH  21  23
ENDBRANCH   1  21
TORSDOF 4
ENDMDL
MODEL 6
REMARK VINA RESULT:      -6.4      1.115      1.191
REMARK  Name = 
REMARK  4 active torsions:
REMARK  status: ('A' for Active; 'I' for Inactive)
REMARK    1  A    between atoms: C_2  and  C_3
REMARK    2  A    between atoms: C_3  and  N_4
REMARK    3  A    between atoms: C_8  and  C_9
REMARK    4  A    between atoms: N_24  and  C_25
REMARK                            x       y       z     vdW  Elec       q    Type
REMARK                         _______ _______ _______ _____ _____    ______ ____
ROOT
ATOM      1  N   UNL     1       0.251  11.241  19.720  0.00  0.00    +0.000 N 
ATOM      2  C   UNL     1       1.279  12.173  19.730  0.00  0.00    +0.000 C 
ATOM      3  O   UNL     1       2.041  12.261  18.757  0.00  0.00    +0.000 OA
ATOM      4  C   UNL     1       1.615  12.957  20.990  0.00  0.00    +0.000 C 
ATOM      5  C   UNL     1       0.496  13.756  21.640  0.00  0.00    +0.000 C 
ATOM      6  S   UNL     1      -0.680  12.592  22.341  0.00  0.00    +0.000 S 
ATOM      7  O   UNL     1      -1.479  13.276  23.333  0.00  0.00    +0.000 OA
ATOM      8  O   UNL     1      -0.011  11.349  22.707  0.00  0.00    +0.000 OA
ATOM      9  C   UNL     1      -1.686  12.245  20.945  0.00  0.00    +0.000 A 
ATOM     10  C   UNL     1      -3.015  12.706  20.995  0.00  0.00    +0.000 A 
ATOM     11  C   UNL     1      -3.819  12.595  19.871  0.00  0.00    +0.000 A 
ATOM     12  C   UNL     1      -3.313  11.962  18.745  0.00  0.00    +0.000 A 
ATOM     13  C   UNL     1      -2.001  11.450  18.726  0.00  0.00    +0.000 A 
ATOM     14  C   UNL     1      -1.134  11.625  19.816  0.00  0.00    +0.000 A 
ENDROOT
BRANCH   5  15
ATOM     15  C   UNL     1      -0.166  14.815  20.744  0.00  0.00    +0.000 A 
ATOM     16  C   UNL     1       0.221  15.006  19.401  0.00  0.00    +0.000 A 
ATOM     17  C   UNL     1      -0.367  15.970  18.585  0.00  0.00    +0.000 A 
ATOM     18  C   UNL     1      -1.352  16.799  19.100  0.00  0.00    +0.000 A 
ATOM     19  C   UNL     1      -1.744  16.658  20.431  0.00  0.00    +0.000 A 
ATOM     20  C   UNL     1      -1.152  15.682  21.245  0.00  0.00    +0.000 A 
ENDBRANCH   5  15
BRANCH   1  21
ATOM     21  C   UNL     1       0.618   9.940  19.140  0.00  0.00    +0.000 C 
BRANCH  21  23
ATOM     22  O   UNL     1       1.303   8.831  21.169  0.00  0.00    +0.000 OA
ATOM     23  C   UNL     1       1.254   8.789  19.940  0.00  0.00    +0.000 C 
ATOM     24  N   UNL     1       1.889   7.811  19.210  0.00  0.00    +0.000 N 
ATOM     25  H   UNL     1       1.936   7.934  18.204  0.00  0.00    +0.000 HD
BRANCH  24  26
ATOM     26  C   UNL     1       2.611   6.713  19.829  0.00  0.00    +0.000 C 
ATOM     27  C   UNL     1       1.676   5.687  20.462  0.00  0.00    +0.000 C 
ATOM     28  C   UNL     1       2.530   4.432  20.586  0.00  0.00    +0.000 C 
ATOM     29  C   UNL     1       3.551   4.503  19.452  0.00  0.00    +0.000 C 
ATOM     30  C   UNL     1       3.391   5.882  18.813  0.00  0.00    +0.000 C 
ENDBRANCH  24  26
ENDBRANCH  21  23
ENDBRANCH   1  21
TORSDOF 4
ENDMDL
MODEL 7
REMARK VINA RESULT:      -6.3      3.911      6.002
REMARK  Name = 
REMARK  4 active torsions:
REMARK  status: ('A' for Active; 'I' for Inactive)
REMARK    1  A    between atoms: C_2  and  C_3
REMARK    2  A    between atoms: C_3  and  N_4
REMARK    3  A    between atoms: C_8  and  C_9
REMARK    4  A    between atoms: N_24  and  C_25
REMARK                            x       y       z     vdW  Elec       q    Type
REMARK                         _______ _______ _______ _____ _____    ______ ____
ROOT
ATOM      1  N   UNL     1      -1.929  12.890  21.552  0.00  0.00    +0.000 N 
ATOM      2  C   UNL     1      -2.059  12.480  22.870  0.00  0.00    +0.000 C 
ATOM      3  O   UNL     1      -1.060  12.116  23.506  0.00  0.00    +0.000 OA
ATOM      4  C   UNL     1      -3.431  12.278  23.496  0.00  0.00    +0.000 C 
ATOM      5  C   UNL     1      -4.398  13.452  23.463  0.00  0.00    +0.000 C 
ATOM      6  S   UNL     1      -4.905  13.703  21.758  0.00  0.00    +0.000 S 
ATOM      7  O   UNL     1      -6.131  14.470  21.743  0.00  0.00    +0.000 OA
ATOM      8  O   UNL     1      -4.848  12.448  21.018  0.00  0.00    +0.000 OA
ATOM      9  C   UNL     1      -3.598  14.713  21.161  0.00  0.00    +0.000 A 
ATOM     10  C   UNL     1      -3.927  16.041  20.834  0.00  0.00    +0.000 A 
ATOM     11  C   UNL     1      -2.919  16.931  20.497  0.00  0.00    +0.000 A 
ATOM     12  C   UNL     1      -1.613  16.468  20.421  0.00  0.00    +0.000 A 
ATOM     13  C   UNL     1      -1.302  15.121  20.693  0.00  0.00    +0.000 A 
ATOM     14  C   UNL     1      -2.287  14.217  21.121  0.00  0.00    +0.000 A 
ENDROOT
BRANCH   5  15
ATOM     15  C   UNL     1      -3.899  14.739  24.139  0.00  0.00    +0.000 A 
ATOM     16  C   UNL     1      -4.719  15.879  24.273  0.00  0.00    +0.000 A 
ATOM     17  C   UNL     1      -4.272  17.053  24.877  0.00  0.00    +0.000 A 
ATOM     18  C   UNL     1      -2.970  17.131  25.346  0.00  0.00    +0.000 A 
ATOM     19  C   UNL     1      -2.121  16.034  25.209  0.00  0.00    +0.000 A 
ATOM     20  C   UNL     1      -2.579  14.854  24.606  0.00  0.00    +0.000 A 
ENDBRANCH   5  15
BRANCH   1  21
ATOM     21  C   UNL     1      -0.987  12.086  20.758  0.00  0.00    +0.000 C 
BRANCH  21  23
ATOM     22  O   UNL     1      -0.167  12.439  18.518  0.00  0.00    +0.000 OA
ATOM     23  C   UNL     1      -1.048  11.952  19.225  0.00  0.00    +0.000 C 
ATOM     24  N   UNL     1      -2.198  11.407  18.701  0.00  0.00    +0.000 N 
ATOM     25  H   UNL     1      -2.943  11.174  19.350  0.00  0.00    +0.000 HD
BRANCH  24  26
ATOM     26  C   UNL     1      -2.436  11.302  17.272  0.00  0.00    +0.000 C 
ATOM     27  C   UNL     1      -2.065   9.928  16.722  0.00  0.00    +0.000 C 
ATOM     28  C   UNL     1      -2.827   9.836  15.406  0.00  0.00    +0.000 C 
ATOM     29  C   UNL     1      -4.076  10.700  15.581  0.00  0.00    +0.000 C 
ATOM     30  C   UNL     1      -3.916  11.422  16.918  0.00  0.00    +0.000 C 
ENDBRANCH  24  26
ENDBRANCH  21  23
ENDBRANCH   1  21
TORSDOF 4
ENDMDL
MODEL 8
REMARK VINA RESULT:      -6.2      3.883      6.014
REMARK  Name = 
REMARK  4 active torsions:
REMARK  status: ('A' for Active; 'I' for Inactive)
REMARK    1  A    between atoms: C_2  and  C_3
REMARK    2  A    between atoms: C_3  and  N_4
REMARK    3  A    between atoms: C_8  and  C_9
REMARK    4  A    between atoms: N_24  and  C_25
REMARK                            x       y       z     vdW  Elec       q    Type
REMARK                         _______ _______ _______ _____ _____    ______ ____
ROOT
ATOM      1  N   UNL     1      -1.703  13.695  21.422  0.00  0.00    +0.000 N 
ATOM      2  C   UNL     1      -1.681  13.287  22.747  0.00  0.00    +0.000 C 
ATOM      3  O   UNL     1      -0.606  13.233  23.359  0.00  0.00    +0.000 OA
ATOM      4  C   UNL     1      -2.924  12.714  23.412  0.00  0.00    +0.000 C 
ATOM      5  C   UNL     1      -4.186  13.564  23.394  0.00  0.00    +0.000 C 
ATOM      6  S   UNL     1      -4.782  13.632  21.700  0.00  0.00    +0.000 S 
ATOM      7  O   UNL     1      -6.176  14.019  21.711  0.00  0.00    +0.000 OA
ATOM      8  O   UNL     1      -4.387  12.433  20.971  0.00  0.00    +0.000 OA
ATOM      9  C   UNL     1      -3.831  14.962  21.059  0.00  0.00    +0.000 A 
ATOM     10  C   UNL     1      -4.532  16.136  20.728  0.00  0.00    +0.000 A 
ATOM     11  C   UNL     1      -3.827  17.270  20.356  0.00  0.00    +0.000 A 
ATOM     12  C   UNL     1      -2.445  17.195  20.249  0.00  0.00    +0.000 A 
ATOM     13  C   UNL     1      -1.758  15.997  20.526  0.00  0.00    +0.000 A 
ATOM     14  C   UNL     1      -2.435  14.858  20.989  0.00  0.00    +0.000 A 
ENDROOT
BRANCH   5  15
ATOM     15  C   UNL     1      -4.058  14.950  24.044  0.00  0.00    +0.000 A 
ATOM     16  C   UNL     1      -2.840  15.414  24.583  0.00  0.00    +0.000 A 
ATOM     17  C   UNL     1      -2.717  16.666  25.182  0.00  0.00    +0.000 A 
ATOM     18  C   UNL     1      -3.827  17.490  25.285  0.00  0.00    +0.000 A 
ATOM     19  C   UNL     1      -5.056  17.057  24.787  0.00  0.00    +0.000 A 
ATOM     20  C   UNL     1      -5.171  15.799  24.180  0.00  0.00    +0.000 A 
ENDBRANCH   5  15
BRANCH   1  21
ATOM     21  C   UNL     1      -0.591  13.179  20.610  0.00  0.00    +0.000 C 
BRANCH  21  23
ATOM     22  O   UNL     1       0.079  13.015  18.300  0.00  0.00    +0.000 OA
ATOM     23  C   UNL     1      -0.739  12.687  19.159  0.00  0.00    +0.000 C 
ATOM     24  N   UNL     1      -1.895  12.007  18.855  0.00  0.00    +0.000 N 
ATOM     25  H   UNL     1      -2.590  11.914  19.589  0.00  0.00    +0.000 HD
BRANCH  24  26
ATOM     26  C   UNL     1      -2.215  11.563  17.509  0.00  0.00    +0.000 C 
ATOM     27  C   UNL     1      -1.827  10.106  17.272  0.00  0.00    +0.000 C 
ATOM     28  C   UNL     1      -2.663   9.691  16.068  0.00  0.00    +0.000 C 
ATOM     29  C   UNL     1      -3.929  10.545  16.119  0.00  0.00    +0.000 C 
ATOM     30  C   UNL     1      -3.716  11.565  17.237  0.00  0.00    +0.000 C 
ENDBRANCH  24  26
ENDBRANCH  21  23
ENDBRANCH   1  21
TORSDOF 4
ENDMDL
MODEL 9
REMARK VINA RESULT:      -6.2      0.975      1.117
REMARK  Name = 
REMARK  4 active torsions:
REMARK  status: ('A' for Active; 'I' for Inactive)
REMARK    1  A    between atoms: C_2  and  C_3
REMARK    2  A    between atoms: C_3  and  N_4
REMARK    3  A    between atoms: C_8  and  C_9
REMARK    4  A    between atoms: N_24  and  C_25
REMARK                            x       y       z     vdW  Elec       q    Type
REMARK                         _______ _______ _______ _____ _____    ______ ____
ROOT
ATOM      1  N   UNL     1       0.558  11.128  18.862  0.00  0.00    +0.000 N 
ATOM      2  C   UNL     1       1.582  12.064  18.881  0.00  0.00    +0.000 C 
ATOM      3  O   UNL     1       2.198  12.327  17.839  0.00  0.00    +0.000 OA
ATOM      4  C   UNL     1       2.099  12.634  20.193  0.00  0.00    +0.000 C 
ATOM      5  C   UNL     1       1.089  13.294  21.119  0.00  0.00    +0.000 C 
ATOM      6  S   UNL     1       0.019  12.009  21.777  0.00  0.00    +0.000 S 
ATOM      7  O   UNL     1      -0.627  12.505  22.972  0.00  0.00    +0.000 OA
ATOM      8  O   UNL     1       0.725  10.735  21.831  0.00  0.00    +0.000 OA
ATOM      9  C   UNL     1      -1.179  11.880  20.499  0.00  0.00    +0.000 A 
ATOM     10  C   UNL     1      -2.484  12.303  20.813  0.00  0.00    +0.000 A 
ATOM     11  C   UNL     1      -3.441  12.365  19.812  0.00  0.00    +0.000 A 
ATOM     12  C   UNL     1      -3.105  11.936  18.536  0.00  0.00    +0.000 A 
ATOM     13  C   UNL     1      -1.812  11.459  18.246  0.00  0.00    +0.000 A 
ATOM     14  C   UNL     1      -0.797  11.466  19.215  0.00  0.00    +0.000 A 
ENDROOT
BRANCH   5  15
ATOM     15  C   UNL     1       0.312  14.475  20.516  0.00  0.00    +0.000 A 
ATOM     16  C   UNL     1       0.481  14.872  19.174  0.00  0.00    +0.000 A 
ATOM     17  C   UNL     1      -0.212  15.947  18.621  0.00  0.00    +0.000 A 
ATOM     18  C   UNL     1      -1.085  16.682  19.410  0.00  0.00    +0.000 A 
ATOM     19  C   UNL     1      -1.259  16.335  20.750  0.00  0.00    +0.000 A 
ATOM     20  C   UNL     1      -0.563  15.249  21.297  0.00  0.00    +0.000 A 
ENDBRANCH   5  15
BRANCH   1  21
ATOM     21  C   UNL     1       0.831   9.949  18.027  0.00  0.00    +0.000 C 
BRANCH  21  23
ATOM     22  O   UNL     1       2.967   8.866  17.747  0.00  0.00    +0.000 OA
ATOM     23  C   UNL     1       1.898   8.889  18.356  0.00  0.00    +0.000 C 
ATOM     24  N   UNL     1       1.529   7.898  19.236  0.00  0.00    +0.000 N 
ATOM     25  H   UNL     1       0.572   7.904  19.574  0.00  0.00    +0.000 HD
BRANCH  24  26
ATOM     26  C   UNL     1       2.396   6.781  19.569  0.00  0.00    +0.000 C 
ATOM     27  C   UNL     1       1.821   5.913  20.684  0.00  0.00    +0.000 C 
ATOM     28  C   UNL     1       2.558   4.587  20.541  0.00  0.00    +0.000 C 
ATOM     29  C   UNL     1       2.915   4.461  19.061  0.00  0.00    +0.000 C 
ATOM     30  C   UNL     1       2.547   5.795  18.413  0.00  0.00    +0.000 C 
ENDBRANCH  24  26
ENDBRANCH  21  23
ENDBRANCH   1  21
TORSDOF 4
ENDMDL
