MODEL 1
REMARK VINA RESULT:      -7.7      0.000      0.000
REMARK  Name = 
REMARK  1 active torsions:
REMARK  status: ('A' for Active; 'I' for Inactive)
REMARK    1  A    between atoms: C_2  and  C_3
REMARK                            x       y       z     vdW  Elec       q    Type
REMARK                         _______ _______ _______ _____ _____    ______ ____
ROOT
ATOM      1  C   UNL     1       3.815   3.120  20.042  0.00  0.00    +0.000 A 
ATOM      2  C   UNL     1       3.829   2.722  18.655  0.00  0.00    +0.000 A 
ATOM      3  C   UNL     1       2.700   2.773  17.898  0.00  0.00    +0.000 A 
ATOM      4  C   UNL     1       2.704   4.042  17.451  0.00  0.00    +0.000 A 
ATOM      5  C   UNL     1       2.755   4.893  18.552  0.00  0.00    +0.000 A 
ATOM      6  C   UNL     1       3.102   4.372  19.833  0.00  0.00    +0.000 A 
ATOM      7  N   UNL     1       2.581   5.418  20.704  0.00  0.00    +0.000 N 
ATOM      8  C   UNL     1       2.307   6.603  19.959  0.00  0.00    +0.000 A 
ATOM      9  C   UNL     1       1.760   7.970  19.859  0.00  0.00    +0.000 A 
ATOM     10  C   UNL     1       1.038   8.981  20.567  0.00  0.00    +0.000 A 
ATOM     11  C   UNL     1       0.742  10.233  19.934  0.00  0.00    +0.000 A 
ATOM     12 BR   UNL     1      -0.244  11.578  20.848  0.00  0.00    +0.000 Br
ATOM     13  C   UNL     1       1.144  10.524  18.634  0.00  0.00    +0.000 A 
ATOM     14  C   UNL     1       1.814   9.549  17.913  0.00  0.00    +0.000 A 
ATOM     15  C   UNL     1       2.062   8.312  18.532  0.00  0.00    +0.000 A 
ATOM     16  O   UNL     1       2.583   7.288  17.829  0.00  0.00    +0.000 OA
ATOM     17  C   UNL     1       2.653   6.271  18.699  0.00  0.00    +0.000 A 
ATOM     18  H   UNL     1       2.427   5.327  21.700  0.00  0.00    +0.000 HD
ENDROOT
BRANCH   1  20
ATOM     19  O   UNL     1       5.305   1.560  21.140  0.00  0.00    +0.000 OA
ATOM     20  C   UNL     1       4.566   1.795  20.220  0.00  0.00    +0.000 C 
ENDBRANCH   1  20
TORSDOF 1
ENDMDL
MODEL 2
REMARK VINA RESULT:      -7.4      1.108      1.364
REMARK  Name = 
REMARK  1 active torsions:
REMARK  status: ('A' for Active; 'I' for Inactive)
REMARK    1  A    between atoms: C_2  and  C_3
REMARK                            x       y       z     vdW  Elec       q    Type
REMARK                         _______ _______ _______ _____ _____    ______ ____
ROOT
ATOM      1  C   UNL     1       3.633   3.720  19.891  0.00  0.00    +0.000 A 
ATOM      2  C   UNL     1       3.639   3.700  18.448  0.00  0.00    +0.000 A 
ATOM      3  C   UNL     1       2.486   3.838  17.739  0.00  0.00    +0.000 A 
ATOM      4  C   UNL     1       2.361   5.174  17.641  0.00  0.00    +0.000 A 
ATOM      5  C   UNL     1       2.370   5.710  18.927  0.00  0.00    +0.000 A 
ATOM      6  C   UNL     1       2.803   4.908  20.023  0.00  0.00    +0.000 A 
ATOM      7  N   UNL     1       2.218   5.636  21.142  0.00  0.00    +0.000 N 
ATOM      8  C   UNL     1       1.813   6.942  20.737  0.00  0.00    +0.000 A 
ATOM      9  C   UNL     1       1.141   8.229  21.003  0.00  0.00    +0.000 A 
ATOM     10  C   UNL     1       0.353   8.946  21.956  0.00  0.00    +0.000 A 
ATOM     11  C   UNL     1      -0.075  10.285  21.676  0.00  0.00    +0.000 A 
ATOM     12 BR   UNL     1      -1.150  11.244  22.918  0.00  0.00    +0.000 Br
ATOM     13  C   UNL     1       0.257  10.942  20.495  0.00  0.00    +0.000 A 
ATOM     14  C   UNL     1       0.989  10.258  19.539  0.00  0.00    +0.000 A 
ATOM     15  C   UNL     1       1.368   8.932  19.810  0.00  0.00    +0.000 A 
ATOM     16  O   UNL     1       1.958   8.182  18.859  0.00  0.00    +0.000 OA
ATOM     17  C   UNL     1       2.147   6.985  19.431  0.00  0.00    +0.000 A 
ATOM     18  H   UNL     1       2.104   5.273  22.080  0.00  0.00    +0.000 HD
ENDROOT
BRANCH   1  20
ATOM     19  O   UNL     1       5.060   1.903  20.613  0.00  0.00    +0.000 OA
ATOM     20  C   UNL     1       4.507   2.473  19.710  0.00  0.00    +0.000 C 
ENDBRANCH   1  20
TORSDOF 1
ENDMDL
MODEL 3
REMARK VINA RESULT:      -7.2      3.190      4.018
REMARK  Name = 
REMARK  1 active torsions:
REMARK  status: ('A' for Active; 'I' for Inactive)
REMARK    1  A    between atoms: C_2  and  C_3
REMARK                            x       y       z     vdW  Elec       q    Type
REMARK                         _______ _______ _______ _____ _____    ______ ____
ROOT
ATOM      1  C   UNL     1       5.972   5.200  15.286  0.00  0.00    +0.000 A 
ATOM      2  C   UNL     1       6.665   4.289  16.165  0.00  0.00    +0.000 A 
ATOM      3  C   UNL     1       7.287   4.736  17.290  0.00  0.00    +0.000 A 
ATOM      4  C   UNL     1       6.293   4.728  18.196  0.00  0.00    +0.000 A 
ATOM      5  C   UNL     1       5.250   5.512  17.708  0.00  0.00    +0.000 A 
ATOM      6  C   UNL     1       5.234   5.890  16.334  0.00  0.00    +0.000 A 
ATOM      7  N   UNL     1       4.320   7.025  16.373  0.00  0.00    +0.000 N 
ATOM      8  C   UNL     1       3.592   7.043  17.599  0.00  0.00    +0.000 A 
ATOM      9  C   UNL     1       2.655   7.690  18.538  0.00  0.00    +0.000 A 
ATOM     10  C   UNL     1       1.898   8.879  18.780  0.00  0.00    +0.000 A 
ATOM     11  C   UNL     1       1.093   8.992  19.961  0.00  0.00    +0.000 A 
ATOM     12 BR   UNL     1       0.102  10.578  20.315  0.00  0.00    +0.000 Br
ATOM     13  C   UNL     1       1.000   7.971  20.902  0.00  0.00    +0.000 A 
ATOM     14  C   UNL     1       1.752   6.823  20.709  0.00  0.00    +0.000 A 
ATOM     15  C   UNL     1       2.568   6.742  19.569  0.00  0.00    +0.000 A 
ATOM     16  O   UNL     1       3.420   5.710  19.410  0.00  0.00    +0.000 OA
ATOM     17  C   UNL     1       4.055   5.961  18.257  0.00  0.00    +0.000 A 
ATOM     18  H   UNL     1       4.211   7.714  15.640  0.00  0.00    +0.000 HD
ENDROOT
BRANCH   1  20
ATOM     19  O   UNL     1       6.275   3.670  13.435  0.00  0.00    +0.000 OA
ATOM     20  C   UNL     1       6.766   4.447  14.212  0.00  0.00    +0.000 C 
ENDBRANCH   1  20
TORSDOF 1
ENDMDL
MODEL 4
REMARK VINA RESULT:      -6.7      2.586      3.396
REMARK  Name = 
REMARK  1 active torsions:
REMARK  status: ('A' for Active; 'I' for Inactive)
REMARK    1  A    between atoms: C_2  and  C_3
REMARK                            x       y       z     vdW  Elec       q    Type
REMARK                         _______ _______ _______ _____ _____    ______ ____
ROOT
ATOM      1  C   UNL     1       5.223   4.966  16.226  0.00  0.00    +0.000 A 
ATOM      2  C   UNL     1       5.829   4.217  17.301  0.00  0.00    +0.000 A 
ATOM      3  C   UNL     1       6.466   4.849  18.325  0.00  0.00    +0.000 A 
ATOM      4  C   UNL     1       5.460   5.108  19.179  0.00  0.00    +0.000 A 
ATOM      5  C   UNL     1       4.489   5.843  18.502  0.00  0.00    +0.000 A 
ATOM      6  C   UNL     1       4.525   5.917  17.079  0.00  0.00    +0.000 A 
ATOM      7  N   UNL     1       3.702   7.096  16.846  0.00  0.00    +0.000 N 
ATOM      8  C   UNL     1       2.957   7.430  18.016  0.00  0.00    +0.000 A 
ATOM      9  C   UNL     1       2.059   8.331  18.765  0.00  0.00    +0.000 A 
ATOM     10  C   UNL     1       1.393   9.595  18.723  0.00  0.00    +0.000 A 
ATOM     11  C   UNL     1       0.580  10.018  19.826  0.00  0.00    +0.000 A 
ATOM     12 BR   UNL     1      -0.289  11.710  19.803  0.00  0.00    +0.000 Br
ATOM     13  C   UNL     1       0.393   9.232  20.959  0.00  0.00    +0.000 A 
ATOM     14  C   UNL     1       1.056   8.019  21.040  0.00  0.00    +0.000 A 
ATOM     15  C   UNL     1       1.881   7.635  19.970  0.00  0.00    +0.000 A 
ATOM     16  O   UNL     1       2.653   6.534  20.062  0.00  0.00    +0.000 OA
ATOM     17  C   UNL     1       3.324   6.484  18.904  0.00  0.00    +0.000 A 
ATOM     18  H   UNL     1       3.659   7.618  15.980  0.00  0.00    +0.000 HD
ENDROOT
BRANCH   1  20
ATOM     19  O   UNL     1       6.101   4.037  14.171  0.00  0.00    +0.000 OA
ATOM     20  C   UNL     1       5.973   3.944  15.364  0.00  0.00    +0.000 C 
ENDBRANCH   1  20
TORSDOF 1
ENDMDL
MODEL 5
REMARK VINA RESULT:      -6.7      3.288      7.128
REMARK  Name = 
REMARK  1 active torsions:
REMARK  status: ('A' for Active; 'I' for Inactive)
REMARK    1  A    between atoms: C_2  and  C_3
REMARK                            x       y       z     vdW  Elec       q    Type
REMARK                         _______ _______ _______ _____ _____    ______ ____
ROOT
ATOM      1  C   UNL     1       1.926  11.470  18.328  0.00  0.00    +0.000 A 
ATOM      2  C   UNL     1       1.012  11.798  19.395  0.00  0.00    +0.000 A 
ATOM      3  C   UNL     1      -0.191  11.173  19.506  0.00  0.00    +0.000 A 
ATOM      4  C   UNL     1       0.114  10.072  20.213  0.00  0.00    +0.000 A 
ATOM      5  C   UNL     1       1.115   9.379  19.535  0.00  0.00    +0.000 A 
ATOM      6  C   UNL     1       1.836  10.026  18.489  0.00  0.00    +0.000 A 
ATOM      7  N   UNL     1       2.383   8.876  17.782  0.00  0.00    +0.000 N 
ATOM      8  C   UNL     1       2.290   7.700  18.584  0.00  0.00    +0.000 A 
ATOM      9  C   UNL     1       2.429   6.242  18.764  0.00  0.00    +0.000 A 
ATOM     10  C   UNL     1       2.727   5.017  18.088  0.00  0.00    +0.000 A 
ATOM     11  C   UNL     1       2.707   3.776  18.805  0.00  0.00    +0.000 A 
ATOM     12 BR   UNL     1       3.070   2.133  17.917  0.00  0.00    +0.000 Br
ATOM     13  C   UNL     1       2.416   3.704  20.164  0.00  0.00    +0.000 A 
ATOM     14  C   UNL     1       2.089   4.871  20.834  0.00  0.00    +0.000 A 
ATOM     15  C   UNL     1       2.073   6.075  20.111  0.00  0.00    +0.000 A 
ATOM     16  O   UNL     1       1.627   7.210  20.683  0.00  0.00    +0.000 OA
ATOM     17  C   UNL     1       1.713   8.139  19.721  0.00  0.00    +0.000 A 
ATOM     18  H   UNL     1       2.773   8.894  16.848  0.00  0.00    +0.000 HD
ENDROOT
BRANCH   1  20
ATOM     19  O   UNL     1       3.014  13.632  18.267  0.00  0.00    +0.000 OA
ATOM     20  C   UNL     1       1.995  12.996  18.192  0.00  0.00    +0.000 C 
ENDBRANCH   1  20
TORSDOF 1
ENDMDL
MODEL 6
REMARK VINA RESULT:      -6.5      4.038      6.444
REMARK  Name = 
REMARK  1 active torsions:
REMARK  status: ('A' for Active; 'I' for Inactive)
REMARK    1  A    between atoms: C_2  and  C_3
REMARK                            x       y       z     vdW  Elec       q    Type
REMARK                         _______ _______ _______ _____ _____    ______ ____
ROOT
ATOM      1  C   UNL     1       1.525   8.436  19.877  0.00  0.00    +0.000 A 
ATOM      2  C   UNL     1       1.420   7.514  20.982  0.00  0.00    +0.000 A 
ATOM      3  C   UNL     1       1.109   6.205  20.779  0.00  0.00    +0.000 A 
ATOM      4  C   UNL     1       2.311   5.653  20.537  0.00  0.00    +0.000 A 
ATOM      5  C   UNL     1       2.895   6.328  19.467  0.00  0.00    +0.000 A 
ATOM      6  C   UNL     1       2.360   7.581  19.046  0.00  0.00    +0.000 A 
ATOM      7  N   UNL     1       2.909   7.673  17.699  0.00  0.00    +0.000 N 
ATOM      8  C   UNL     1       3.969   6.735  17.522  0.00  0.00    +0.000 A 
ATOM      9  C   UNL     1       4.960   6.049  16.670  0.00  0.00    +0.000 A 
ATOM     10  C   UNL     1       5.419   5.896  15.325  0.00  0.00    +0.000 A 
ATOM     11  C   UNL     1       6.509   5.011  15.032  0.00  0.00    +0.000 A 
ATOM     12 BR   UNL     1       7.114   4.770  13.244  0.00  0.00    +0.000 Br
ATOM     13  C   UNL     1       7.167   4.285  16.020  0.00  0.00    +0.000 A 
ATOM     14  C   UNL     1       6.719   4.388  17.327  0.00  0.00    +0.000 A 
ATOM     15  C   UNL     1       5.624   5.227  17.594  0.00  0.00    +0.000 A 
ATOM     16  O   UNL     1       5.066   5.253  18.819  0.00  0.00    +0.000 OA
ATOM     17  C   UNL     1       4.045   6.115  18.716  0.00  0.00    +0.000 A 
ATOM     18  H   UNL     1       2.589   8.308  16.979  0.00  0.00    +0.000 HD
ENDROOT
BRANCH   1  20
ATOM     19  O   UNL     1       0.931   9.601  21.913  0.00  0.00    +0.000 OA
ATOM     20  C   UNL     1       0.646   9.306  20.782  0.00  0.00    +0.000 C 
ENDBRANCH   1  20
TORSDOF 1
ENDMDL
MODEL 7
REMARK VINA RESULT:      -6.4      1.141      1.267
REMARK  Name = 
REMARK  1 active torsions:
REMARK  status: ('A' for Active; 'I' for Inactive)
REMARK    1  A    between atoms: C_2  and  C_3
REMARK                            x       y       z     vdW  Elec       q    Type
REMARK                         _______ _______ _______ _____ _____    ______ ____
ROOT
ATOM      1  C   UNL     1       2.800   3.972  20.552  0.00  0.00    +0.000 A 
ATOM      2  C   UNL     1       2.968   3.508  19.196  0.00  0.00    +0.000 A 
ATOM      3  C   UNL     1       1.979   3.661  18.274  0.00  0.00    +0.000 A 
ATOM      4  C   UNL     1       2.213   4.895  17.795  0.00  0.00    +0.000 A 
ATOM      5  C   UNL     1       2.209   5.787  18.865  0.00  0.00    +0.000 A 
ATOM      6  C   UNL     1       2.293   5.290  20.199  0.00  0.00    +0.000 A 
ATOM      7  N   UNL     1       1.788   6.433  20.949  0.00  0.00    +0.000 N 
ATOM      8  C   UNL     1       1.781   7.605  20.136  0.00  0.00    +0.000 A 
ATOM      9  C   UNL     1       1.436   9.023  19.913  0.00  0.00    +0.000 A 
ATOM     10  C   UNL     1       0.753  10.148  20.472  0.00  0.00    +0.000 A 
ATOM     11  C   UNL     1       0.718  11.394  19.763  0.00  0.00    +0.000 A 
ATOM     12 BR   UNL     1      -0.212  12.893  20.476  0.00  0.00    +0.000 Br
ATOM     13  C   UNL     1       1.342  11.570  18.532  0.00  0.00    +0.000 A 
ATOM     14  C   UNL     1       1.980  10.486  17.952  0.00  0.00    +0.000 A 
ATOM     15  C   UNL     1       1.972   9.260  18.638  0.00  0.00    +0.000 A 
ATOM     16  O   UNL     1       2.456   8.147  18.054  0.00  0.00    +0.000 OA
ATOM     17  C   UNL     1       2.265   7.173  18.954  0.00  0.00    +0.000 A 
ATOM     18  H   UNL     1       1.478   6.410  21.912  0.00  0.00    +0.000 HD
ENDROOT
BRANCH   1  20
ATOM     19  O   UNL     1       3.246   2.058  21.963  0.00  0.00    +0.000 OA
ATOM     20  C   UNL     1       3.340   2.576  20.881  0.00  0.00    +0.000 C 
ENDBRANCH   1  20
TORSDOF 1
ENDMDL
MODEL 8
REMARK VINA RESULT:      -6.4      1.614      2.251
REMARK  Name = 
REMARK  1 active torsions:
REMARK  status: ('A' for Active; 'I' for Inactive)
REMARK    1  A    between atoms: C_2  and  C_3
REMARK                            x       y       z     vdW  Elec       q    Type
REMARK                         _______ _______ _______ _____ _____    ______ ____
ROOT
ATOM      1  C   UNL     1       3.657   4.901  19.827  0.00  0.00    +0.000 A 
ATOM      2  C   UNL     1       3.674   4.927  18.384  0.00  0.00    +0.000 A 
ATOM      3  C   UNL     1       2.517   4.968  17.669  0.00  0.00    +0.000 A 
ATOM      4  C   UNL     1       2.254   6.285  17.610  0.00  0.00    +0.000 A 
ATOM      5  C   UNL     1       2.199   6.778  18.912  0.00  0.00    +0.000 A 
ATOM      6  C   UNL     1       2.707   5.992  19.988  0.00  0.00    +0.000 A 
ATOM      7  N   UNL     1       2.042   6.619  21.123  0.00  0.00    +0.000 N 
ATOM      8  C   UNL     1       1.506   7.888  20.754  0.00  0.00    +0.000 A 
ATOM      9  C   UNL     1       0.704   9.090  21.053  0.00  0.00    +0.000 A 
ATOM     10  C   UNL     1      -0.160   9.691  22.021  0.00  0.00    +0.000 A 
ATOM     11  C   UNL     1      -0.724  10.986  21.778  0.00  0.00    +0.000 A 
ATOM     12 BR   UNL     1      -1.901  11.789  23.040  0.00  0.00    +0.000 Br
ATOM     13  C   UNL     1      -0.455  11.712  20.621  0.00  0.00    +0.000 A 
ATOM     14  C   UNL     1       0.350  11.137  19.652  0.00  0.00    +0.000 A 
ATOM     15  C   UNL     1       0.863   9.850  19.885  0.00  0.00    +0.000 A 
ATOM     16  O   UNL     1       1.533   9.196  18.917  0.00  0.00    +0.000 OA
ATOM     17  C   UNL     1       1.843   8.007  19.454  0.00  0.00    +0.000 A 
ATOM     18  H   UNL     1       1.962   6.218  22.048  0.00  0.00    +0.000 HD
ENDROOT
BRANCH   1  20
ATOM     19  O   UNL     1       5.817   3.921  19.343  0.00  0.00    +0.000 OA
ATOM     20  C   UNL     1       4.656   3.757  19.615  0.00  0.00    +0.000 C 
ENDBRANCH   1  20
TORSDOF 1
ENDMDL
MODEL 9
REMARK VINA RESULT:      -6.3      3.938      7.736
REMARK  Name = 
REMARK  1 active torsions:
REMARK  status: ('A' for Active; 'I' for Inactive)
REMARK    1  A    between atoms: C_2  and  C_3
REMARK                            x       y       z     vdW  Elec       q    Type
REMARK                         _______ _______ _______ _____ _____    ______ ____
ROOT
ATOM      1  C   UNL     1      -1.694  11.507  22.727  0.00  0.00    +0.000 A 
ATOM      2  C   UNL     1      -1.406  12.771  22.093  0.00  0.00    +0.000 A 
ATOM      3  C   UNL     1      -0.131  13.237  22.003  0.00  0.00    +0.000 A 
ATOM      4  C   UNL     1       0.313  12.660  20.872  0.00  0.00    +0.000 A 
ATOM      5  C   UNL     1       0.161  11.281  20.997  0.00  0.00    +0.000 A 
ATOM      6  C   UNL     1      -0.660  10.751  22.035  0.00  0.00    +0.000 A 
ATOM      7  N   UNL     1      -0.169   9.381  22.100  0.00  0.00    +0.000 N 
ATOM      8  C   UNL     1       0.598   9.065  20.940  0.00  0.00    +0.000 A 
ATOM      9  C   UNL     1       1.475   8.155  20.177  0.00  0.00    +0.000 A 
ATOM     10  C   UNL     1       2.191   6.919  20.238  0.00  0.00    +0.000 A 
ATOM     11  C   UNL     1       2.962   6.477  19.113  0.00  0.00    +0.000 A 
ATOM     12 BR   UNL     1       3.947   4.851  19.186  0.00  0.00    +0.000 Br
ATOM     13  C   UNL     1       3.040   7.205  17.930  0.00  0.00    +0.000 A 
ATOM     14  C   UNL     1       2.385   8.423  17.857  0.00  0.00    +0.000 A 
ATOM     15  C   UNL     1       1.666   8.864  18.981  0.00  0.00    +0.000 A 
ATOM     16  O   UNL     1       1.131  10.099  19.009  0.00  0.00    +0.000 OA
ATOM     17  C   UNL     1       0.559  10.202  20.216  0.00  0.00    +0.000 A 
ATOM     18  H   UNL     1      -0.338   8.735  22.861  0.00  0.00    +0.000 HD
ENDROOT
BRANCH   1  20
ATOM     19  O   UNL     1      -3.813  11.887  23.834  0.00  0.00    +0.000 OA
ATOM     20  C   UNL     1      -2.772  12.338  23.433  0.00  0.00    +0.000 C 
ENDBRANCH   1  20
TORSDOF 1
ENDMDL
