MODEL 1
REMARK VINA RESULT:      -7.7      0.000      0.000
REMARK  Name = 
REMARK  13 active torsions:
REMARK  status: ('A' for Active; 'I' for Inactive)
REMARK    1  A    between atoms: C_1  and  O_2
REMARK    2  A    between atoms: O_2  and  C_3
REMARK    3  A    between atoms: C_6  and  O_7
REMARK    4  A    between atoms: O_7  and  C_8
REMARK    5  A    between atoms: C_9  and  C_10
REMARK    6  A    between atoms: C_10  and  C_11
REMARK    7  A    between atoms: C_11  and  N_12
REMARK    8  A    between atoms: C_13  and  C_15
REMARK    9  A    between atoms: C_15  and  S_16
REMARK   10  A    between atoms: S_16  and  C_19
REMARK   11  A    between atoms: C_19  and  C_20
REMARK   12  A    between atoms: C_22  and  C_23
REMARK   13  A    between atoms: C_31  and  C_32
REMARK                            x       y       z     vdW  Elec       q    Type
REMARK                         _______ _______ _______ _____ _____    ______ ____
ROOT
ATOM      1  C   UNL     1       2.663   4.987  20.487  0.00  0.00    +0.000 C 
ENDROOT
BRANCH   1   3
ATOM      2  N   UNL     1       1.973   7.283  20.938  0.00  0.00    +0.000 N 
ATOM      3  C   UNL     1       1.564   6.000  20.645  0.00  0.00    +0.000 C 
ATOM      4  O   UNL     1       0.381   5.681  20.561  0.00  0.00    +0.000 OA
ATOM      5  H   UNL     1       2.959   7.509  20.996  0.00  0.00    +0.000 HD
BRANCH   2   6
ATOM      6  C   UNL     1       1.015   8.377  21.053  0.00  0.00    +0.000 C 
BRANCH   6   7
ATOM      7  C   UNL     1       0.864   9.141  19.736  0.00  0.00    +0.000 C 
BRANCH   7  12
ATOM      8  C   UNL     1      -1.150  12.080  21.081  0.00  0.00    +0.000 A 
ATOM      9  C   UNL     1      -1.989  12.378  20.017  0.00  0.00    +0.000 A 
ATOM     10  C   UNL     1      -1.922  11.639  18.837  0.00  0.00    +0.000 A 
ATOM     11  C   UNL     1      -1.031  10.565  18.707  0.00  0.00    +0.000 A 
ATOM     12  C   UNL     1      -0.159  10.262  19.770  0.00  0.00    +0.000 A 
ATOM     13  C   UNL     1      -0.228  11.041  20.947  0.00  0.00    +0.000 A 
BRANCH   8  15
ATOM     14  C   UNL     1      -2.351  12.454  23.096  0.00  0.00    +0.000 C 
ATOM     15  O   UNL     1      -1.337  12.861  22.186  0.00  0.00    +0.000 OA
ENDBRANCH   8  15
BRANCH  11  16
ATOM     16  O   UNL     1      -0.955   9.810  17.562  0.00  0.00    +0.000 OA
ATOM     17  C   UNL     1      -2.060   9.963  16.666  0.00  0.00    +0.000 C 
ENDBRANCH  11  16
ENDBRANCH   7  12
ENDBRANCH   6   7
ENDBRANCH   2   6
ENDBRANCH   1   3
BRANCH   1  18
ATOM     18  S   UNL     1       3.392   5.185  18.889  0.00  0.00    +0.000 S 
ATOM     19  O   UNL     1       2.581   4.493  17.897  0.00  0.00    +0.000 OA
ATOM     20  O   UNL     1       3.719   6.587  18.706  0.00  0.00    +0.000 OA
BRANCH  18  21
ATOM     21  C   UNL     1       4.921   4.268  18.995  0.00  0.00    +0.000 C 
BRANCH  21  22
ATOM     22  C   UNL     1       5.826   4.565  17.868  0.00  0.00    +0.000 A 
ATOM     23  N   UNL     1       5.570   4.078  16.603  0.00  0.00    +0.000 NA
ATOM     24  C   UNL     1       6.550   4.567  15.864  0.00  0.00    +0.000 A 
ATOM     25  O   UNL     1       7.456   5.314  16.567  0.00  0.00    +0.000 OA
ATOM     26  C   UNL     1       6.981   5.316  17.847  0.00  0.00    +0.000 A 
ATOM     27  C   UNL     1       7.740   6.084  18.851  0.00  0.00    +0.000 C 
BRANCH  24  28
ATOM     28  C   UNL     1       6.763   4.464  14.425  0.00  0.00    +0.000 A 
ATOM     29  C   UNL     1       7.617   5.346  13.743  0.00  0.00    +0.000 A 
ATOM     30  C   UNL     1       7.774   5.265  12.359  0.00  0.00    +0.000 A 
ATOM     31  C   UNL     1       7.080   4.297  11.637  0.00  0.00    +0.000 A 
ATOM     32  C   UNL     1       6.237   3.411  12.304  0.00  0.00    +0.000 A 
ATOM     33 CL   UNL     1       5.375   2.219  11.410  0.00  0.00    +0.000 Cl
ATOM     34  C   UNL     1       6.078   3.486  13.688  0.00  0.00    +0.000 A 
ENDBRANCH  24  28
ENDBRANCH  21  22
ENDBRANCH  18  21
ENDBRANCH   1  18
TORSDOF 10
ENDMDL
MODEL 2
REMARK VINA RESULT:      -7.6      5.146      8.811
REMARK  Name = 
REMARK  13 active torsions:
REMARK  status: ('A' for Active; 'I' for Inactive)
REMARK    1  A    between atoms: C_1  and  O_2
REMARK    2  A    between atoms: O_2  and  C_3
REMARK    3  A    between atoms: C_6  and  O_7
REMARK    4  A    between atoms: O_7  and  C_8
REMARK    5  A    between atoms: C_9  and  C_10
REMARK    6  A    between atoms: C_10  and  C_11
REMARK    7  A    between atoms: C_11  and  N_12
REMARK    8  A    between atoms: C_13  and  C_15
REMARK    9  A    between atoms: C_15  and  S_16
REMARK   10  A    between atoms: S_16  and  C_19
REMARK   11  A    between atoms: C_19  and  C_20
REMARK   12  A    between atoms: C_22  and  C_23
REMARK   13  A    between atoms: C_31  and  C_32
REMARK                            x       y       z     vdW  Elec       q    Type
REMARK                         _______ _______ _______ _____ _____    ______ ____
ROOT
ATOM      1  C   UNL     1       6.169   6.403  17.646  0.00  0.00    +0.000 C 
ENDROOT
BRANCH   1   3
ATOM      2  N   UNL     1       7.253   8.551  18.045  0.00  0.00    +0.000 N 
ATOM      3  C   UNL     1       7.272   7.374  17.329  0.00  0.00    +0.000 C 
ATOM      4  O   UNL     1       8.102   7.137  16.456  0.00  0.00    +0.000 OA
ATOM      5  H   UNL     1       6.554   8.708  18.760  0.00  0.00    +0.000 HD
BRANCH   2   6
ATOM      6  C   UNL     1       8.301   9.553  17.884  0.00  0.00    +0.000 C 
BRANCH   6   7
ATOM      7  C   UNL     1       9.257   9.572  19.079  0.00  0.00    +0.000 C 
BRANCH   7  12
ATOM      8  C   UNL     1       9.296  12.354  21.680  0.00  0.00    +0.000 A 
ATOM      9  C   UNL     1       9.837  13.416  20.971  0.00  0.00    +0.000 A 
ATOM     10  C   UNL     1      10.207  13.260  19.636  0.00  0.00    +0.000 A 
ATOM     11  C   UNL     1      10.015  12.040  18.973  0.00  0.00    +0.000 A 
ATOM     12  C   UNL     1       9.486  10.946  19.683  0.00  0.00    +0.000 A 
ATOM     13  C   UNL     1       9.142  11.122  21.042  0.00  0.00    +0.000 A 
BRANCH   8  15
ATOM     14  C   UNL     1       8.446  13.954  23.215  0.00  0.00    +0.000 C 
ATOM     15  O   UNL     1       8.951  12.649  22.968  0.00  0.00    +0.000 OA
ENDBRANCH   8  15
BRANCH  11  16
ATOM     16  O   UNL     1      10.356  11.862  17.654  0.00  0.00    +0.000 OA
ATOM     17  C   UNL     1      11.507  12.596  17.225  0.00  0.00    +0.000 C 
ENDBRANCH  11  16
ENDBRANCH   7  12
ENDBRANCH   6   7
ENDBRANCH   2   6
ENDBRANCH   1   3
BRANCH   1  18
ATOM     18  S   UNL     1       6.822   5.113  18.663  0.00  0.00    +0.000 S 
ATOM     19  O   UNL     1       7.725   4.285  17.876  0.00  0.00    +0.000 OA
ATOM     20  O   UNL     1       7.281   5.701  19.909  0.00  0.00    +0.000 OA
BRANCH  18  21
ATOM     21  C   UNL     1       5.405   4.087  19.022  0.00  0.00    +0.000 C 
BRANCH  21  22
ATOM     22  C   UNL     1       4.134   4.822  18.874  0.00  0.00    +0.000 A 
ATOM     23  N   UNL     1       3.929   6.025  19.517  0.00  0.00    +0.000 NA
ATOM     24  C   UNL     1       2.722   6.398  19.129  0.00  0.00    +0.000 A 
ATOM     25  O   UNL     1       2.104   5.500  18.300  0.00  0.00    +0.000 OA
ATOM     26  C   UNL     1       3.017   4.500  18.134  0.00  0.00    +0.000 A 
ATOM     27  C   UNL     1       2.646   3.383  17.247  0.00  0.00    +0.000 C 
BRANCH  24  28
ATOM     28  C   UNL     1       1.998   7.631  19.414  0.00  0.00    +0.000 A 
ATOM     29  C   UNL     1       1.864   8.645  18.452  0.00  0.00    +0.000 A 
ATOM     30  C   UNL     1       1.210   9.839  18.755  0.00  0.00    +0.000 A 
ATOM     31  C   UNL     1       0.677  10.035  20.028  0.00  0.00    +0.000 A 
ATOM     32  C   UNL     1       0.795   9.033  20.987  0.00  0.00    +0.000 A 
ATOM     33 CL   UNL     1       0.142   9.278  22.561  0.00  0.00    +0.000 Cl
ATOM     34  C   UNL     1       1.448   7.836  20.688  0.00  0.00    +0.000 A 
ENDBRANCH  24  28
ENDBRANCH  21  22
ENDBRANCH  18  21
ENDBRANCH   1  18
TORSDOF 10
ENDMDL
MODEL 3
REMARK VINA RESULT:      -7.5      1.669      1.971
REMARK  Name = 
REMARK  13 active torsions:
REMARK  status: ('A' for Active; 'I' for Inactive)
REMARK    1  A    between atoms: C_1  and  O_2
REMARK    2  A    between atoms: O_2  and  C_3
REMARK    3  A    between atoms: C_6  and  O_7
REMARK    4  A    between atoms: O_7  and  C_8
REMARK    5  A    between atoms: C_9  and  C_10
REMARK    6  A    between atoms: C_10  and  C_11
REMARK    7  A    between atoms: C_11  and  N_12
REMARK    8  A    between atoms: C_13  and  C_15
REMARK    9  A    between atoms: C_15  and  S_16
REMARK   10  A    between atoms: S_16  and  C_19
REMARK   11  A    between atoms: C_19  and  C_20
REMARK   12  A    between atoms: C_22  and  C_23
REMARK   13  A    between atoms: C_31  and  C_32
REMARK                            x       y       z     vdW  Elec       q    Type
REMARK                         _______ _______ _______ _____ _____    ______ ____
ROOT
ATOM      1  C   UNL     1       1.538   3.271  19.707  0.00  0.00    +0.000 C 
ENDROOT
BRANCH   1   3
ATOM      2  N   UNL     1       1.850   5.660  20.090  0.00  0.00    +0.000 N 
ATOM      3  C   UNL     1       1.877   4.398  20.643  0.00  0.00    +0.000 C 
ATOM      4  O   UNL     1       2.198   4.187  21.809  0.00  0.00    +0.000 OA
ATOM      5  H   UNL     1       1.577   5.793  19.124  0.00  0.00    +0.000 HD
BRANCH   2   6
ATOM      6  C   UNL     1       2.095   6.848  20.900  0.00  0.00    +0.000 C 
BRANCH   6   7
ATOM      7  C   UNL     1       0.830   7.693  21.063  0.00  0.00    +0.000 C 
BRANCH   7  12
ATOM      8  C   UNL     1       0.763  11.499  20.930  0.00  0.00    +0.000 A 
ATOM      9  C   UNL     1       1.064  11.755  19.600  0.00  0.00    +0.000 A 
ATOM     10  C   UNL     1       1.302  10.705  18.714  0.00  0.00    +0.000 A 
ATOM     11  C   UNL     1       1.213   9.372  19.136  0.00  0.00    +0.000 A 
ATOM     12  C   UNL     1       0.927   9.094  20.486  0.00  0.00    +0.000 A 
ATOM     13  C   UNL     1       0.715  10.176  21.371  0.00  0.00    +0.000 A 
BRANCH   8  15
ATOM     14  C   UNL     1      -0.711  12.667  22.380  0.00  0.00    +0.000 C 
ATOM     15  O   UNL     1       0.525  12.614  21.682  0.00  0.00    +0.000 OA
ENDBRANCH   8  15
BRANCH  11  16
ATOM     16  O   UNL     1       1.426   8.318  18.281  0.00  0.00    +0.000 OA
ATOM     17  C   UNL     1       2.709   8.306  17.648  0.00  0.00    +0.000 C 
ENDBRANCH  11  16
ENDBRANCH   7  12
ENDBRANCH   6   7
ENDBRANCH   2   6
ENDBRANCH   1   3
BRANCH   1  18
ATOM     18  S   UNL     1       2.638   3.328  18.326  0.00  0.00    +0.000 S 
ATOM     19  O   UNL     1       2.754   1.999  17.743  0.00  0.00    +0.000 OA
ATOM     20  O   UNL     1       2.264   4.454  17.489  0.00  0.00    +0.000 OA
BRANCH  18  21
ATOM     21  C   UNL     1       4.230   3.683  19.055  0.00  0.00    +0.000 C 
BRANCH  21  22
ATOM     22  C   UNL     1       5.232   4.065  18.041  0.00  0.00    +0.000 A 
ATOM     23  N   UNL     1       5.090   3.686  16.722  0.00  0.00    +0.000 NA
ATOM     24  C   UNL     1       6.133   4.227  16.117  0.00  0.00    +0.000 A 
ATOM     25  O   UNL     1       6.973   4.907  16.958  0.00  0.00    +0.000 OA
ATOM     26  C   UNL     1       6.384   4.807  18.185  0.00  0.00    +0.000 A 
ATOM     27  C   UNL     1       7.051   5.482  19.314  0.00  0.00    +0.000 C 
BRANCH  24  28
ATOM     28  C   UNL     1       6.474   4.242  14.699  0.00  0.00    +0.000 A 
ATOM     29  C   UNL     1       7.430   5.132  14.182  0.00  0.00    +0.000 A 
ATOM     30  C   UNL     1       7.711   5.167  12.816  0.00  0.00    +0.000 A 
ATOM     31  C   UNL     1       7.041   4.308  11.946  0.00  0.00    +0.000 A 
ATOM     32  C   UNL     1       6.098   3.415  12.449  0.00  0.00    +0.000 A 
ATOM     33 CL   UNL     1       5.266   2.360  11.374  0.00  0.00    +0.000 Cl
ATOM     34  C   UNL     1       5.814   3.375  13.815  0.00  0.00    +0.000 A 
ENDBRANCH  24  28
ENDBRANCH  21  22
ENDBRANCH  18  21
ENDBRANCH   1  18
TORSDOF 10
ENDMDL
MODEL 4
REMARK VINA RESULT:      -7.3      1.250      1.655
REMARK  Name = 
REMARK  13 active torsions:
REMARK  status: ('A' for Active; 'I' for Inactive)
REMARK    1  A    between atoms: C_1  and  O_2
REMARK    2  A    between atoms: O_2  and  C_3
REMARK    3  A    between atoms: C_6  and  O_7
REMARK    4  A    between atoms: O_7  and  C_8
REMARK    5  A    between atoms: C_9  and  C_10
REMARK    6  A    between atoms: C_10  and  C_11
REMARK    7  A    between atoms: C_11  and  N_12
REMARK    8  A    between atoms: C_13  and  C_15
REMARK    9  A    between atoms: C_15  and  S_16
REMARK   10  A    between atoms: S_16  and  C_19
REMARK   11  A    between atoms: C_19  and  C_20
REMARK   12  A    between atoms: C_22  and  C_23
REMARK   13  A    between atoms: C_31  and  C_32
REMARK                            x       y       z     vdW  Elec       q    Type
REMARK                         _______ _______ _______ _____ _____    ______ ____
ROOT
ATOM      1  C   UNL     1       2.898   5.904  17.692  0.00  0.00    +0.000 C 
ENDROOT
BRANCH   1   3
ATOM      2  N   UNL     1       1.660   7.687  18.803  0.00  0.00    +0.000 N 
ATOM      3  C   UNL     1       2.731   7.366  17.999  0.00  0.00    +0.000 C 
ATOM      4  O   UNL     1       3.483   8.210  17.520  0.00  0.00    +0.000 OA
ATOM      5  H   UNL     1       1.063   6.962  19.182  0.00  0.00    +0.000 HD
BRANCH   2   6
ATOM      6  C   UNL     1       1.419   9.061  19.232  0.00  0.00    +0.000 C 
BRANCH   6   7
ATOM      7  C   UNL     1       0.545   9.822  18.234  0.00  0.00    +0.000 C 
BRANCH   7  12
ATOM      8  C   UNL     1      -1.296  11.841  20.887  0.00  0.00    +0.000 A 
ATOM      9  C   UNL     1      -2.428  12.266  20.205  0.00  0.00    +0.000 A 
ATOM     10  C   UNL     1      -2.622  11.914  18.870  0.00  0.00    +0.000 A 
ATOM     11  C   UNL     1      -1.700  11.103  18.196  0.00  0.00    +0.000 A 
ATOM     12  C   UNL     1      -0.536  10.680  18.866  0.00  0.00    +0.000 A 
ATOM     13  C   UNL     1      -0.349  11.070  20.212  0.00  0.00    +0.000 A 
BRANCH   8  15
ATOM     14  C   UNL     1      -1.426  11.219  23.175  0.00  0.00    +0.000 C 
ATOM     15  O   UNL     1      -1.243  12.231  22.194  0.00  0.00    +0.000 OA
ENDBRANCH   8  15
BRANCH  11  16
ATOM     16  O   UNL     1      -1.873  10.728  16.886  0.00  0.00    +0.000 OA
ATOM     17  C   UNL     1      -2.943   9.804  16.661  0.00  0.00    +0.000 C 
ENDBRANCH  11  16
ENDBRANCH   7  12
ENDBRANCH   6   7
ENDBRANCH   2   6
ENDBRANCH   1   3
BRANCH   1  18
ATOM     18  S   UNL     1       2.854   4.996  19.207  0.00  0.00    +0.000 S 
ATOM     19  O   UNL     1       3.371   5.827  20.285  0.00  0.00    +0.000 OA
ATOM     20  O   UNL     1       1.545   4.380  19.334  0.00  0.00    +0.000 OA
BRANCH  18  21
ATOM     21  C   UNL     1       4.058   3.698  18.970  0.00  0.00    +0.000 C 
BRANCH  21  22
ATOM     22  C   UNL     1       5.091   4.073  17.984  0.00  0.00    +0.000 A 
ATOM     23  N   UNL     1       4.989   3.683  16.665  0.00  0.00    +0.000 NA
ATOM     24  C   UNL     1       6.049   4.220  16.087  0.00  0.00    +0.000 A 
ATOM     25  O   UNL     1       6.863   4.907  16.948  0.00  0.00    +0.000 OA
ATOM     26  C   UNL     1       6.238   4.816  18.158  0.00  0.00    +0.000 A 
ATOM     27  C   UNL     1       6.869   5.501  19.301  0.00  0.00    +0.000 C 
BRANCH  24  28
ATOM     28  C   UNL     1       6.434   4.223  14.680  0.00  0.00    +0.000 A 
ATOM     29  C   UNL     1       7.408   5.106  14.187  0.00  0.00    +0.000 A 
ATOM     30  C   UNL     1       7.731   5.131  12.830  0.00  0.00    +0.000 A 
ATOM     31  C   UNL     1       7.085   4.268  11.946  0.00  0.00    +0.000 A 
ATOM     32  C   UNL     1       6.124   3.382  12.426  0.00  0.00    +0.000 A 
ATOM     33 CL   UNL     1       5.321   2.323  11.333  0.00  0.00    +0.000 Cl
ATOM     34  C   UNL     1       5.798   3.353  13.783  0.00  0.00    +0.000 A 
ENDBRANCH  24  28
ENDBRANCH  21  22
ENDBRANCH  18  21
ENDBRANCH   1  18
TORSDOF 10
ENDMDL
MODEL 5
REMARK VINA RESULT:      -7.2      1.857      2.595
REMARK  Name = 
REMARK  13 active torsions:
REMARK  status: ('A' for Active; 'I' for Inactive)
REMARK    1  A    between atoms: C_1  and  O_2
REMARK    2  A    between atoms: O_2  and  C_3
REMARK    3  A    between atoms: C_6  and  O_7
REMARK    4  A    between atoms: O_7  and  C_8
REMARK    5  A    between atoms: C_9  and  C_10
REMARK    6  A    between atoms: C_10  and  C_11
REMARK    7  A    between atoms: C_11  and  N_12
REMARK    8  A    between atoms: C_13  and  C_15
REMARK    9  A    between atoms: C_15  and  S_16
REMARK   10  A    between atoms: S_16  and  C_19
REMARK   11  A    between atoms: C_19  and  C_20
REMARK   12  A    between atoms: C_22  and  C_23
REMARK   13  A    between atoms: C_31  and  C_32
REMARK                            x       y       z     vdW  Elec       q    Type
REMARK                         _______ _______ _______ _____ _____    ______ ____
ROOT
ATOM      1  C   UNL     1       2.642   5.252  17.775  0.00  0.00    +0.000 C 
ENDROOT
BRANCH   1   3
ATOM      2  N   UNL     1       2.038   7.594  18.094  0.00  0.00    +0.000 N 
ATOM      3  C   UNL     1       2.988   6.708  17.634  0.00  0.00    +0.000 C 
ATOM      4  O   UNL     1       4.033   7.069  17.100  0.00  0.00    +0.000 OA
ATOM      5  H   UNL     1       1.189   7.257  18.532  0.00  0.00    +0.000 HD
BRANCH   2   6
ATOM      6  C   UNL     1       2.273   9.034  18.078  0.00  0.00    +0.000 C 
BRANCH   6   7
ATOM      7  C   UNL     1       0.964   9.821  17.993  0.00  0.00    +0.000 C 
BRANCH   7  12
ATOM      8  C   UNL     1       0.440  13.048  19.946  0.00  0.00    +0.000 A 
ATOM      9  C   UNL     1       0.225  12.584  21.236  0.00  0.00    +0.000 A 
ATOM     10  C   UNL     1       0.240  11.217  21.507  0.00  0.00    +0.000 A 
ATOM     11  C   UNL     1       0.500  10.284  20.494  0.00  0.00    +0.000 A 
ATOM     12  C   UNL     1       0.700  10.736  19.176  0.00  0.00    +0.000 A 
ATOM     13  C   UNL     1       0.655  12.126  18.922  0.00  0.00    +0.000 A 
BRANCH   8  15
ATOM     14  C   UNL     1       1.424  14.989  18.994  0.00  0.00    +0.000 C 
ATOM     15  O   UNL     1       0.427  14.408  19.825  0.00  0.00    +0.000 OA
ENDBRANCH   8  15
BRANCH  11  16
ATOM     16  O   UNL     1       0.536   8.932  20.734  0.00  0.00    +0.000 OA
ATOM     17  C   UNL     1      -0.397   8.470  21.716  0.00  0.00    +0.000 C 
ENDBRANCH  11  16
ENDBRANCH   7  12
ENDBRANCH   6   7
ENDBRANCH   2   6
ENDBRANCH   1   3
BRANCH   1  18
ATOM     18  S   UNL     1       3.082   4.718  19.401  0.00  0.00    +0.000 S 
ATOM     19  O   UNL     1       3.677   5.828  20.131  0.00  0.00    +0.000 OA
ATOM     20  O   UNL     1       1.953   4.002  19.968  0.00  0.00    +0.000 OA
BRANCH  18  21
ATOM     21  C   UNL     1       4.402   3.547  19.129  0.00  0.00    +0.000 C 
BRANCH  21  22
ATOM     22  C   UNL     1       5.347   4.006  18.093  0.00  0.00    +0.000 A 
ATOM     23  N   UNL     1       5.220   3.595  16.782  0.00  0.00    +0.000 NA
ATOM     24  C   UNL     1       6.197   4.222  16.150  0.00  0.00    +0.000 A 
ATOM     25  O   UNL     1       6.982   4.992  16.967  0.00  0.00    +0.000 OA
ATOM     26  C   UNL     1       6.426   4.856  18.206  0.00  0.00    +0.000 A 
ATOM     27  C   UNL     1       7.044   5.609  19.312  0.00  0.00    +0.000 C 
BRANCH  24  28
ATOM     28  C   UNL     1       6.512   4.247  14.726  0.00  0.00    +0.000 A 
ATOM     29  C   UNL     1       7.472   5.126  14.201  0.00  0.00    +0.000 A 
ATOM     30  C   UNL     1       7.729   5.172  12.831  0.00  0.00    +0.000 A 
ATOM     31  C   UNL     1       7.028   4.334  11.965  0.00  0.00    +0.000 A 
ATOM     32  C   UNL     1       6.080   3.451  12.476  0.00  0.00    +0.000 A 
ATOM     33 CL   UNL     1       5.211   2.422  11.405  0.00  0.00    +0.000 Cl
ATOM     34  C   UNL     1       5.821   3.401  13.846  0.00  0.00    +0.000 A 
ENDBRANCH  24  28
ENDBRANCH  21  22
ENDBRANCH  18  21
ENDBRANCH   1  18
TORSDOF 10
ENDMDL
MODEL 6
REMARK VINA RESULT:      -7.2      3.418      9.858
REMARK  Name = 
REMARK  13 active torsions:
REMARK  status: ('A' for Active; 'I' for Inactive)
REMARK    1  A    between atoms: C_1  and  O_2
REMARK    2  A    between atoms: O_2  and  C_3
REMARK    3  A    between atoms: C_6  and  O_7
REMARK    4  A    between atoms: O_7  and  C_8
REMARK    5  A    between atoms: C_9  and  C_10
REMARK    6  A    between atoms: C_10  and  C_11
REMARK    7  A    between atoms: C_11  and  N_12
REMARK    8  A    between atoms: C_13  and  C_15
REMARK    9  A    between atoms: C_15  and  S_16
REMARK   10  A    between atoms: S_16  and  C_19
REMARK   11  A    between atoms: C_19  and  C_20
REMARK   12  A    between atoms: C_22  and  C_23
REMARK   13  A    between atoms: C_31  and  C_32
REMARK                            x       y       z     vdW  Elec       q    Type
REMARK                         _______ _______ _______ _____ _____    ______ ____
ROOT
ATOM      1  C   UNL     1       2.009   2.276  19.906  0.00  0.00    +0.000 C 
ENDROOT
BRANCH   1   3
ATOM      2  N   UNL     1       3.784   2.400  18.237  0.00  0.00    +0.000 N 
ATOM      3  C   UNL     1       2.444   2.585  18.500  0.00  0.00    +0.000 C 
ATOM      4  O   UNL     1       1.653   3.015  17.666  0.00  0.00    +0.000 OA
ATOM      5  H   UNL     1       4.405   2.040  18.952  0.00  0.00    +0.000 HD
BRANCH   2   6
ATOM      6  C   UNL     1       4.328   2.601  16.898  0.00  0.00    +0.000 C 
BRANCH   6   7
ATOM      7  C   UNL     1       4.403   4.084  16.532  0.00  0.00    +0.000 C 
BRANCH   7  12
ATOM      8  C   UNL     1       6.518   4.050  13.366  0.00  0.00    +0.000 A 
ATOM      9  C   UNL     1       7.510   4.974  13.660  0.00  0.00    +0.000 A 
ATOM     10  C   UNL     1       7.518   5.635  14.888  0.00  0.00    +0.000 A 
ATOM     11  C   UNL     1       6.546   5.362  15.860  0.00  0.00    +0.000 A 
ATOM     12  C   UNL     1       5.521   4.442  15.570  0.00  0.00    +0.000 A 
ATOM     13  C   UNL     1       5.520   3.803  14.310  0.00  0.00    +0.000 A 
BRANCH   8  15
ATOM     14  C   UNL     1       5.514   2.745  11.654  0.00  0.00    +0.000 C 
ATOM     15  O   UNL     1       6.644   3.455  12.143  0.00  0.00    +0.000 OA
ENDBRANCH   8  15
BRANCH  11  16
ATOM     16  O   UNL     1       6.539   5.987  17.084  0.00  0.00    +0.000 OA
ATOM     17  C   UNL     1       7.527   7.010  17.244  0.00  0.00    +0.000 C 
ENDBRANCH  11  16
ENDBRANCH   7  12
ENDBRANCH   6   7
ENDBRANCH   2   6
ENDBRANCH   1   3
BRANCH   1  18
ATOM     18  S   UNL     1       1.770   3.796  20.774  0.00  0.00    +0.000 S 
ATOM     19  O   UNL     1       0.443   4.319  20.481  0.00  0.00    +0.000 OA
ATOM     20  O   UNL     1       2.183   3.606  22.153  0.00  0.00    +0.000 OA
BRANCH  18  21
ATOM     21  C   UNL     1       2.921   4.922  20.001  0.00  0.00    +0.000 C 
BRANCH  21  22
ATOM     22  C   UNL     1       2.387   6.295  19.920  0.00  0.00    +0.000 A 
ATOM     23  N   UNL     1       1.585   6.806  20.919  0.00  0.00    +0.000 NA
ATOM     24  C   UNL     1       1.333   8.044  20.531  0.00  0.00    +0.000 A 
ATOM     25  O   UNL     1       1.888   8.370  19.322  0.00  0.00    +0.000 OA
ATOM     26  C   UNL     1       2.568   7.249  18.943  0.00  0.00    +0.000 A 
ATOM     27  C   UNL     1       3.312   7.306  17.671  0.00  0.00    +0.000 C 
BRANCH  24  28
ATOM     28  C   UNL     1       0.606   9.101  21.224  0.00  0.00    +0.000 A 
ATOM     29  C   UNL     1       0.218   8.967  22.567  0.00  0.00    +0.000 A 
ATOM     30  C   UNL     1      -0.519   9.967  23.203  0.00  0.00    +0.000 A 
ATOM     31  C   UNL     1      -0.875  11.119  22.503  0.00  0.00    +0.000 A 
ATOM     32  C   UNL     1      -0.486  11.266  21.174  0.00  0.00    +0.000 A 
ATOM     33 CL   UNL     1      -0.931  12.686  20.309  0.00  0.00    +0.000 Cl
ATOM     34  C   UNL     1       0.252  10.270  20.534  0.00  0.00    +0.000 A 
ENDBRANCH  24  28
ENDBRANCH  21  22
ENDBRANCH  18  21
ENDBRANCH   1  18
TORSDOF 10
ENDMDL
MODEL 7
REMARK VINA RESULT:      -7.2      5.835      9.429
REMARK  Name = 
REMARK  13 active torsions:
REMARK  status: ('A' for Active; 'I' for Inactive)
REMARK    1  A    between atoms: C_1  and  O_2
REMARK    2  A    between atoms: O_2  and  C_3
REMARK    3  A    between atoms: C_6  and  O_7
REMARK    4  A    between atoms: O_7  and  C_8
REMARK    5  A    between atoms: C_9  and  C_10
REMARK    6  A    between atoms: C_10  and  C_11
REMARK    7  A    between atoms: C_11  and  N_12
REMARK    8  A    between atoms: C_13  and  C_15
REMARK    9  A    between atoms: C_15  and  S_16
REMARK   10  A    between atoms: S_16  and  C_19
REMARK   11  A    between atoms: C_19  and  C_20
REMARK   12  A    between atoms: C_22  and  C_23
REMARK   13  A    between atoms: C_31  and  C_32
REMARK                            x       y       z     vdW  Elec       q    Type
REMARK                         _______ _______ _______ _____ _____    ______ ____
ROOT
ATOM      1  C   UNL     1       7.032   7.308  16.942  0.00  0.00    +0.000 C 
ENDROOT
BRANCH   1   3
ATOM      2  N   UNL     1       8.062   9.324  17.852  0.00  0.00    +0.000 N 
ATOM      3  C   UNL     1       7.946   7.953  17.946  0.00  0.00    +0.000 C 
ATOM      4  O   UNL     1       8.575   7.285  18.762  0.00  0.00    +0.000 OA
ATOM      5  H   UNL     1       7.524   9.841  17.167  0.00  0.00    +0.000 HD
BRANCH   2   6
ATOM      6  C   UNL     1       8.864  10.084  18.805  0.00  0.00    +0.000 C 
BRANCH   6   7
ATOM      7  C   UNL     1       9.994  10.848  18.111  0.00  0.00    +0.000 C 
BRANCH   7  12
ATOM      8  C   UNL     1      10.451  14.619  17.842  0.00  0.00    +0.000 A 
ATOM      9  C   UNL     1      10.429  15.017  19.171  0.00  0.00    +0.000 A 
ATOM     10  C   UNL     1      10.262  14.078  20.187  0.00  0.00    +0.000 A 
ATOM     11  C   UNL     1      10.142  12.712  19.895  0.00  0.00    +0.000 A 
ATOM     12  C   UNL     1      10.142  12.294  18.551  0.00  0.00    +0.000 A 
ATOM     13  C   UNL     1      10.287  13.267  17.537  0.00  0.00    +0.000 A 
BRANCH   8  15
ATOM     14  C   UNL     1      11.650  16.590  17.276  0.00  0.00    +0.000 C 
ATOM     15  O   UNL     1      10.649  15.634  16.951  0.00  0.00    +0.000 OA
ENDBRANCH   8  15
BRANCH  11  16
ATOM     16  O   UNL     1       9.992  11.763  20.877  0.00  0.00    +0.000 OA
ATOM     17  C   UNL     1       9.103  12.129  21.937  0.00  0.00    +0.000 C 
ENDBRANCH  11  16
ENDBRANCH   7  12
ENDBRANCH   6   7
ENDBRANCH   2   6
ENDBRANCH   1   3
BRANCH   1  18
ATOM     18  S   UNL     1       6.703   5.650  17.457  0.00  0.00    +0.000 S 
ATOM     19  O   UNL     1       7.671   4.751  16.844  0.00  0.00    +0.000 OA
ATOM     20  O   UNL     1       6.522   5.645  18.897  0.00  0.00    +0.000 OA
BRANCH  18  21
ATOM     21  C   UNL     1       5.132   5.266  16.699  0.00  0.00    +0.000 C 
BRANCH  21  22
ATOM     22  C   UNL     1       3.993   5.678  17.542  0.00  0.00    +0.000 A 
ATOM     23  N   UNL     1       3.753   7.010  17.811  0.00  0.00    +0.000 NA
ATOM     24  C   UNL     1       2.656   6.998  18.547  0.00  0.00    +0.000 A 
ATOM     25  O   UNL     1       2.177   5.742  18.811  0.00  0.00    +0.000 OA
ATOM     26  C   UNL     1       3.032   4.904  18.156  0.00  0.00    +0.000 A 
ATOM     27  C   UNL     1       2.752   3.459  18.227  0.00  0.00    +0.000 C 
BRANCH  24  28
ATOM     28  C   UNL     1       1.874   8.117  19.061  0.00  0.00    +0.000 A 
ATOM     29  C   UNL     1       1.512   9.198  18.240  0.00  0.00    +0.000 A 
ATOM     30  C   UNL     1       0.805  10.285  18.758  0.00  0.00    +0.000 A 
ATOM     31  C   UNL     1       0.447  10.303  20.104  0.00  0.00    +0.000 A 
ATOM     32  C   UNL     1       0.792   9.231  20.924  0.00  0.00    +0.000 A 
ATOM     33 CL   UNL     1       0.355   9.257  22.589  0.00  0.00    +0.000 Cl
ATOM     34  C   UNL     1       1.498   8.142  20.412  0.00  0.00    +0.000 A 
ENDBRANCH  24  28
ENDBRANCH  21  22
ENDBRANCH  18  21
ENDBRANCH   1  18
TORSDOF 10
ENDMDL
MODEL 8
REMARK VINA RESULT:      -7.1      5.122      8.853
REMARK  Name = 
REMARK  13 active torsions:
REMARK  status: ('A' for Active; 'I' for Inactive)
REMARK    1  A    between atoms: C_1  and  O_2
REMARK    2  A    between atoms: O_2  and  C_3
REMARK    3  A    between atoms: C_6  and  O_7
REMARK    4  A    between atoms: O_7  and  C_8
REMARK    5  A    between atoms: C_9  and  C_10
REMARK    6  A    between atoms: C_10  and  C_11
REMARK    7  A    between atoms: C_11  and  N_12
REMARK    8  A    between atoms: C_13  and  C_15
REMARK    9  A    between atoms: C_15  and  S_16
REMARK   10  A    between atoms: S_16  and  C_19
REMARK   11  A    between atoms: C_19  and  C_20
REMARK   12  A    between atoms: C_22  and  C_23
REMARK   13  A    between atoms: C_31  and  C_32
REMARK                            x       y       z     vdW  Elec       q    Type
REMARK                         _______ _______ _______ _____ _____    ______ ____
ROOT
ATOM      1  C   UNL     1       7.345   6.140  18.618  0.00  0.00    +0.000 C 
ENDROOT
BRANCH   1   3
ATOM      2  N   UNL     1       7.913   8.510  18.503  0.00  0.00    +0.000 N 
ATOM      3  C   UNL     1       7.761   7.332  17.802  0.00  0.00    +0.000 C 
ATOM      4  O   UNL     1       7.909   7.256  16.586  0.00  0.00    +0.000 OA
ATOM      5  H   UNL     1       7.785   8.532  19.507  0.00  0.00    +0.000 HD
BRANCH   2   6
ATOM      6  C   UNL     1       8.376   9.728  17.847  0.00  0.00    +0.000 C 
BRANCH   6   7
ATOM      7  C   UNL     1       9.763  10.144  18.338  0.00  0.00    +0.000 C 
BRANCH   7  12
ATOM      8  C   UNL     1       9.410  12.475  21.330  0.00  0.00    +0.000 A 
ATOM      9  C   UNL     1       9.774  13.702  20.795  0.00  0.00    +0.000 A 
ATOM     10  C   UNL     1      10.148  13.807  19.456  0.00  0.00    +0.000 A 
ATOM     11  C   UNL     1      10.136  12.687  18.614  0.00  0.00    +0.000 A 
ATOM     12  C   UNL     1       9.788  11.430  19.145  0.00  0.00    +0.000 A 
ATOM     13  C   UNL     1       9.437  11.345  20.511  0.00  0.00    +0.000 A 
BRANCH   8  15
ATOM     14  C   UNL     1       8.081  11.559  23.072  0.00  0.00    +0.000 C 
ATOM     15  O   UNL     1       9.040  12.517  22.643  0.00  0.00    +0.000 OA
ENDBRANCH   8  15
BRANCH  11  16
ATOM     16  O   UNL     1      10.484  12.764  17.288  0.00  0.00    +0.000 OA
ATOM     17  C   UNL     1      11.336  13.863  16.952  0.00  0.00    +0.000 C 
ENDBRANCH  11  16
ENDBRANCH   7  12
ENDBRANCH   6   7
ENDBRANCH   2   6
ENDBRANCH   1   3
BRANCH   1  18
ATOM     18  S   UNL     1       6.857   4.843  17.520  0.00  0.00    +0.000 S 
ATOM     19  O   UNL     1       7.944   4.557  16.595  0.00  0.00    +0.000 OA
ATOM     20  O   UNL     1       6.278   3.771  18.309  0.00  0.00    +0.000 OA
BRANCH  18  21
ATOM     21  C   UNL     1       5.558   5.574  16.537  0.00  0.00    +0.000 C 
BRANCH  21  22
ATOM     22  C   UNL     1       4.328   5.800  17.321  0.00  0.00    +0.000 A 
ATOM     23  N   UNL     1       4.087   7.012  17.933  0.00  0.00    +0.000 NA
ATOM     24  C   UNL     1       2.902   6.859  18.498  0.00  0.00    +0.000 A 
ATOM     25  O   UNL     1       2.363   5.611  18.329  0.00  0.00    +0.000 OA
ATOM     26  C   UNL     1       3.277   4.943  17.567  0.00  0.00    +0.000 A 
ATOM     27  C   UNL     1       2.955   3.556  17.183  0.00  0.00    +0.000 C 
BRANCH  24  28
ATOM     28  C   UNL     1       2.086   7.833  19.215  0.00  0.00    +0.000 A 
ATOM     29  C   UNL     1       1.709   7.632  20.553  0.00  0.00    +0.000 A 
ATOM     30  C   UNL     1       0.888   8.548  21.211  0.00  0.00    +0.000 A 
ATOM     31  C   UNL     1       0.436   9.683  20.540  0.00  0.00    +0.000 A 
ATOM     32  C   UNL     1       0.813   9.897  19.216  0.00  0.00    +0.000 A 
ATOM     33 CL   UNL     1       0.248  11.295  18.386  0.00  0.00    +0.000 Cl
ATOM     34  C   UNL     1       1.634   8.984  18.554  0.00  0.00    +0.000 A 
ENDBRANCH  24  28
ENDBRANCH  21  22
ENDBRANCH  18  21
ENDBRANCH   1  18
TORSDOF 10
ENDMDL
MODEL 9
REMARK VINA RESULT:      -7.1      5.094      9.512
REMARK  Name = 
REMARK  13 active torsions:
REMARK  status: ('A' for Active; 'I' for Inactive)
REMARK    1  A    between atoms: C_1  and  O_2
REMARK    2  A    between atoms: O_2  and  C_3
REMARK    3  A    between atoms: C_6  and  O_7
REMARK    4  A    between atoms: O_7  and  C_8
REMARK    5  A    between atoms: C_9  and  C_10
REMARK    6  A    between atoms: C_10  and  C_11
REMARK    7  A    between atoms: C_11  and  N_12
REMARK    8  A    between atoms: C_13  and  C_15
REMARK    9  A    between atoms: C_15  and  S_16
REMARK   10  A    between atoms: S_16  and  C_19
REMARK   11  A    between atoms: C_19  and  C_20
REMARK   12  A    between atoms: C_22  and  C_23
REMARK   13  A    between atoms: C_31  and  C_32
REMARK                            x       y       z     vdW  Elec       q    Type
REMARK                         _______ _______ _______ _____ _____    ______ ____
ROOT
ATOM      1  C   UNL     1       6.009   6.451  17.088  0.00  0.00    +0.000 C 
ENDROOT
BRANCH   1   3
ATOM      2  N   UNL     1       7.438   8.325  17.721  0.00  0.00    +0.000 N 
ATOM      3  C   UNL     1       7.201   6.972  17.841  0.00  0.00    +0.000 C 
ATOM      4  O   UNL     1       7.932   6.222  18.482  0.00  0.00    +0.000 OA
ATOM      5  H   UNL     1       6.810   8.912  17.186  0.00  0.00    +0.000 HD
BRANCH   2   6
ATOM      6  C   UNL     1       8.522   8.973  18.451  0.00  0.00    +0.000 C 
BRANCH   6   7
ATOM      7  C   UNL     1       8.827  10.365  17.895  0.00  0.00    +0.000 C 
BRANCH   7  12
ATOM      8  C   UNL     1       9.495  11.994  21.272  0.00  0.00    +0.000 A 
ATOM      9  C   UNL     1      10.336  13.045  20.934  0.00  0.00    +0.000 A 
ATOM     10  C   UNL     1      10.711  13.251  19.608  0.00  0.00    +0.000 A 
ATOM     11  C   UNL     1      10.228  12.424  18.584  0.00  0.00    +0.000 A 
ATOM     12  C   UNL     1       9.391  11.341  18.912  0.00  0.00    +0.000 A 
ATOM     13  C   UNL     1       9.044  11.138  20.267  0.00  0.00    +0.000 A 
BRANCH   8  15
ATOM     14  C   UNL     1       8.401  12.980  23.135  0.00  0.00    +0.000 C 
ATOM     15  O   UNL     1       9.184  11.922  22.600  0.00  0.00    +0.000 OA
ENDBRANCH   8  15
BRANCH  11  16
ATOM     16  O   UNL     1      10.569  12.614  17.267  0.00  0.00    +0.000 OA
ATOM     17  C   UNL     1      11.943  12.947  17.043  0.00  0.00    +0.000 C 
ENDBRANCH  11  16
ENDBRANCH   7  12
ENDBRANCH   6   7
ENDBRANCH   2   6
ENDBRANCH   1   3
BRANCH   1  18
ATOM     18  S   UNL     1       5.034   5.461  18.180  0.00  0.00    +0.000 S 
ATOM     19  O   UNL     1       5.137   4.063  17.789  0.00  0.00    +0.000 OA
ATOM     20  O   UNL     1       5.335   5.854  19.545  0.00  0.00    +0.000 OA
BRANCH  18  21
ATOM     21  C   UNL     1       3.354   5.947  17.821  0.00  0.00    +0.000 C 
BRANCH  21  22
ATOM     22  C   UNL     1       2.645   6.428  19.023  0.00  0.00    +0.000 A 
ATOM     23  N   UNL     1       2.266   7.749  19.144  0.00  0.00    +0.000 NA
ATOM     24  C   UNL     1       1.639   7.800  20.306  0.00  0.00    +0.000 A 
ATOM     25  O   UNL     1       1.612   6.606  20.975  0.00  0.00    +0.000 OA
ATOM     26  C   UNL     1       2.249   5.731  20.143  0.00  0.00    +0.000 A 
ATOM     27  C   UNL     1       2.350   4.328  20.584  0.00  0.00    +0.000 C 
BRANCH  24  28
ATOM     28  C   UNL     1       0.942   8.918  20.933  0.00  0.00    +0.000 A 
ATOM     29  C   UNL     1       0.549   8.876  22.280  0.00  0.00    +0.000 A 
ATOM     30  C   UNL     1      -0.159   9.933  22.853  0.00  0.00    +0.000 A 
ATOM     31  C   UNL     1      -0.481  11.050  22.085  0.00  0.00    +0.000 A 
ATOM     32  C   UNL     1      -0.088  11.106  20.750  0.00  0.00    +0.000 A 
ATOM     33 CL   UNL     1      -0.492  12.484  19.800  0.00  0.00    +0.000 Cl
ATOM     34  C   UNL     1       0.622  10.052  20.173  0.00  0.00    +0.000 A 
ENDBRANCH  24  28
ENDBRANCH  21  22
ENDBRANCH  18  21
ENDBRANCH   1  18
TORSDOF 10
ENDMDL
