MODEL 1
REMARK VINA RESULT:      -8.8      0.000      0.000
REMARK  Name = 
REMARK  3 active torsions:
REMARK  status: ('A' for Active; 'I' for Inactive)
REMARK    1  A    between atoms: C_1  and  C_2
REMARK    2  A    between atoms: C_9  and  C_10
REMARK    3  A    between atoms: N_18  and  C_19
REMARK                            x       y       z     vdW  Elec       q    Type
REMARK                         _______ _______ _______ _____ _____    ______ ____
ROOT
ATOM      1  C   UNL     1       2.126   5.254  19.996  0.00  0.00    +0.000 A 
ATOM      2  C   UNL     1       1.337   4.414  20.805  0.00  0.00    +0.000 A 
ATOM      3  C   UNL     1       1.554   3.043  20.842  0.00  0.00    +0.000 A 
ATOM      4  C   UNL     1       2.581   2.501  20.085  0.00  0.00    +0.000 A 
ATOM      5  C   UNL     1       3.377   3.297  19.280  0.00  0.00    +0.000 A 
ATOM      6  N   UNL     1       4.354   2.684  18.600  0.00  0.00    +0.000 NA
ATOM      7  C   UNL     1       5.088   3.467  17.785  0.00  0.00    +0.000 A 
ATOM      8  C   UNL     1       4.845   4.822  17.598  0.00  0.00    +0.000 A 
ATOM      9  N   UNL     1       5.550   5.567  16.633  0.00  0.00    +0.000 N 
ATOM     10  N   UNL     1       3.905   5.453  18.332  0.00  0.00    +0.000 NA
ATOM     11  C   UNL     1       3.148   4.697  19.189  0.00  0.00    +0.000 A 
ATOM     12  H   UNL     1       5.166   6.507  16.595  0.00  0.00    +0.000 HD
ENDROOT
BRANCH   1  21
ATOM     13  C   UNL     1      -0.474   9.327  22.607  0.00  0.00    +0.000 C 
ATOM     14  C   UNL     1       0.839   9.719  21.927  0.00  0.00    +0.000 C 
ATOM     15  C   UNL     1       0.705  11.117  21.257  0.00  0.00    +0.000 C 
ATOM     16  N   UNL     1       1.008  11.232  19.833  0.00  0.00    +0.000 N 
ATOM     17  C   UNL     1       1.387  10.223  18.982  0.00  0.00    +0.000 C 
ATOM     18  O   UNL     1       1.596  10.439  17.794  0.00  0.00    +0.000 OA
ATOM     19  C   UNL     1       1.519   8.921  19.597  0.00  0.00    +0.000 A 
ATOM     20  C   UNL     1       1.895   7.676  19.034  0.00  0.00    +0.000 A 
ATOM     21  C   UNL     1       1.866   6.708  20.032  0.00  0.00    +0.000 A 
ATOM     22  N   UNL     1       1.487   7.371  21.187  0.00  0.00    +0.000 N 
ATOM     23  C   UNL     1       1.265   8.695  20.931  0.00  0.00    +0.000 A 
ATOM     24  H   UNL     1       0.919  12.132  19.381  0.00  0.00    +0.000 HD
ATOM     25  H   UNL     1       1.376   6.898  22.079  0.00  0.00    +0.000 HD
ENDBRANCH   1  21
BRANCH   9  26
ATOM     26  C   UNL     1       5.892   5.079  15.349  0.00  0.00    +0.000 A 
ATOM     27  C   UNL     1       4.967   4.389  14.550  0.00  0.00    +0.000 A 
ATOM     28  C   UNL     1       5.345   3.847  13.324  0.00  0.00    +0.000 A 
ATOM     29  C   UNL     1       6.644   4.029  12.859  0.00  0.00    +0.000 A 
ATOM     30  C   UNL     1       7.551   4.776  13.610  0.00  0.00    +0.000 A 
ATOM     31  C   UNL     1       7.172   5.314  14.843  0.00  0.00    +0.000 A 
ENDBRANCH   9  26
TORSDOF 2
ENDMDL
MODEL 2
REMARK VINA RESULT:      -8.7      1.214      2.117
REMARK  Name = 
REMARK  3 active torsions:
REMARK  status: ('A' for Active; 'I' for Inactive)
REMARK    1  A    between atoms: C_1  and  C_2
REMARK    2  A    between atoms: C_9  and  C_10
REMARK    3  A    between atoms: N_18  and  C_19
REMARK                            x       y       z     vdW  Elec       q    Type
REMARK                         _______ _______ _______ _____ _____    ______ ____
ROOT
ATOM      1  C   UNL     1       2.298   5.347  20.423  0.00  0.00    +0.000 A 
ATOM      2  C   UNL     1       1.647   4.485  21.326  0.00  0.00    +0.000 A 
ATOM      3  C   UNL     1       2.047   3.163  21.473  0.00  0.00    +0.000 A 
ATOM      4  C   UNL     1       3.121   2.696  20.731  0.00  0.00    +0.000 A 
ATOM      5  C   UNL     1       3.786   3.516  19.836  0.00  0.00    +0.000 A 
ATOM      6  N   UNL     1       4.821   2.979  19.178  0.00  0.00    +0.000 NA
ATOM      7  C   UNL     1       5.426   3.777  18.276  0.00  0.00    +0.000 A 
ATOM      8  C   UNL     1       4.999   5.066  17.982  0.00  0.00    +0.000 A 
ATOM      9  N   UNL     1       5.577   5.809  16.935  0.00  0.00    +0.000 N 
ATOM     10  N   UNL     1       3.999   5.630  18.690  0.00  0.00    +0.000 NA
ATOM     11  C   UNL     1       3.369   4.860  19.634  0.00  0.00    +0.000 A 
ATOM     12  H   UNL     1       5.069   6.683  16.829  0.00  0.00    +0.000 HD
ENDROOT
BRANCH   1  21
ATOM     13  C   UNL     1       2.567  10.038  17.579  0.00  0.00    +0.000 C 
ATOM     14  C   UNL     1       1.256   9.804  18.334  0.00  0.00    +0.000 C 
ATOM     15  C   UNL     1       0.752  11.133  18.968  0.00  0.00    +0.000 C 
ATOM     16  N   UNL     1       0.498  11.158  20.406  0.00  0.00    +0.000 N 
ATOM     17  C   UNL     1       0.675  10.128  21.298  0.00  0.00    +0.000 C 
ATOM     18  O   UNL     1       0.446  10.276  22.492  0.00  0.00    +0.000 OA
ATOM     19  C   UNL     1       1.139   8.888  20.716  0.00  0.00    +0.000 A 
ATOM     20  C   UNL     1       1.415   7.638  21.323  0.00  0.00    +0.000 A 
ATOM     21  C   UNL     1       1.846   6.751  20.344  0.00  0.00    +0.000 A 
ATOM     22  N   UNL     1       1.816   7.460  19.155  0.00  0.00    +0.000 N 
ATOM     23  C   UNL     1       1.405   8.746  19.373  0.00  0.00    +0.000 A 
ATOM     24  H   UNL     1       0.178  12.016  20.835  0.00  0.00    +0.000 HD
ATOM     25  H   UNL     1       2.093   7.054  18.267  0.00  0.00    +0.000 HD
ENDBRANCH   1  21
BRANCH   9  26
ATOM     26  C   UNL     1       5.955   5.259  15.687  0.00  0.00    +0.000 A 
ATOM     27  C   UNL     1       7.240   5.446  15.156  0.00  0.00    +0.000 A 
ATOM     28  C   UNL     1       7.570   4.965  13.891  0.00  0.00    +0.000 A 
ATOM     29  C   UNL     1       6.628   4.248  13.159  0.00  0.00    +0.000 A 
ATOM     30  C   UNL     1       5.372   3.990  13.707  0.00  0.00    +0.000 A 
ATOM     31  C   UNL     1       5.042   4.480  14.974  0.00  0.00    +0.000 A 
ENDBRANCH   9  26
TORSDOF 2
ENDMDL
MODEL 3
REMARK VINA RESULT:      -7.8      4.827      8.799
REMARK  Name = 
REMARK  3 active torsions:
REMARK  status: ('A' for Active; 'I' for Inactive)
REMARK    1  A    between atoms: C_1  and  C_2
REMARK    2  A    between atoms: C_9  and  C_10
REMARK    3  A    between atoms: N_18  and  C_19
REMARK                            x       y       z     vdW  Elec       q    Type
REMARK                         _______ _______ _______ _____ _____    ______ ____
ROOT
ATOM      1  C   UNL     1      -2.035  13.379  21.103  0.00  0.00    +0.000 A 
ATOM      2  C   UNL     1      -1.947  14.462  21.998  0.00  0.00    +0.000 A 
ATOM      3  C   UNL     1      -0.718  14.999  22.357  0.00  0.00    +0.000 A 
ATOM      4  C   UNL     1       0.438  14.468  21.806  0.00  0.00    +0.000 A 
ATOM      5  C   UNL     1       0.389  13.405  20.921  0.00  0.00    +0.000 A 
ATOM      6  N   UNL     1       1.556  12.973  20.428  0.00  0.00    +0.000 NA
ATOM      7  C   UNL     1       1.494  11.907  19.607  0.00  0.00    +0.000 A 
ATOM      8  C   UNL     1       0.313  11.238  19.305  0.00  0.00    +0.000 A 
ATOM      9  N   UNL     1       0.317  10.047  18.554  0.00  0.00    +0.000 N 
ATOM     10  N   UNL     1      -0.869  11.712  19.748  0.00  0.00    +0.000 NA
ATOM     11  C   UNL     1      -0.853  12.809  20.570  0.00  0.00    +0.000 A 
ATOM     12  H   UNL     1      -0.627   9.674  18.519  0.00  0.00    +0.000 HD
ENDROOT
BRANCH   1  21
ATOM     13  C   UNL     1      -5.541  12.441  16.980  0.00  0.00    +0.000 C 
ATOM     14  C   UNL     1      -5.675  11.501  18.180  0.00  0.00    +0.000 C 
ATOM     15  C   UNL     1      -7.176  11.216  18.478  0.00  0.00    +0.000 C 
ATOM     16  N   UNL     1      -7.678  11.499  19.821  0.00  0.00    +0.000 N 
ATOM     17  C   UNL     1      -6.972  12.021  20.877  0.00  0.00    +0.000 C 
ATOM     18  O   UNL     1      -7.510  12.235  21.957  0.00  0.00    +0.000 OA
ATOM     19  C   UNL     1      -5.575  12.285  20.609  0.00  0.00    +0.000 A 
ATOM     20  C   UNL     1      -4.563  12.804  21.453  0.00  0.00    +0.000 A 
ATOM     21  C   UNL     1      -3.376  12.881  20.733  0.00  0.00    +0.000 A 
ATOM     22  N   UNL     1      -3.672  12.399  19.470  0.00  0.00    +0.000 N 
ATOM     23  C   UNL     1      -4.992  12.052  19.384  0.00  0.00    +0.000 A 
ATOM     24  H   UNL     1      -8.652  11.327  20.029  0.00  0.00    +0.000 HD
ATOM     25  H   UNL     1      -2.983  12.350  18.726  0.00  0.00    +0.000 HD
ENDBRANCH   1  21
BRANCH   9  26
ATOM     26  C   UNL     1       1.288   9.027  18.690  0.00  0.00    +0.000 A 
ATOM     27  C   UNL     1       2.213   8.747  17.672  0.00  0.00    +0.000 A 
ATOM     28  C   UNL     1       3.110   7.687  17.791  0.00  0.00    +0.000 A 
ATOM     29  C   UNL     1       3.123   6.921  18.952  0.00  0.00    +0.000 A 
ATOM     30  C   UNL     1       2.260   7.237  20.001  0.00  0.00    +0.000 A 
ATOM     31  C   UNL     1       1.357   8.296  19.877  0.00  0.00    +0.000 A 
ENDBRANCH   9  26
TORSDOF 2
ENDMDL
MODEL 4
REMARK VINA RESULT:      -7.6      2.970      8.147
REMARK  Name = 
REMARK  3 active torsions:
REMARK  status: ('A' for Active; 'I' for Inactive)
REMARK    1  A    between atoms: C_1  and  C_2
REMARK    2  A    between atoms: C_9  and  C_10
REMARK    3  A    between atoms: N_18  and  C_19
REMARK                            x       y       z     vdW  Elec       q    Type
REMARK                         _______ _______ _______ _____ _____    ______ ____
ROOT
ATOM      1  C   UNL     1       0.567   9.328  21.285  0.00  0.00    +0.000 A 
ATOM      2  C   UNL     1      -0.066   8.987  22.496  0.00  0.00    +0.000 A 
ATOM      3  C   UNL     1      -0.743   9.941  23.244  0.00  0.00    +0.000 A 
ATOM      4  C   UNL     1      -0.812  11.244  22.775  0.00  0.00    +0.000 A 
ATOM      5  C   UNL     1      -0.204  11.613  21.588  0.00  0.00    +0.000 A 
ATOM      6  N   UNL     1      -0.340  12.890  21.209  0.00  0.00    +0.000 NA
ATOM      7  C   UNL     1       0.299  13.242  20.077  0.00  0.00    +0.000 A 
ATOM      8  C   UNL     1       1.102  12.374  19.346  0.00  0.00    +0.000 A 
ATOM      9  N   UNL     1       1.859  12.825  18.248  0.00  0.00    +0.000 N 
ATOM     10  N   UNL     1       1.186  11.073  19.690  0.00  0.00    +0.000 NA
ATOM     11  C   UNL     1       0.533  10.667  20.825  0.00  0.00    +0.000 A 
ATOM     12  H   UNL     1       2.438  12.063  17.909  0.00  0.00    +0.000 HD
ENDROOT
BRANCH   1  21
ATOM     13  C   UNL     1       2.466   4.176  21.416  0.00  0.00    +0.000 C 
ATOM     14  C   UNL     1       1.983   4.660  20.047  0.00  0.00    +0.000 C 
ATOM     15  C   UNL     1       2.933   4.148  18.926  0.00  0.00    +0.000 C 
ATOM     16  N   UNL     1       3.536   5.131  18.030  0.00  0.00    +0.000 N 
ATOM     17  C   UNL     1       3.380   6.495  18.070  0.00  0.00    +0.000 C 
ATOM     18  O   UNL     1       3.957   7.224  17.272  0.00  0.00    +0.000 OA
ATOM     19  C   UNL     1       2.495   6.980  19.107  0.00  0.00    +0.000 A 
ATOM     20  C   UNL     1       2.101   8.301  19.430  0.00  0.00    +0.000 A 
ATOM     21  C   UNL     1       1.238   8.256  20.519  0.00  0.00    +0.000 A 
ATOM     22  N   UNL     1       1.106   6.916  20.839  0.00  0.00    +0.000 N 
ATOM     23  C   UNL     1       1.868   6.145  20.004  0.00  0.00    +0.000 A 
ATOM     24  H   UNL     1       4.161   4.816  17.301  0.00  0.00    +0.000 HD
ATOM     25  H   UNL     1       0.533   6.590  21.610  0.00  0.00    +0.000 HD
ENDBRANCH   1  21
BRANCH   9  26
ATOM     26  C   UNL     1       2.538  14.067  18.209  0.00  0.00    +0.000 A 
ATOM     27  C   UNL     1       1.847  15.288  18.263  0.00  0.00    +0.000 A 
ATOM     28  C   UNL     1       2.525  16.499  18.144  0.00  0.00    +0.000 A 
ATOM     29  C   UNL     1       3.910  16.505  18.014  0.00  0.00    +0.000 A 
ATOM     30  C   UNL     1       4.614  15.302  18.035  0.00  0.00    +0.000 A 
ATOM     31  C   UNL     1       3.932  14.087  18.149  0.00  0.00    +0.000 A 
ENDBRANCH   9  26
TORSDOF 2
ENDMDL
MODEL 5
REMARK VINA RESULT:      -7.5      4.414      8.169
REMARK  Name = 
REMARK  3 active torsions:
REMARK  status: ('A' for Active; 'I' for Inactive)
REMARK    1  A    between atoms: C_1  and  C_2
REMARK    2  A    between atoms: C_9  and  C_10
REMARK    3  A    between atoms: N_18  and  C_19
REMARK                            x       y       z     vdW  Elec       q    Type
REMARK                         _______ _______ _______ _____ _____    ______ ____
ROOT
ATOM      1  C   UNL     1      -0.876  13.472  19.818  0.00  0.00    +0.000 A 
ATOM      2  C   UNL     1      -0.594  14.776  20.268  0.00  0.00    +0.000 A 
ATOM      3  C   UNL     1       0.686  15.307  20.172  0.00  0.00    +0.000 A 
ATOM      4  C   UNL     1       1.693  14.545  19.602  0.00  0.00    +0.000 A 
ATOM      5  C   UNL     1       1.451  13.261  19.147  0.00  0.00    +0.000 A 
ATOM      6  N   UNL     1       2.482  12.609  18.596  0.00  0.00    +0.000 NA
ATOM      7  C   UNL     1       2.240  11.343  18.202  0.00  0.00    +0.000 A 
ATOM      8  C   UNL     1       1.021  10.702  18.385  0.00  0.00    +0.000 A 
ATOM      9  N   UNL     1       0.858   9.336  18.084  0.00  0.00    +0.000 N 
ATOM     10  N   UNL     1      -0.036  11.378  18.879  0.00  0.00    +0.000 NA
ATOM     11  C   UNL     1       0.161  12.676  19.273  0.00  0.00    +0.000 A 
ATOM     12  H   UNL     1      -0.072   9.042  18.367  0.00  0.00    +0.000 HD
ENDROOT
BRANCH   1  21
ATOM     13  C   UNL     1      -5.438  12.209  17.032  0.00  0.00    +0.000 C 
ATOM     14  C   UNL     1      -5.214  11.410  18.318  0.00  0.00    +0.000 C 
ATOM     15  C   UNL     1      -6.561  11.210  19.072  0.00  0.00    +0.000 C 
ATOM     16  N   UNL     1      -6.646  11.655  20.461  0.00  0.00    +0.000 N 
ATOM     17  C   UNL     1      -5.662  12.265  21.198  0.00  0.00    +0.000 C 
ATOM     18  O   UNL     1      -5.859  12.614  22.356  0.00  0.00    +0.000 OA
ATOM     19  C   UNL     1      -4.405  12.451  20.507  0.00  0.00    +0.000 A 
ATOM     20  C   UNL     1      -3.190  13.025  20.954  0.00  0.00    +0.000 A 
ATOM     21  C   UNL     1      -2.267  12.983  19.915  0.00  0.00    +0.000 A 
ATOM     22  N   UNL     1      -2.921  12.377  18.856  0.00  0.00    +0.000 N 
ATOM     23  C   UNL     1      -4.208  12.066  19.200  0.00  0.00    +0.000 A 
ATOM     24  H   UNL     1      -7.517  11.539  20.962  0.00  0.00    +0.000 HD
ATOM     25  H   UNL     1      -2.480  12.223  17.955  0.00  0.00    +0.000 HD
ENDBRANCH   1  21
BRANCH   9  26
ATOM     26  C   UNL     1       1.833   8.344  18.347  0.00  0.00    +0.000 A 
ATOM     27  C   UNL     1       2.842   8.037  17.421  0.00  0.00    +0.000 A 
ATOM     28  C   UNL     1       3.745   7.004  17.663  0.00  0.00    +0.000 A 
ATOM     29  C   UNL     1       3.678   6.294  18.858  0.00  0.00    +0.000 A 
ATOM     30  C   UNL     1       2.728   6.640  19.818  0.00  0.00    +0.000 A 
ATOM     31  C   UNL     1       1.819   7.672  19.570  0.00  0.00    +0.000 A 
ENDBRANCH   9  26
TORSDOF 2
ENDMDL
MODEL 6
REMARK VINA RESULT:      -7.4      5.335      9.654
REMARK  Name = 
REMARK  3 active torsions:
REMARK  status: ('A' for Active; 'I' for Inactive)
REMARK    1  A    between atoms: C_1  and  C_2
REMARK    2  A    between atoms: C_9  and  C_10
REMARK    3  A    between atoms: N_18  and  C_19
REMARK                            x       y       z     vdW  Elec       q    Type
REMARK                         _______ _______ _______ _____ _____    ______ ____
ROOT
ATOM      1  C   UNL     1      -2.579  14.286  21.018  0.00  0.00    +0.000 A 
ATOM      2  C   UNL     1      -2.367  15.614  21.436  0.00  0.00    +0.000 A 
ATOM      3  C   UNL     1      -1.203  16.294  21.102  0.00  0.00    +0.000 A 
ATOM      4  C   UNL     1      -0.247  15.657  20.326  0.00  0.00    +0.000 A 
ATOM      5  C   UNL     1      -0.424  14.354  19.895  0.00  0.00    +0.000 A 
ATOM      6  N   UNL     1       0.545  13.830  19.135  0.00  0.00    +0.000 NA
ATOM      7  C   UNL     1       0.379  12.545  18.766  0.00  0.00    +0.000 A 
ATOM      8  C   UNL     1      -0.697  11.763  19.171  0.00  0.00    +0.000 A 
ATOM      9  N   UNL     1      -0.756  10.388  18.873  0.00  0.00    +0.000 N 
ATOM     10  N   UNL     1      -1.706  12.308  19.880  0.00  0.00    +0.000 NA
ATOM     11  C   UNL     1      -1.586  13.620  20.260  0.00  0.00    +0.000 A 
ATOM     12  H   UNL     1      -1.570   9.985  19.328  0.00  0.00    +0.000 HD
ENDROOT
BRANCH   1  21
ATOM     13  C   UNL     1      -7.238  12.095  19.106  0.00  0.00    +0.000 C 
ATOM     14  C   UNL     1      -6.727  11.501  20.420  0.00  0.00    +0.000 C 
ATOM     15  C   UNL     1      -7.915  11.222  21.386  0.00  0.00    +0.000 C 
ATOM     16  N   UNL     1      -7.876  11.823  22.717  0.00  0.00    +0.000 N 
ATOM     17  C   UNL     1      -6.902  12.645  23.228  0.00  0.00    +0.000 C 
ATOM     18  O   UNL     1      -6.991  13.108  24.360  0.00  0.00    +0.000 OA
ATOM     19  C   UNL     1      -5.792  12.905  22.338  0.00  0.00    +0.000 A 
ATOM     20  C   UNL     1      -4.626  13.686  22.533  0.00  0.00    +0.000 A 
ATOM     21  C   UNL     1      -3.856  13.635  21.376  0.00  0.00    +0.000 A 
ATOM     22  N   UNL     1      -4.550  12.820  20.499  0.00  0.00    +0.000 N 
ATOM     23  C   UNL     1      -5.719  12.389  21.065  0.00  0.00    +0.000 A 
ATOM     24  H   UNL     1      -8.644  11.658  23.354  0.00  0.00    +0.000 HD
ATOM     25  H   UNL     1      -4.218  12.613  19.563  0.00  0.00    +0.000 HD
ENDBRANCH   1  21
BRANCH   9  26
ATOM     26  C   UNL     1       0.361   9.519  18.913  0.00  0.00    +0.000 A 
ATOM     27  C   UNL     1       1.116   9.234  17.765  0.00  0.00    +0.000 A 
ATOM     28  C   UNL     1       2.163   8.315  17.807  0.00  0.00    +0.000 A 
ATOM     29  C   UNL     1       2.497   7.703  19.011  0.00  0.00    +0.000 A 
ATOM     30  C   UNL     1       1.801   8.035  20.174  0.00  0.00    +0.000 A 
ATOM     31  C   UNL     1       0.748   8.952  20.129  0.00  0.00    +0.000 A 
ENDBRANCH   9  26
TORSDOF 2
ENDMDL
MODEL 7
REMARK VINA RESULT:      -7.4      5.151      9.300
REMARK  Name = 
REMARK  3 active torsions:
REMARK  status: ('A' for Active; 'I' for Inactive)
REMARK    1  A    between atoms: C_1  and  C_2
REMARK    2  A    between atoms: C_9  and  C_10
REMARK    3  A    between atoms: N_18  and  C_19
REMARK                            x       y       z     vdW  Elec       q    Type
REMARK                         _______ _______ _______ _____ _____    ______ ____
ROOT
ATOM      1  C   UNL     1      -2.436  13.913  21.333  0.00  0.00    +0.000 A 
ATOM      2  C   UNL     1      -2.452  14.836  22.397  0.00  0.00    +0.000 A 
ATOM      3  C   UNL     1      -1.286  15.174  23.071  0.00  0.00    +0.000 A 
ATOM      4  C   UNL     1      -0.086  14.607  22.671  0.00  0.00    +0.000 A 
ATOM      5  C   UNL     1      -0.033  13.698  21.629  0.00  0.00    +0.000 A 
ATOM      6  N   UNL     1       1.174  13.219  21.304  0.00  0.00    +0.000 NA
ATOM      7  C   UNL     1       1.200  12.299  20.319  0.00  0.00    +0.000 A 
ATOM      8  C   UNL     1       0.059  11.817  19.688  0.00  0.00    +0.000 A 
ATOM      9  N   UNL     1       0.126  10.757  18.763  0.00  0.00    +0.000 N 
ATOM     10  N   UNL     1      -1.148  12.347  19.968  0.00  0.00    +0.000 NA
ATOM     11  C   UNL     1      -1.218  13.301  20.951  0.00  0.00    +0.000 A 
ATOM     12  H   UNL     1      -0.817  10.500  18.485  0.00  0.00    +0.000 HD
ENDROOT
BRANCH   1  21
ATOM     13  C   UNL     1      -4.768  11.532  16.967  0.00  0.00    +0.000 C 
ATOM     14  C   UNL     1      -5.632  11.574  18.229  0.00  0.00    +0.000 C 
ATOM     15  C   UNL     1      -7.111  11.891  17.862  0.00  0.00    +0.000 C 
ATOM     16  N   UNL     1      -7.751  13.036  18.505  0.00  0.00    +0.000 N 
ATOM     17  C   UNL     1      -7.184  13.906  19.404  0.00  0.00    +0.000 C 
ATOM     18  O   UNL     1      -7.819  14.848  19.863  0.00  0.00    +0.000 OA
ATOM     19  C   UNL     1      -5.811  13.616  19.755  0.00  0.00    +0.000 A 
ATOM     20  C   UNL     1      -4.932  14.283  20.643  0.00  0.00    +0.000 A 
ATOM     21  C   UNL     1      -3.706  13.627  20.635  0.00  0.00    +0.000 A 
ATOM     22  N   UNL     1      -3.854  12.566  19.758  0.00  0.00    +0.000 N 
ATOM     23  C   UNL     1      -5.110  12.561  19.216  0.00  0.00    +0.000 A 
ATOM     24  H   UNL     1      -8.709  13.260  18.272  0.00  0.00    +0.000 HD
ATOM     25  H   UNL     1      -3.102  11.916  19.552  0.00  0.00    +0.000 HD
ENDBRANCH   1  21
BRANCH   9  26
ATOM     26  C   UNL     1       0.965   9.627  18.910  0.00  0.00    +0.000 A 
ATOM     27  C   UNL     1       1.796   9.183  17.870  0.00  0.00    +0.000 A 
ATOM     28  C   UNL     1       2.555   8.023  18.005  0.00  0.00    +0.000 A 
ATOM     29  C   UNL     1       2.528   7.316  19.203  0.00  0.00    +0.000 A 
ATOM     30  C   UNL     1       1.764   7.789  20.271  0.00  0.00    +0.000 A 
ATOM     31  C   UNL     1       0.999   8.950  20.130  0.00  0.00    +0.000 A 
ENDBRANCH   9  26
TORSDOF 2
ENDMDL
MODEL 8
REMARK VINA RESULT:      -7.4      9.051     12.031
REMARK  Name = 
REMARK  3 active torsions:
REMARK  status: ('A' for Active; 'I' for Inactive)
REMARK    1  A    between atoms: C_1  and  C_2
REMARK    2  A    between atoms: C_9  and  C_10
REMARK    3  A    between atoms: N_18  and  C_19
REMARK                            x       y       z     vdW  Elec       q    Type
REMARK                         _______ _______ _______ _____ _____    ______ ____
ROOT
ATOM      1  C   UNL     1       6.449  14.933  18.829  0.00  0.00    +0.000 A 
ATOM      2  C   UNL     1       5.422  15.177  17.897  0.00  0.00    +0.000 A 
ATOM      3  C   UNL     1       4.106  15.346  18.308  0.00  0.00    +0.000 A 
ATOM      4  C   UNL     1       3.808  15.296  19.661  0.00  0.00    +0.000 A 
ATOM      5  C   UNL     1       4.793  15.060  20.604  0.00  0.00    +0.000 A 
ATOM      6  N   UNL     1       4.411  15.047  21.887  0.00  0.00    +0.000 NA
ATOM      7  C   UNL     1       5.374  14.768  22.788  0.00  0.00    +0.000 A 
ATOM      8  C   UNL     1       6.684  14.460  22.441  0.00  0.00    +0.000 A 
ATOM      9  N   UNL     1       7.618  14.041  23.408  0.00  0.00    +0.000 N 
ATOM     10  N   UNL     1       7.084  14.538  21.156  0.00  0.00    +0.000 NA
ATOM     11  C   UNL     1       6.140  14.839  20.208  0.00  0.00    +0.000 A 
ATOM     12  H   UNL     1       8.484  13.783  22.943  0.00  0.00    +0.000 HD
ENDROOT
BRANCH   1  21
ATOM     13  C   UNL     1      10.959  11.799  18.761  0.00  0.00    +0.000 C 
ATOM     14  C   UNL     1      10.736  12.653  17.511  0.00  0.00    +0.000 C 
ATOM     15  C   UNL     1      12.088  13.237  17.007  0.00  0.00    +0.000 C 
ATOM     16  N   UNL     1      12.196  14.685  16.848  0.00  0.00    +0.000 N 
ATOM     17  C   UNL     1      11.229  15.624  17.115  0.00  0.00    +0.000 C 
ATOM     18  O   UNL     1      11.445  16.820  16.961  0.00  0.00    +0.000 OA
ATOM     19  C   UNL     1       9.968  15.088  17.579  0.00  0.00    +0.000 A 
ATOM     20  C   UNL     1       8.767  15.750  17.935  0.00  0.00    +0.000 A 
ATOM     21  C   UNL     1       7.833  14.799  18.328  0.00  0.00    +0.000 A 
ATOM     22  N   UNL     1       8.465  13.575  18.198  0.00  0.00    +0.000 N 
ATOM     23  C   UNL     1       9.750  13.741  17.762  0.00  0.00    +0.000 A 
ATOM     24  H   UNL     1      13.069  15.082  16.529  0.00  0.00    +0.000 HD
ATOM     25  H   UNL     1       8.012  12.696  18.429  0.00  0.00    +0.000 HD
ENDBRANCH   1  21
BRANCH   9  26
ATOM     26  C   UNL     1       7.313  13.172  24.482  0.00  0.00    +0.000 A 
ATOM     27  C   UNL     1       6.597  11.980  24.288  0.00  0.00    +0.000 A 
ATOM     28  C   UNL     1       6.237  11.177  25.368  0.00  0.00    +0.000 A 
ATOM     29  C   UNL     1       6.628  11.534  26.654  0.00  0.00    +0.000 A 
ATOM     30  C   UNL     1       7.404  12.676  26.852  0.00  0.00    +0.000 A 
ATOM     31  C   UNL     1       7.759  13.483  25.768  0.00  0.00    +0.000 A 
ENDBRANCH   9  26
TORSDOF 2
ENDMDL
MODEL 9
REMARK VINA RESULT:      -7.4      3.027      7.916
REMARK  Name = 
REMARK  3 active torsions:
REMARK  status: ('A' for Active; 'I' for Inactive)
REMARK    1  A    between atoms: C_1  and  C_2
REMARK    2  A    between atoms: C_9  and  C_10
REMARK    3  A    between atoms: N_18  and  C_19
REMARK                            x       y       z     vdW  Elec       q    Type
REMARK                         _______ _______ _______ _____ _____    ______ ____
ROOT
ATOM      1  C   UNL     1       1.390   8.442  20.047  0.00  0.00    +0.000 A 
ATOM      2  C   UNL     1       0.738   7.842  21.141  0.00  0.00    +0.000 A 
ATOM      3  C   UNL     1      -0.080   8.582  21.984  0.00  0.00    +0.000 A 
ATOM      4  C   UNL     1      -0.272   9.931  21.726  0.00  0.00    +0.000 A 
ATOM      5  C   UNL     1       0.351  10.553  20.659  0.00  0.00    +0.000 A 
ATOM      6  N   UNL     1       0.090  11.854  20.481  0.00  0.00    +0.000 NA
ATOM      7  C   UNL     1       0.742  12.455  19.466  0.00  0.00    +0.000 A 
ATOM      8  C   UNL     1       1.674  11.808  18.662  0.00  0.00    +0.000 A 
ATOM      9  N   UNL     1       2.430  12.512  17.705  0.00  0.00    +0.000 N 
ATOM     10  N   UNL     1       1.887  10.484  18.798  0.00  0.00    +0.000 NA
ATOM     11  C   UNL     1       1.228   9.828  19.806  0.00  0.00    +0.000 A 
ATOM     12  H   UNL     1       3.108  11.880  17.289  0.00  0.00    +0.000 HD
ENDROOT
BRANCH   1  21
ATOM     13  C   UNL     1       3.996   3.633  19.552  0.00  0.00    +0.000 C 
ATOM     14  C   UNL     1       3.467   4.228  18.245  0.00  0.00    +0.000 C 
ATOM     15  C   UNL     1       4.494   4.010  17.096  0.00  0.00    +0.000 C 
ATOM     16  N   UNL     1       4.964   5.180  16.359  0.00  0.00    +0.000 N 
ATOM     17  C   UNL     1       4.616   6.491  16.575  0.00  0.00    +0.000 C 
ATOM     18  O   UNL     1       5.095   7.395  15.901  0.00  0.00    +0.000 OA
ATOM     19  C   UNL     1       3.658   6.703  17.638  0.00  0.00    +0.000 A 
ATOM     20  C   UNL     1       3.077   7.901  18.122  0.00  0.00    +0.000 A 
ATOM     21  C   UNL     1       2.215   7.588  19.167  0.00  0.00    +0.000 A 
ATOM     22  N   UNL     1       2.270   6.212  19.301  0.00  0.00    +0.000 N 
ATOM     23  C   UNL     1       3.143   5.675  18.396  0.00  0.00    +0.000 A 
ATOM     24  H   UNL     1       5.637   5.057  15.615  0.00  0.00    +0.000 HD
ATOM     25  H   UNL     1       1.739   5.707  20.004  0.00  0.00    +0.000 HD
ENDBRANCH   1  21
BRANCH   9  26
ATOM     26  C   UNL     1       2.965  13.806  17.912  0.00  0.00    +0.000 A 
ATOM     27  C   UNL     1       2.142  14.938  18.011  0.00  0.00    +0.000 A 
ATOM     28  C   UNL     1       2.690  16.213  18.136  0.00  0.00    +0.000 A 
ATOM     29  C   UNL     1       4.071  16.367  18.209  0.00  0.00    +0.000 A 
ATOM     30  C   UNL     1       4.896  15.242  18.187  0.00  0.00    +0.000 A 
ATOM     31  C   UNL     1       4.345  13.965  18.056  0.00  0.00    +0.000 A 
ENDBRANCH   9  26
TORSDOF 2
ENDMDL
