MODEL 1
REMARK VINA RESULT:      -7.5      0.000      0.000
REMARK  Name = 
REMARK  5 active torsions:
REMARK  status: ('A' for Active; 'I' for Inactive)
REMARK    1  A    between atoms: C_1  and  S_2
REMARK    2  A    between atoms: S_2  and  N_5
REMARK    3  A    between atoms: N_5  and  C_6
REMARK    4  A    between atoms: C_9  and  C_10
REMARK    5  A    between atoms: C_13  and  C_14
REMARK                            x       y       z     vdW  Elec       q    Type
REMARK                         _______ _______ _______ _____ _____    ______ ____
ROOT
ATOM      1  C   UNL     1       0.508   9.361  19.822  0.00  0.00    +0.000 A 
ATOM      2  C   UNL     1       1.100   8.320  20.526  0.00  0.00    +0.000 A 
ATOM      3  C   UNL     1       2.070   7.523  19.910  0.00  0.00    +0.000 A 
ATOM      4  C   UNL     1       2.468   7.741  18.577  0.00  0.00    +0.000 A 
ATOM      5  C   UNL     1       1.851   8.807  17.892  0.00  0.00    +0.000 A 
ATOM      6  C   UNL     1       0.887   9.615  18.508  0.00  0.00    +0.000 A 
ENDROOT
BRANCH   4   7
ATOM      7  C   UNL     1       3.489   6.884  17.926  0.00  0.00    +0.000 A 
ATOM      8  C   UNL     1       4.186   7.320  16.781  0.00  0.00    +0.000 A 
ATOM      9  C   UNL     1       5.160   6.523  16.164  0.00  0.00    +0.000 A 
ATOM     10  C   UNL     1       5.477   5.265  16.681  0.00  0.00    +0.000 A 
ATOM     11  C   UNL     1       4.794   4.826  17.808  0.00  0.00    +0.000 A 
ATOM     12  F   UNL     1       5.077   3.626  18.334  0.00  0.00    +0.000 F 
ATOM     13  C   UNL     1       3.813   5.610  18.419  0.00  0.00    +0.000 A 
BRANCH  10  14
ATOM     14  C   UNL     1       6.535   4.398  16.068  0.00  0.00    +0.000 C 
ATOM     15  F   UNL     1       6.060   3.185  15.661  0.00  0.00    +0.000 F 
ATOM     16  F   UNL     1       7.103   4.955  14.964  0.00  0.00    +0.000 F 
ATOM     17  F   UNL     1       7.556   4.118  16.925  0.00  0.00    +0.000 F 
ENDBRANCH  10  14
ENDBRANCH   4   7
BRANCH   1  18
ATOM     18  N   UNL     1      -0.420  10.213  20.487  0.00  0.00    +0.000 N 
ATOM     19  H   UNL     1      -0.975  10.812  19.872  0.00  0.00    +0.000 HD
BRANCH  18  21
ATOM     20  C   UNL     1      -1.055  12.423  21.885  0.00  0.00    +0.000 C 
ATOM     21  S   UNL     1       0.190  11.158  21.755  0.00  0.00    +0.000 S 
ATOM     22  O   UNL     1       1.391  11.776  21.231  0.00  0.00    +0.000 OA
ATOM     23  O   UNL     1       0.218  10.390  22.980  0.00  0.00    +0.000 OA
ENDBRANCH  18  21
ENDBRANCH   1  18
TORSDOF 4
ENDMDL
MODEL 2
REMARK VINA RESULT:      -7.4      0.366      1.089
REMARK  Name = 
REMARK  5 active torsions:
REMARK  status: ('A' for Active; 'I' for Inactive)
REMARK    1  A    between atoms: C_1  and  S_2
REMARK    2  A    between atoms: S_2  and  N_5
REMARK    3  A    between atoms: N_5  and  C_6
REMARK    4  A    between atoms: C_9  and  C_10
REMARK    5  A    between atoms: C_13  and  C_14
REMARK                            x       y       z     vdW  Elec       q    Type
REMARK                         _______ _______ _______ _____ _____    ______ ____
ROOT
ATOM      1  C   UNL     1       0.562   9.331  20.000  0.00  0.00    +0.000 A 
ATOM      2  C   UNL     1       0.890   9.589  18.675  0.00  0.00    +0.000 A 
ATOM      3  C   UNL     1       1.831   8.786  18.021  0.00  0.00    +0.000 A 
ATOM      4  C   UNL     1       2.470   7.715  18.673  0.00  0.00    +0.000 A 
ATOM      5  C   UNL     1       2.113   7.479  20.015  0.00  0.00    +0.000 A 
ATOM      6  C   UNL     1       1.163   8.272  20.672  0.00  0.00    +0.000 A 
ENDROOT
BRANCH   4   7
ATOM      7  C   UNL     1       3.476   6.876  17.976  0.00  0.00    +0.000 A 
ATOM      8  C   UNL     1       4.195   7.367  16.868  0.00  0.00    +0.000 A 
ATOM      9  C   UNL     1       5.154   6.587  16.208  0.00  0.00    +0.000 A 
ATOM     10  C   UNL     1       5.435   5.290  16.645  0.00  0.00    +0.000 A 
ATOM     11  C   UNL     1       4.729   4.796  17.735  0.00  0.00    +0.000 A 
ATOM     12  F   UNL     1       4.976   3.558  18.184  0.00  0.00    +0.000 F 
ATOM     13  C   UNL     1       3.762   5.564  18.388  0.00  0.00    +0.000 A 
BRANCH  10  14
ATOM     14  C   UNL     1       6.476   4.438  15.986  0.00  0.00    +0.000 C 
ATOM     15  F   UNL     1       6.007   3.208  15.623  0.00  0.00    +0.000 F 
ATOM     16  F   UNL     1       6.969   4.990  14.844  0.00  0.00    +0.000 F 
ATOM     17  F   UNL     1       7.550   4.193  16.788  0.00  0.00    +0.000 F 
ENDBRANCH  10  14
ENDBRANCH   4   7
BRANCH   1  18
ATOM     18  N   UNL     1      -0.454  10.106  20.629  0.00  0.00    +0.000 N 
ATOM     19  H   UNL     1      -1.198  10.430  20.007  0.00  0.00    +0.000 HD
BRANCH  18  21
ATOM     20  C   UNL     1      -0.798  12.768  20.815  0.00  0.00    +0.000 C 
ATOM     21  S   UNL     1       0.064  11.412  21.578  0.00  0.00    +0.000 S 
ATOM     22  O   UNL     1       1.474  11.566  21.283  0.00  0.00    +0.000 OA
ATOM     23  O   UNL     1      -0.402  11.257  22.938  0.00  0.00    +0.000 OA
ENDBRANCH  18  21
ENDBRANCH   1  18
TORSDOF 4
ENDMDL
MODEL 3
REMARK VINA RESULT:      -7.4      0.627      1.529
REMARK  Name = 
REMARK  5 active torsions:
REMARK  status: ('A' for Active; 'I' for Inactive)
REMARK    1  A    between atoms: C_1  and  S_2
REMARK    2  A    between atoms: S_2  and  N_5
REMARK    3  A    between atoms: N_5  and  C_6
REMARK    4  A    between atoms: C_9  and  C_10
REMARK    5  A    between atoms: C_13  and  C_14
REMARK                            x       y       z     vdW  Elec       q    Type
REMARK                         _______ _______ _______ _____ _____    ______ ____
ROOT
ATOM      1  C   UNL     1       0.617   9.351  19.963  0.00  0.00    +0.000 A 
ATOM      2  C   UNL     1       0.924   9.589  18.629  0.00  0.00    +0.000 A 
ATOM      3  C   UNL     1       1.847   8.770  17.970  0.00  0.00    +0.000 A 
ATOM      4  C   UNL     1       2.489   7.702  18.625  0.00  0.00    +0.000 A 
ATOM      5  C   UNL     1       2.153   7.487  19.976  0.00  0.00    +0.000 A 
ATOM      6  C   UNL     1       1.222   8.297  20.639  0.00  0.00    +0.000 A 
ENDROOT
BRANCH   4   7
ATOM      7  C   UNL     1       3.476   6.846  17.923  0.00  0.00    +0.000 A 
ATOM      8  C   UNL     1       4.264   7.353  16.869  0.00  0.00    +0.000 A 
ATOM      9  C   UNL     1       5.207   6.556  16.205  0.00  0.00    +0.000 A 
ATOM     10  C   UNL     1       5.401   5.225  16.583  0.00  0.00    +0.000 A 
ATOM     11  C   UNL     1       4.627   4.716  17.619  0.00  0.00    +0.000 A 
ATOM     12  F   UNL     1       4.790   3.445  18.010  0.00  0.00    +0.000 F 
ATOM     13  C   UNL     1       3.676   5.502  18.275  0.00  0.00    +0.000 A 
BRANCH  10  14
ATOM     14  C   UNL     1       6.421   4.352  15.919  0.00  0.00    +0.000 C 
ATOM     15  F   UNL     1       6.921   4.895  14.770  0.00  0.00    +0.000 F 
ATOM     16  F   UNL     1       7.504   4.109  16.707  0.00  0.00    +0.000 F 
ATOM     17  F   UNL     1       5.927   3.134  15.559  0.00  0.00    +0.000 F 
ENDBRANCH  10  14
ENDBRANCH   4   7
BRANCH   1  18
ATOM     18  N   UNL     1      -0.383  10.143  20.599  0.00  0.00    +0.000 N 
ATOM     19  H   UNL     1      -1.288  10.159  20.124  0.00  0.00    +0.000 HD
BRANCH  18  21
ATOM     20  C   UNL     1      -0.878  11.987  22.494  0.00  0.00    +0.000 C 
ATOM     21  S   UNL     1       0.048  11.734  20.996  0.00  0.00    +0.000 S 
ATOM     22  O   UNL     1      -0.546  12.562  19.968  0.00  0.00    +0.000 OA
ATOM     23  O   UNL     1       1.462  11.809  21.292  0.00  0.00    +0.000 OA
ENDBRANCH  18  21
ENDBRANCH   1  18
TORSDOF 4
ENDMDL
MODEL 4
REMARK VINA RESULT:      -7.3      0.757      1.841
REMARK  Name = 
REMARK  5 active torsions:
REMARK  status: ('A' for Active; 'I' for Inactive)
REMARK    1  A    between atoms: C_1  and  S_2
REMARK    2  A    between atoms: S_2  and  N_5
REMARK    3  A    between atoms: N_5  and  C_6
REMARK    4  A    between atoms: C_9  and  C_10
REMARK    5  A    between atoms: C_13  and  C_14
REMARK                            x       y       z     vdW  Elec       q    Type
REMARK                         _______ _______ _______ _____ _____    ______ ____
ROOT
ATOM      1  C   UNL     1       0.500   9.587  19.869  0.00  0.00    +0.000 A 
ATOM      2  C   UNL     1       0.818   9.735  18.525  0.00  0.00    +0.000 A 
ATOM      3  C   UNL     1       1.722   8.855  17.922  0.00  0.00    +0.000 A 
ATOM      4  C   UNL     1       2.335   7.814  18.644  0.00  0.00    +0.000 A 
ATOM      5  C   UNL     1       1.989   7.690  20.005  0.00  0.00    +0.000 A 
ATOM      6  C   UNL     1       1.075   8.561  20.611  0.00  0.00    +0.000 A 
ENDROOT
BRANCH   4   7
ATOM      7  C   UNL     1       3.303   6.892  18.001  0.00  0.00    +0.000 A 
ATOM      8  C   UNL     1       3.016   5.521  17.848  0.00  0.00    +0.000 A 
ATOM      9  C   UNL     1       3.918   4.643  17.233  0.00  0.00    +0.000 A 
ATOM     10  C   UNL     1       5.137   5.113  16.738  0.00  0.00    +0.000 A 
ATOM     11  C   UNL     1       5.431   6.463  16.885  0.00  0.00    +0.000 A 
ATOM     12  F   UNL     1       6.588   6.948  16.417  0.00  0.00    +0.000 F 
ATOM     13  C   UNL     1       4.541   7.340  17.510  0.00  0.00    +0.000 A 
BRANCH  10  14
ATOM     14  C   UNL     1       6.113   4.212  16.045  0.00  0.00    +0.000 C 
ATOM     15  F   UNL     1       6.407   4.619  14.775  0.00  0.00    +0.000 F 
ATOM     16  F   UNL     1       7.310   4.132  16.687  0.00  0.00    +0.000 F 
ATOM     17  F   UNL     1       5.660   2.933  15.918  0.00  0.00    +0.000 F 
ENDBRANCH  10  14
ENDBRANCH   4   7
BRANCH   1  18
ATOM     18  N   UNL     1      -0.482  10.441  20.450  0.00  0.00    +0.000 N 
ATOM     19  H   UNL     1      -1.029  10.988  19.782  0.00  0.00    +0.000 HD
BRANCH  18  21
ATOM     20  C   UNL     1      -1.062  12.850  21.498  0.00  0.00    +0.000 C 
ATOM     21  S   UNL     1       0.045  11.470  21.690  0.00  0.00    +0.000 S 
ATOM     22  O   UNL     1       1.366  11.908  21.292  0.00  0.00    +0.000 OA
ATOM     23  O   UNL     1      -0.182  10.855  22.979  0.00  0.00    +0.000 OA
ENDBRANCH  18  21
ENDBRANCH   1  18
TORSDOF 4
ENDMDL
MODEL 5
REMARK VINA RESULT:      -7.2      6.149      8.650
REMARK  Name = 
REMARK  5 active torsions:
REMARK  status: ('A' for Active; 'I' for Inactive)
REMARK    1  A    between atoms: C_1  and  S_2
REMARK    2  A    between atoms: S_2  and  N_5
REMARK    3  A    between atoms: N_5  and  C_6
REMARK    4  A    between atoms: C_9  and  C_10
REMARK    5  A    between atoms: C_13  and  C_14
REMARK                            x       y       z     vdW  Elec       q    Type
REMARK                         _______ _______ _______ _____ _____    ______ ____
ROOT
ATOM      1  C   UNL     1       3.479   6.070  18.298  0.00  0.00    +0.000 A 
ATOM      2  C   UNL     1       2.997   5.752  19.562  0.00  0.00    +0.000 A 
ATOM      3  C   UNL     1       2.194   6.666  20.251  0.00  0.00    +0.000 A 
ATOM      4  C   UNL     1       1.858   7.918  19.701  0.00  0.00    +0.000 A 
ATOM      5  C   UNL     1       2.360   8.207  18.417  0.00  0.00    +0.000 A 
ATOM      6  C   UNL     1       3.156   7.291  17.717  0.00  0.00    +0.000 A 
ENDROOT
BRANCH   4   7
ATOM      7  C   UNL     1       1.015   8.886  20.444  0.00  0.00    +0.000 A 
ATOM      8  C   UNL     1       0.284   9.886  19.770  0.00  0.00    +0.000 A 
ATOM      9  C   UNL     1      -0.523  10.800  20.460  0.00  0.00    +0.000 A 
ATOM     10  C   UNL     1      -0.635  10.736  21.851  0.00  0.00    +0.000 A 
ATOM     11  C   UNL     1       0.083   9.756  22.525  0.00  0.00    +0.000 A 
ATOM     12  F   UNL     1      -0.005   9.663  23.858  0.00  0.00    +0.000 F 
ATOM     13  C   UNL     1       0.900   8.851  21.843  0.00  0.00    +0.000 A 
BRANCH  10  14
ATOM     14  C   UNL     1      -1.513  11.675  22.621  0.00  0.00    +0.000 C 
ATOM     15  F   UNL     1      -2.280  11.042  23.556  0.00  0.00    +0.000 F 
ATOM     16  F   UNL     1      -0.810  12.618  23.305  0.00  0.00    +0.000 F 
ATOM     17  F   UNL     1      -2.392  12.351  21.830  0.00  0.00    +0.000 F 
ENDBRANCH  10  14
ENDBRANCH   4   7
BRANCH   1  18
ATOM     18  N   UNL     1       4.231   5.098  17.575  0.00  0.00    +0.000 N 
ATOM     19  H   UNL     1       3.872   4.142  17.634  0.00  0.00    +0.000 HD
BRANCH  18  21
ATOM     20  C   UNL     1       6.503   4.341  16.348  0.00  0.00    +0.000 C 
ATOM     21  S   UNL     1       5.902   5.067  17.858  0.00  0.00    +0.000 S 
ATOM     22  O   UNL     1       6.095   4.098  18.918  0.00  0.00    +0.000 OA
ATOM     23  O   UNL     1       6.413   6.414  17.975  0.00  0.00    +0.000 OA
ENDBRANCH  18  21
ENDBRANCH   1  18
TORSDOF 4
ENDMDL
MODEL 6
REMARK VINA RESULT:      -7.2      6.097      8.653
REMARK  Name = 
REMARK  5 active torsions:
REMARK  status: ('A' for Active; 'I' for Inactive)
REMARK    1  A    between atoms: C_1  and  S_2
REMARK    2  A    between atoms: S_2  and  N_5
REMARK    3  A    between atoms: N_5  and  C_6
REMARK    4  A    between atoms: C_9  and  C_10
REMARK    5  A    between atoms: C_13  and  C_14
REMARK                            x       y       z     vdW  Elec       q    Type
REMARK                         _______ _______ _______ _____ _____    ______ ____
ROOT
ATOM      1  C   UNL     1       3.546   6.121  18.115  0.00  0.00    +0.000 A 
ATOM      2  C   UNL     1       3.240   7.370  17.588  0.00  0.00    +0.000 A 
ATOM      3  C   UNL     1       2.449   8.261  18.321  0.00  0.00    +0.000 A 
ATOM      4  C   UNL     1       1.941   7.927  19.591  0.00  0.00    +0.000 A 
ATOM      5  C   UNL     1       2.273   6.655  20.097  0.00  0.00    +0.000 A 
ATOM      6  C   UNL     1       3.073   5.762  19.373  0.00  0.00    +0.000 A 
ENDROOT
BRANCH   4   7
ATOM      7  C   UNL     1       1.093   8.873  20.357  0.00  0.00    +0.000 A 
ATOM      8  C   UNL     1       0.357   9.885  19.708  0.00  0.00    +0.000 A 
ATOM      9  C   UNL     1      -0.455  10.777  20.420  0.00  0.00    +0.000 A 
ATOM     10  C   UNL     1      -0.567  10.678  21.810  0.00  0.00    +0.000 A 
ATOM     11  C   UNL     1       0.156   9.686  22.459  0.00  0.00    +0.000 A 
ATOM     12  F   UNL     1       0.069   9.559  23.790  0.00  0.00    +0.000 F 
ATOM     13  C   UNL     1       0.979   8.802  21.755  0.00  0.00    +0.000 A 
BRANCH  10  14
ATOM     14  C   UNL     1      -1.450  11.593  22.602  0.00  0.00    +0.000 C 
ATOM     15  F   UNL     1      -2.172  10.940  23.559  0.00  0.00    +0.000 F 
ATOM     16  F   UNL     1      -0.756  12.557  23.266  0.00  0.00    +0.000 F 
ATOM     17  F   UNL     1      -2.370  12.242  21.835  0.00  0.00    +0.000 F 
ENDBRANCH  10  14
ENDBRANCH   4   7
BRANCH   1  18
ATOM     18  N   UNL     1       4.417   5.256  17.392  0.00  0.00    +0.000 N 
ATOM     19  H   UNL     1       4.067   4.304  17.257  0.00  0.00    +0.000 HD
BRANCH  18  21
ATOM     20  C   UNL     1       6.839   4.488  16.506  0.00  0.00    +0.000 C 
ATOM     21  S   UNL     1       6.022   5.170  17.932  0.00  0.00    +0.000 S 
ATOM     22  O   UNL     1       6.026   4.156  18.966  0.00  0.00    +0.000 OA
ATOM     23  O   UNL     1       6.534   6.498  18.185  0.00  0.00    +0.000 OA
ENDBRANCH  18  21
ENDBRANCH   1  18
TORSDOF 4
ENDMDL
MODEL 7
REMARK VINA RESULT:      -7.2      1.035      1.864
REMARK  Name = 
REMARK  5 active torsions:
REMARK  status: ('A' for Active; 'I' for Inactive)
REMARK    1  A    between atoms: C_1  and  S_2
REMARK    2  A    between atoms: S_2  and  N_5
REMARK    3  A    between atoms: N_5  and  C_6
REMARK    4  A    between atoms: C_9  and  C_10
REMARK    5  A    between atoms: C_13  and  C_14
REMARK                            x       y       z     vdW  Elec       q    Type
REMARK                         _______ _______ _______ _____ _____    ______ ____
ROOT
ATOM      1  C   UNL     1       0.516   9.358  19.742  0.00  0.00    +0.000 A 
ATOM      2  C   UNL     1       0.906   9.575  18.426  0.00  0.00    +0.000 A 
ATOM      3  C   UNL     1       1.876   8.753  17.842  0.00  0.00    +0.000 A 
ATOM      4  C   UNL     1       2.485   7.704  18.557  0.00  0.00    +0.000 A 
ATOM      5  C   UNL     1       2.064   7.510  19.888  0.00  0.00    +0.000 A 
ATOM      6  C   UNL     1       1.085   8.322  20.474  0.00  0.00    +0.000 A 
ENDROOT
BRANCH   4   7
ATOM      7  C   UNL     1       3.522   6.845  17.935  0.00  0.00    +0.000 A 
ATOM      8  C   UNL     1       3.265   5.493  17.632  0.00  0.00    +0.000 A 
ATOM      9  C   UNL     1       4.233   4.675  17.035  0.00  0.00    +0.000 A 
ATOM     10  C   UNL     1       5.492   5.188  16.711  0.00  0.00    +0.000 A 
ATOM     11  C   UNL     1       5.755   6.520  17.008  0.00  0.00    +0.000 A 
ATOM     12  F   UNL     1       6.950   7.046  16.706  0.00  0.00    +0.000 F 
ATOM     13  C   UNL     1       4.798   7.336  17.616  0.00  0.00    +0.000 A 
BRANCH  10  14
ATOM     14  C   UNL     1       6.542   4.354  16.043  0.00  0.00    +0.000 C 
ATOM     15  F   UNL     1       6.086   3.122  15.669  0.00  0.00    +0.000 F 
ATOM     16  F   UNL     1       7.026   4.922  14.905  0.00  0.00    +0.000 F 
ATOM     17  F   UNL     1       7.619   4.114  16.841  0.00  0.00    +0.000 F 
ENDBRANCH  10  14
ENDBRANCH   4   7
BRANCH   1  18
ATOM     18  N   UNL     1      -0.529  10.152  20.298  0.00  0.00    +0.000 N 
ATOM     19  H   UNL     1      -1.114  10.637  19.614  0.00  0.00    +0.000 HD
BRANCH  18  21
ATOM     20  C   UNL     1      -0.560  10.371  22.979  0.00  0.00    +0.000 C 
ATOM     21  S   UNL     1      -0.085  11.252  21.508  0.00  0.00    +0.000 S 
ATOM     22  O   UNL     1      -0.987  12.375  21.358  0.00  0.00    +0.000 OA
ATOM     23  O   UNL     1       1.349  11.441  21.509  0.00  0.00    +0.000 OA
ENDBRANCH  18  21
ENDBRANCH   1  18
TORSDOF 4
ENDMDL
MODEL 8
REMARK VINA RESULT:      -7.2      6.130      8.669
REMARK  Name = 
REMARK  5 active torsions:
REMARK  status: ('A' for Active; 'I' for Inactive)
REMARK    1  A    between atoms: C_1  and  S_2
REMARK    2  A    between atoms: S_2  and  N_5
REMARK    3  A    between atoms: N_5  and  C_6
REMARK    4  A    between atoms: C_9  and  C_10
REMARK    5  A    between atoms: C_13  and  C_14
REMARK                            x       y       z     vdW  Elec       q    Type
REMARK                         _______ _______ _______ _____ _____    ______ ____
ROOT
ATOM      1  C   UNL     1       3.370   6.385  18.079  0.00  0.00    +0.000 A 
ATOM      2  C   UNL     1       3.007   6.056  19.380  0.00  0.00    +0.000 A 
ATOM      3  C   UNL     1       2.206   6.930  20.122  0.00  0.00    +0.000 A 
ATOM      4  C   UNL     1       1.753   8.152  19.589  0.00  0.00    +0.000 A 
ATOM      5  C   UNL     1       2.136   8.453  18.267  0.00  0.00    +0.000 A 
ATOM      6  C   UNL     1       2.929   7.578  17.515  0.00  0.00    +0.000 A 
ENDROOT
BRANCH   4   7
ATOM      7  C   UNL     1       0.914   9.079  20.387  0.00  0.00    +0.000 A 
ATOM      8  C   UNL     1       0.198  10.127  19.774  0.00  0.00    +0.000 A 
ATOM      9  C   UNL     1      -0.606  11.003  20.516  0.00  0.00    +0.000 A 
ATOM     10  C   UNL     1      -0.731  10.849  21.900  0.00  0.00    +0.000 A 
ATOM     11  C   UNL     1      -0.028   9.820  22.513  0.00  0.00    +0.000 A 
ATOM     12  F   UNL     1      -0.127   9.641  23.837  0.00  0.00    +0.000 F 
ATOM     13  C   UNL     1       0.787   8.953  21.780  0.00  0.00    +0.000 A 
BRANCH  10  14
ATOM     14  C   UNL     1      -1.606  11.744  22.722  0.00  0.00    +0.000 C 
ATOM     15  F   UNL     1      -0.901  12.666  23.441  0.00  0.00    +0.000 F 
ATOM     16  F   UNL     1      -2.483  12.464  21.971  0.00  0.00    +0.000 F 
ATOM     17  F   UNL     1      -2.352  11.065  23.638  0.00  0.00    +0.000 F 
ENDBRANCH  10  14
ENDBRANCH   4   7
BRANCH   1  18
ATOM     18  N   UNL     1       4.120   5.451  17.308  0.00  0.00    +0.000 N 
ATOM     19  H   UNL     1       4.259   4.539  17.749  0.00  0.00    +0.000 HD
BRANCH  18  21
ATOM     20  C   UNL     1       6.458   4.450  16.430  0.00  0.00    +0.000 C 
ATOM     21  S   UNL     1       5.609   5.990  16.701  0.00  0.00    +0.000 S 
ATOM     22  O   UNL     1       6.257   6.659  17.809  0.00  0.00    +0.000 OA
ATOM     23  O   UNL     1       5.417   6.657  15.432  0.00  0.00    +0.000 OA
ENDBRANCH  18  21
ENDBRANCH   1  18
TORSDOF 4
ENDMDL
MODEL 9
REMARK VINA RESULT:      -7.1      1.174      1.688
REMARK  Name = 
REMARK  5 active torsions:
REMARK  status: ('A' for Active; 'I' for Inactive)
REMARK    1  A    between atoms: C_1  and  S_2
REMARK    2  A    between atoms: S_2  and  N_5
REMARK    3  A    between atoms: N_5  and  C_6
REMARK    4  A    between atoms: C_9  and  C_10
REMARK    5  A    between atoms: C_13  and  C_14
REMARK                            x       y       z     vdW  Elec       q    Type
REMARK                         _______ _______ _______ _____ _____    ______ ____
ROOT
ATOM      1  C   UNL     1       0.110  10.238  19.816  0.00  0.00    +0.000 A 
ATOM      2  C   UNL     1       0.594   9.220  20.628  0.00  0.00    +0.000 A 
ATOM      3  C   UNL     1       1.442   8.245  20.092  0.00  0.00    +0.000 A 
ATOM      4  C   UNL     1       1.820   8.258  18.736  0.00  0.00    +0.000 A 
ATOM      5  C   UNL     1       1.314   9.306  17.942  0.00  0.00    +0.000 A 
ATOM      6  C   UNL     1       0.474  10.291  18.475  0.00  0.00    +0.000 A 
ENDROOT
BRANCH   4   7
ATOM      7  C   UNL     1       2.710   7.214  18.172  0.00  0.00    +0.000 A 
ATOM      8  C   UNL     1       2.402   5.844  18.301  0.00  0.00    +0.000 A 
ATOM      9  C   UNL     1       3.229   4.849  17.764  0.00  0.00    +0.000 A 
ATOM     10  C   UNL     1       4.391   5.194  17.067  0.00  0.00    +0.000 A 
ATOM     11  C   UNL     1       4.704   6.541  16.937  0.00  0.00    +0.000 A 
ATOM     12  F   UNL     1       5.807   6.907  16.271  0.00  0.00    +0.000 F 
ATOM     13  C   UNL     1       3.890   7.536  17.483  0.00  0.00    +0.000 A 
BRANCH  10  14
ATOM     14  C   UNL     1       5.283   4.160  16.451  0.00  0.00    +0.000 C 
ATOM     15  F   UNL     1       4.864   2.883  16.691  0.00  0.00    +0.000 F 
ATOM     16  F   UNL     1       5.362   4.267  15.097  0.00  0.00    +0.000 F 
ATOM     17  F   UNL     1       6.562   4.214  16.916  0.00  0.00    +0.000 F 
ENDBRANCH  10  14
ENDBRANCH   4   7
BRANCH   1  18
ATOM     18  N   UNL     1      -0.688  11.269  20.393  0.00  0.00    +0.000 N 
ATOM     19  H   UNL     1      -1.101  11.922  19.724  0.00  0.00    +0.000 HD
BRANCH  18  21
ATOM     20  C   UNL     1      -0.790  13.734  21.467  0.00  0.00    +0.000 C 
ATOM     21  S   UNL     1       0.015  12.157  21.654  0.00  0.00    +0.000 S 
ATOM     22  O   UNL     1       1.403  12.326  21.278  0.00  0.00    +0.000 OA
ATOM     23  O   UNL     1      -0.350  11.585  22.931  0.00  0.00    +0.000 OA
ENDBRANCH  18  21
ENDBRANCH   1  18
TORSDOF 4
ENDMDL
