MODEL 1
REMARK VINA RESULT:      -8.3      0.000      0.000
REMARK  Name = 
REMARK  11 active torsions:
REMARK  status: ('A' for Active; 'I' for Inactive)
REMARK    1  A    between atoms: C_1  and  C_2
REMARK    2  A    between atoms: C_2  and  C_3
REMARK    3  A    between atoms: C_2  and  C_4
REMARK    4  A    between atoms: N_9  and  C_10
REMARK    5  A    between atoms: C_10  and  C_11
REMARK    6  A    between atoms: C_14  and  C_15
REMARK    7  A    between atoms: N_25  and  C_26
REMARK    8  A    between atoms: C_26  and  C_27
REMARK    9  A    between atoms: C_27  and  C_28
REMARK   10  A    between atoms: C_27  and  C_29
REMARK   11  A    between atoms: C_27  and  O_30
REMARK                            x       y       z     vdW  Elec       q    Type
REMARK                         _______ _______ _______ _____ _____    ______ ____
ROOT
ATOM      1  C   UNL     1       2.184   4.356  20.309  0.00  0.00    +0.000 A 
ATOM      2  N   UNL     1       1.588   5.228  21.135  0.00  0.00    +0.000 NA
ATOM      3  N   UNL     1       1.731   6.398  20.502  0.00  0.00    +0.000 N 
ATOM      4  C   UNL     1       2.420   6.334  19.327  0.00  0.00    +0.000 A 
ATOM      5  C   UNL     1       2.838   7.264  18.386  0.00  0.00    +0.000 A 
ATOM      6  N   UNL     1       2.533   8.610  18.400  0.00  0.00    +0.000 N 
ATOM      7  N   UNL     1       3.612   6.780  17.380  0.00  0.00    +0.000 NA
ATOM      8  C   UNL     1       3.838   5.453  17.276  0.00  0.00    +0.000 A 
ATOM      9  N   UNL     1       4.641   4.926  16.290  0.00  0.00    +0.000 N 
ATOM     10  N   UNL     1       3.356   4.516  18.095  0.00  0.00    +0.000 NA
ATOM     11  C   UNL     1       2.701   4.998  19.160  0.00  0.00    +0.000 A 
ATOM     12  H   UNL     1       1.352   7.212  20.965  0.00  0.00    +0.000 HD
ATOM     13  H   UNL     1       3.068   9.176  17.752  0.00  0.00    +0.000 HD
ATOM     14  H   UNL     1       4.160   4.147  15.858  0.00  0.00    +0.000 HD
ENDROOT
BRANCH   1  16
ATOM     15  C   UNL     1       1.645   2.639  22.040  0.00  0.00    +0.000 C 
ATOM     16  C   UNL     1       2.251   2.905  20.659  0.00  0.00    +0.000 C 
ATOM     17  C   UNL     1       1.566   2.064  19.583  0.00  0.00    +0.000 C 
ENDBRANCH   1  16
BRANCH   6  18
ATOM     18  C   UNL     1       1.878   9.235  19.521  0.00  0.00    +0.000 C 
BRANCH  18  19
ATOM     19  C   UNL     1       0.538   9.805  19.170  0.00  0.00    +0.000 A 
ATOM     20  C   UNL     1      -0.055   9.529  17.935  0.00  0.00    +0.000 A 
ATOM     21  C   UNL     1      -1.324  10.030  17.642  0.00  0.00    +0.000 A 
ATOM     22  C   UNL     1      -2.032  10.819  18.565  0.00  0.00    +0.000 A 
ATOM     23  C   UNL     1      -1.418  11.083  19.803  0.00  0.00    +0.000 A 
ATOM     24  C   UNL     1      -0.151  10.586  20.102  0.00  0.00    +0.000 A 
BRANCH  22  25
ATOM     25  C   UNL     1      -3.355  11.373  18.224  0.00  0.00    +0.000 A 
ATOM     26  C   UNL     1      -4.179  12.003  19.160  0.00  0.00    +0.000 A 
ATOM     27  C   UNL     1      -5.395  12.539  18.741  0.00  0.00    +0.000 A 
ATOM     28  C   UNL     1      -5.768  12.429  17.410  0.00  0.00    +0.000 A 
ATOM     29  C   UNL     1      -4.904  11.778  16.542  0.00  0.00    +0.000 A 
ATOM     30  N   UNL     1      -3.722  11.248  16.924  0.00  0.00    +0.000 NA
ENDBRANCH  22  25
ENDBRANCH  18  19
ENDBRANCH   6  18
BRANCH   9  31
ATOM     31  C   UNL     1       5.486   5.765  15.464  0.00  0.00    +0.000 C 
BRANCH  31  32
ATOM     32  C   UNL     1       6.946   5.665  15.998  0.00  0.00    +0.000 C 
ATOM     33  C   UNL     1       7.307   6.823  16.932  0.00  0.00    +0.000 C 
ATOM     34  C   UNL     1       7.175   4.330  16.704  0.00  0.00    +0.000 C 
BRANCH  32  35
ATOM     35  O   UNL     1       7.860   5.720  14.889  0.00  0.00    +0.000 OA
ATOM     36  H   UNL     1       8.448   4.945  14.998  0.00  0.00    +0.000 HD
ENDBRANCH  32  35
ENDBRANCH  31  32
ENDBRANCH   9  31
TORSDOF 7
ENDMDL
MODEL 2
REMARK VINA RESULT:      -8.3      3.932     10.116
REMARK  Name = 
REMARK  11 active torsions:
REMARK  status: ('A' for Active; 'I' for Inactive)
REMARK    1  A    between atoms: C_1  and  C_2
REMARK    2  A    between atoms: C_2  and  C_3
REMARK    3  A    between atoms: C_2  and  C_4
REMARK    4  A    between atoms: N_9  and  C_10
REMARK    5  A    between atoms: C_10  and  C_11
REMARK    6  A    between atoms: C_14  and  C_15
REMARK    7  A    between atoms: N_25  and  C_26
REMARK    8  A    between atoms: C_26  and  C_27
REMARK    9  A    between atoms: C_27  and  C_28
REMARK   10  A    between atoms: C_27  and  C_29
REMARK   11  A    between atoms: C_27  and  O_30
REMARK                            x       y       z     vdW  Elec       q    Type
REMARK                         _______ _______ _______ _____ _____    ______ ____
ROOT
ATOM      1  C   UNL     1      -0.417  13.660  21.513  0.00  0.00    +0.000 A 
ATOM      2  N   UNL     1       0.867  13.273  21.498  0.00  0.00    +0.000 NA
ATOM      3  N   UNL     1       0.917  12.414  20.474  0.00  0.00    +0.000 N 
ATOM      4  C   UNL     1      -0.275  12.197  19.848  0.00  0.00    +0.000 A 
ATOM      5  C   UNL     1      -0.700  11.385  18.806  0.00  0.00    +0.000 A 
ATOM      6  N   UNL     1       0.114  10.585  18.031  0.00  0.00    +0.000 N 
ATOM      7  N   UNL     1      -2.035  11.397  18.554  0.00  0.00    +0.000 NA
ATOM      8  C   UNL     1      -2.844  12.250  19.220  0.00  0.00    +0.000 A 
ATOM      9  N   UNL     1      -4.205  12.271  19.016  0.00  0.00    +0.000 N 
ATOM     10  N   UNL     1      -2.454  13.128  20.146  0.00  0.00    +0.000 NA
ATOM     11  C   UNL     1      -1.162  13.030  20.490  0.00  0.00    +0.000 A 
ATOM     12  H   UNL     1       1.813  11.985  20.286  0.00  0.00    +0.000 HD
ATOM     13  H   UNL     1      -0.375   9.920  17.443  0.00  0.00    +0.000 HD
ATOM     14  H   UNL     1      -4.501  13.231  18.887  0.00  0.00    +0.000 HD
ENDROOT
BRANCH   1  16
ATOM     15  C   UNL     1      -1.394  13.918  23.796  0.00  0.00    +0.000 C 
ATOM     16  C   UNL     1      -0.902  14.635  22.535  0.00  0.00    +0.000 C 
ATOM     17  C   UNL     1       0.191  15.649  22.868  0.00  0.00    +0.000 C 
ENDBRANCH   1  16
BRANCH   6  18
ATOM     18  C   UNL     1       1.504  10.372  18.347  0.00  0.00    +0.000 C 
BRANCH  18  19
ATOM     19  C   UNL     1       1.795   8.969  18.784  0.00  0.00    +0.000 A 
ATOM     20  C   UNL     1       2.443   8.075  17.929  0.00  0.00    +0.000 A 
ATOM     21  C   UNL     1       2.748   6.785  18.367  0.00  0.00    +0.000 A 
ATOM     22  C   UNL     1       2.413   6.354  19.662  0.00  0.00    +0.000 A 
ATOM     23  C   UNL     1       1.763   7.271  20.508  0.00  0.00    +0.000 A 
ATOM     24  C   UNL     1       1.456   8.560  20.076  0.00  0.00    +0.000 A 
BRANCH  22  25
ATOM     25  C   UNL     1       2.706   4.975  20.096  0.00  0.00    +0.000 A 
ATOM     26  C   UNL     1       2.038   4.353  21.154  0.00  0.00    +0.000 A 
ATOM     27  C   UNL     1       2.347   3.031  21.468  0.00  0.00    +0.000 A 
ATOM     28  C   UNL     1       3.315   2.363  20.734  0.00  0.00    +0.000 A 
ATOM     29  C   UNL     1       3.946   3.050  19.708  0.00  0.00    +0.000 A 
ATOM     30  N   UNL     1       3.666   4.331  19.386  0.00  0.00    +0.000 NA
ENDBRANCH  22  25
ENDBRANCH  18  19
ENDBRANCH   6  18
BRANCH   9  31
ATOM     31  C   UNL     1      -4.882  11.230  18.270  0.00  0.00    +0.000 C 
BRANCH  31  32
ATOM     32  C   UNL     1      -6.370  11.189  18.729  0.00  0.00    +0.000 C 
ATOM     33  C   UNL     1      -6.844   9.767  19.046  0.00  0.00    +0.000 C 
ATOM     34  C   UNL     1      -6.590  12.097  19.937  0.00  0.00    +0.000 C 
BRANCH  32  35
ATOM     35  O   UNL     1      -7.207  11.682  17.668  0.00  0.00    +0.000 OA
ATOM     36  H   UNL     1      -6.624  12.243  17.118  0.00  0.00    +0.000 HD
ENDBRANCH  32  35
ENDBRANCH  31  32
ENDBRANCH   9  31
TORSDOF 7
ENDMDL
MODEL 3
REMARK VINA RESULT:      -8.2      3.569      9.815
REMARK  Name = 
REMARK  11 active torsions:
REMARK  status: ('A' for Active; 'I' for Inactive)
REMARK    1  A    between atoms: C_1  and  C_2
REMARK    2  A    between atoms: C_2  and  C_3
REMARK    3  A    between atoms: C_2  and  C_4
REMARK    4  A    between atoms: N_9  and  C_10
REMARK    5  A    between atoms: C_10  and  C_11
REMARK    6  A    between atoms: C_14  and  C_15
REMARK    7  A    between atoms: N_25  and  C_26
REMARK    8  A    between atoms: C_26  and  C_27
REMARK    9  A    between atoms: C_27  and  C_28
REMARK   10  A    between atoms: C_27  and  C_29
REMARK   11  A    between atoms: C_27  and  O_30
REMARK                            x       y       z     vdW  Elec       q    Type
REMARK                         _______ _______ _______ _____ _____    ______ ____
ROOT
ATOM      1  C   UNL     1      -3.499  10.880  17.601  0.00  0.00    +0.000 A 
ATOM      2  N   UNL     1      -2.673  10.163  16.823  0.00  0.00    +0.000 NA
ATOM      3  N   UNL     1      -1.477  10.349  17.394  0.00  0.00    +0.000 N 
ATOM      4  C   UNL     1      -1.480  11.176  18.478  0.00  0.00    +0.000 A 
ATOM      5  C   UNL     1      -0.505  11.678  19.329  0.00  0.00    +0.000 A 
ATOM      6  N   UNL     1       0.831  11.335  19.306  0.00  0.00    +0.000 N 
ATOM      7  N   UNL     1      -0.933  12.581  20.249  0.00  0.00    +0.000 NA
ATOM      8  C   UNL     1      -2.250  12.855  20.371  0.00  0.00    +0.000 A 
ATOM      9  N   UNL     1      -2.720  13.786  21.269  0.00  0.00    +0.000 N 
ATOM     10  N   UNL     1      -3.228  12.305  19.649  0.00  0.00    +0.000 NA
ATOM     11  C   UNL     1      -2.802  11.513  18.655  0.00  0.00    +0.000 A 
ATOM     12  H   UNL     1      -0.690   9.893  16.953  0.00  0.00    +0.000 HD
ATOM     13  H   UNL     1       1.433  11.928  19.865  0.00  0.00    +0.000 HD
ATOM     14  H   UNL     1      -3.493  13.383  21.782  0.00  0.00    +0.000 HD
ENDROOT
BRANCH   1  16
ATOM     15  C   UNL     1      -5.796  10.434  18.470  0.00  0.00    +0.000 C 
ATOM     16  C   UNL     1      -4.959  10.945  17.295  0.00  0.00    +0.000 C 
ATOM     17  C   UNL     1      -5.361  12.368  16.909  0.00  0.00    +0.000 C 
ENDBRANCH   1  16
BRANCH   6  18
ATOM     18  C   UNL     1       1.398  10.532  18.253  0.00  0.00    +0.000 C 
BRANCH  18  19
ATOM     19  C   UNL     1       1.710   9.134  18.689  0.00  0.00    +0.000 A 
ATOM     20  C   UNL     1       2.325   8.233  17.815  0.00  0.00    +0.000 A 
ATOM     21  C   UNL     1       2.651   6.948  18.251  0.00  0.00    +0.000 A 
ATOM     22  C   UNL     1       2.370   6.526  19.562  0.00  0.00    +0.000 A 
ATOM     23  C   UNL     1       1.753   7.449  20.427  0.00  0.00    +0.000 A 
ATOM     24  C   UNL     1       1.426   8.733  19.997  0.00  0.00    +0.000 A 
BRANCH  22  25
ATOM     25  C   UNL     1       2.684   5.152  19.994  0.00  0.00    +0.000 A 
ATOM     26  C   UNL     1       1.968   4.487  20.993  0.00  0.00    +0.000 A 
ATOM     27  C   UNL     1       2.303   3.172  21.308  0.00  0.00    +0.000 A 
ATOM     28  C   UNL     1       3.345   2.553  20.634  0.00  0.00    +0.000 A 
ATOM     29  C   UNL     1       4.019   3.281  19.665  0.00  0.00    +0.000 A 
ATOM     30  N   UNL     1       3.714   4.556  19.344  0.00  0.00    +0.000 NA
ENDBRANCH  22  25
ENDBRANCH  18  19
ENDBRANCH   6  18
BRANCH   9  31
ATOM     31  C   UNL     1      -1.830  14.700  21.957  0.00  0.00    +0.000 C 
BRANCH  31  32
ATOM     32  C   UNL     1      -1.595  14.158  23.399  0.00  0.00    +0.000 C 
ATOM     33  C   UNL     1      -1.135  15.252  24.367  0.00  0.00    +0.000 C 
ATOM     34  C   UNL     1      -2.853  13.478  23.935  0.00  0.00    +0.000 C 
BRANCH  32  35
ATOM     35  O   UNL     1      -0.555  13.164  23.367  0.00  0.00    +0.000 OA
ATOM     36  H   UNL     1      -0.328  12.996  24.304  0.00  0.00    +0.000 HD
ENDBRANCH  32  35
ENDBRANCH  31  32
ENDBRANCH   9  31
TORSDOF 7
ENDMDL
MODEL 4
REMARK VINA RESULT:      -8.2      4.323     10.500
REMARK  Name = 
REMARK  11 active torsions:
REMARK  status: ('A' for Active; 'I' for Inactive)
REMARK    1  A    between atoms: C_1  and  C_2
REMARK    2  A    between atoms: C_2  and  C_3
REMARK    3  A    between atoms: C_2  and  C_4
REMARK    4  A    between atoms: N_9  and  C_10
REMARK    5  A    between atoms: C_10  and  C_11
REMARK    6  A    between atoms: C_14  and  C_15
REMARK    7  A    between atoms: N_25  and  C_26
REMARK    8  A    between atoms: C_26  and  C_27
REMARK    9  A    between atoms: C_27  and  C_28
REMARK   10  A    between atoms: C_27  and  C_29
REMARK   11  A    between atoms: C_27  and  O_30
REMARK                            x       y       z     vdW  Elec       q    Type
REMARK                         _______ _______ _______ _____ _____    ______ ____
ROOT
ATOM      1  C   UNL     1      -4.247  11.510  17.751  0.00  0.00    +0.000 A 
ATOM      2  N   UNL     1      -3.308  11.031  16.921  0.00  0.00    +0.000 NA
ATOM      3  N   UNL     1      -2.176  11.183  17.618  0.00  0.00    +0.000 N 
ATOM      4  C   UNL     1      -2.328  11.768  18.840  0.00  0.00    +0.000 A 
ATOM      5  C   UNL     1      -1.464  12.154  19.855  0.00  0.00    +0.000 A 
ATOM      6  N   UNL     1      -0.104  11.924  19.880  0.00  0.00    +0.000 N 
ATOM      7  N   UNL     1      -2.034  12.815  20.896  0.00  0.00    +0.000 NA
ATOM      8  C   UNL     1      -3.375  12.961  20.956  0.00  0.00    +0.000 A 
ATOM      9  N   UNL     1      -3.989  13.650  21.977  0.00  0.00    +0.000 N 
ATOM     10  N   UNL     1      -4.248  12.500  20.058  0.00  0.00    +0.000 NA
ATOM     11  C   UNL     1      -3.685  11.962  18.966  0.00  0.00    +0.000 A 
ATOM     12  H   UNL     1      -1.323  10.887  17.164  0.00  0.00    +0.000 HD
ATOM     13  H   UNL     1       0.402  12.431  20.595  0.00  0.00    +0.000 HD
ATOM     14  H   UNL     1      -4.757  13.094  22.332  0.00  0.00    +0.000 HD
ENDROOT
BRANCH   1  16
ATOM     15  C   UNL     1      -6.560  10.790  18.353  0.00  0.00    +0.000 C 
ATOM     16  C   UNL     1      -5.683  11.529  17.339  0.00  0.00    +0.000 C 
ATOM     17  C   UNL     1      -6.162  12.966  17.138  0.00  0.00    +0.000 C 
ENDBRANCH   1  16
BRANCH   6  18
ATOM     18  C   UNL     1       0.604  11.398  18.741  0.00  0.00    +0.000 C 
BRANCH  18  19
ATOM     19  C   UNL     1       1.113  10.007  18.961  0.00  0.00    +0.000 A 
ATOM     20  C   UNL     1       1.760   9.312  17.936  0.00  0.00    +0.000 A 
ATOM     21  C   UNL     1       2.269   8.033  18.170  0.00  0.00    +0.000 A 
ATOM     22  C   UNL     1       2.144   7.415  19.427  0.00  0.00    +0.000 A 
ATOM     23  C   UNL     1       1.492   8.132  20.446  0.00  0.00    +0.000 A 
ATOM     24  C   UNL     1       0.982   9.409  20.217  0.00  0.00    +0.000 A 
BRANCH  22  25
ATOM     25  C   UNL     1       2.652   6.048  19.646  0.00  0.00    +0.000 A 
ATOM     26  C   UNL     1       1.982   5.106  20.431  0.00  0.00    +0.000 A 
ATOM     27  C   UNL     1       2.510   3.822  20.549  0.00  0.00    +0.000 A 
ATOM     28  C   UNL     1       3.692   3.507  19.895  0.00  0.00    +0.000 A 
ATOM     29  C   UNL     1       4.307   4.498  19.146  0.00  0.00    +0.000 A 
ATOM     30  N   UNL     1       3.817   5.750  19.019  0.00  0.00    +0.000 NA
ENDBRANCH  22  25
ENDBRANCH  18  19
ENDBRANCH   6  18
BRANCH   9  31
ATOM     31  C   UNL     1      -3.234  14.466  22.908  0.00  0.00    +0.000 C 
BRANCH  31  32
ATOM     32  C   UNL     1      -3.838  14.268  24.331  0.00  0.00    +0.000 C 
ATOM     33  C   UNL     1      -4.086  12.793  24.660  0.00  0.00    +0.000 C 
ATOM     34  C   UNL     1      -2.940  14.899  25.393  0.00  0.00    +0.000 C 
BRANCH  32  35
ATOM     35  O   UNL     1      -5.112  14.932  24.401  0.00  0.00    +0.000 OA
ATOM     36  H   UNL     1      -4.904  15.873  24.572  0.00  0.00    +0.000 HD
ENDBRANCH  32  35
ENDBRANCH  31  32
ENDBRANCH   9  31
TORSDOF 7
ENDMDL
MODEL 5
REMARK VINA RESULT:      -8.1      0.702      1.130
REMARK  Name = 
REMARK  11 active torsions:
REMARK  status: ('A' for Active; 'I' for Inactive)
REMARK    1  A    between atoms: C_1  and  C_2
REMARK    2  A    between atoms: C_2  and  C_3
REMARK    3  A    between atoms: C_2  and  C_4
REMARK    4  A    between atoms: N_9  and  C_10
REMARK    5  A    between atoms: C_10  and  C_11
REMARK    6  A    between atoms: C_14  and  C_15
REMARK    7  A    between atoms: N_25  and  C_26
REMARK    8  A    between atoms: C_26  and  C_27
REMARK    9  A    between atoms: C_27  and  C_28
REMARK   10  A    between atoms: C_27  and  C_29
REMARK   11  A    between atoms: C_27  and  O_30
REMARK                            x       y       z     vdW  Elec       q    Type
REMARK                         _______ _______ _______ _____ _____    ______ ____
ROOT
ATOM      1  C   UNL     1       2.243   4.370  20.308  0.00  0.00    +0.000 A 
ATOM      2  N   UNL     1       1.649   5.230  21.149  0.00  0.00    +0.000 NA
ATOM      3  N   UNL     1       1.759   6.404  20.516  0.00  0.00    +0.000 N 
ATOM      4  C   UNL     1       2.425   6.355  19.326  0.00  0.00    +0.000 A 
ATOM      5  C   UNL     1       2.806   7.294  18.379  0.00  0.00    +0.000 A 
ATOM      6  N   UNL     1       2.479   8.634  18.403  0.00  0.00    +0.000 N 
ATOM      7  N   UNL     1       3.568   6.826  17.356  0.00  0.00    +0.000 NA
ATOM      8  C   UNL     1       3.814   5.503  17.243  0.00  0.00    +0.000 A 
ATOM      9  N   UNL     1       4.605   4.992  16.240  0.00  0.00    +0.000 N 
ATOM     10  N   UNL     1       3.366   4.556  18.070  0.00  0.00    +0.000 NA
ATOM     11  C   UNL     1       2.725   5.024  19.150  0.00  0.00    +0.000 A 
ATOM     12  H   UNL     1       1.375   7.210  20.989  0.00  0.00    +0.000 HD
ATOM     13  H   UNL     1       2.989   9.210  17.745  0.00  0.00    +0.000 HD
ATOM     14  H   UNL     1       4.129   4.206  15.816  0.00  0.00    +0.000 HD
ENDROOT
BRANCH   1  16
ATOM     15  C   UNL     1       1.702   2.628  22.012  0.00  0.00    +0.000 C 
ATOM     16  C   UNL     1       2.343   2.920  20.652  0.00  0.00    +0.000 C 
ATOM     17  C   UNL     1       1.717   2.065  19.551  0.00  0.00    +0.000 C 
ENDBRANCH   1  16
BRANCH   6  18
ATOM     18  C   UNL     1       1.836   9.246  19.539  0.00  0.00    +0.000 C 
BRANCH  18  19
ATOM     19  C   UNL     1       0.505   9.844  19.204  0.00  0.00    +0.000 A 
ATOM     20  C   UNL     1      -0.112   9.575  17.981  0.00  0.00    +0.000 A 
ATOM     21  C   UNL     1      -1.374  10.103  17.702  0.00  0.00    +0.000 A 
ATOM     22  C   UNL     1      -2.049  10.914  18.631  0.00  0.00    +0.000 A 
ATOM     23  C   UNL     1      -1.411  11.171  19.859  0.00  0.00    +0.000 A 
ATOM     24  C   UNL     1      -0.152  10.646  20.141  0.00  0.00    +0.000 A 
BRANCH  22  25
ATOM     25  C   UNL     1      -3.364  11.498  18.306  0.00  0.00    +0.000 A 
ATOM     26  C   UNL     1      -3.940  11.409  17.036  0.00  0.00    +0.000 A 
ATOM     27  C   UNL     1      -5.208  11.950  16.828  0.00  0.00    +0.000 A 
ATOM     28  C   UNL     1      -5.866  12.572  17.877  0.00  0.00    +0.000 A 
ATOM     29  C   UNL     1      -5.225  12.634  19.105  0.00  0.00    +0.000 A 
ATOM     30  N   UNL     1      -3.997  12.120  19.331  0.00  0.00    +0.000 NA
ENDBRANCH  22  25
ENDBRANCH  18  19
ENDBRANCH   6  18
BRANCH   9  31
ATOM     31  C   UNL     1       5.417   5.848  15.398  0.00  0.00    +0.000 C 
BRANCH  31  32
ATOM     32  C   UNL     1       6.886   5.328  15.446  0.00  0.00    +0.000 C 
ATOM     33  C   UNL     1       7.042   4.102  16.350  0.00  0.00    +0.000 C 
ATOM     34  C   UNL     1       7.396   5.014  14.041  0.00  0.00    +0.000 C 
BRANCH  32  35
ATOM     35  O   UNL     1       7.734   6.357  15.986  0.00  0.00    +0.000 OA
ATOM     36  H   UNL     1       8.522   6.374  15.406  0.00  0.00    +0.000 HD
ENDBRANCH  32  35
ENDBRANCH  31  32
ENDBRANCH   9  31
TORSDOF 7
ENDMDL
MODEL 6
REMARK VINA RESULT:      -8.0      2.908      3.606
REMARK  Name = 
REMARK  11 active torsions:
REMARK  status: ('A' for Active; 'I' for Inactive)
REMARK    1  A    between atoms: C_1  and  C_2
REMARK    2  A    between atoms: C_2  and  C_3
REMARK    3  A    between atoms: C_2  and  C_4
REMARK    4  A    between atoms: N_9  and  C_10
REMARK    5  A    between atoms: C_10  and  C_11
REMARK    6  A    between atoms: C_14  and  C_15
REMARK    7  A    between atoms: N_25  and  C_26
REMARK    8  A    between atoms: C_26  and  C_27
REMARK    9  A    between atoms: C_27  and  C_28
REMARK   10  A    between atoms: C_27  and  C_29
REMARK   11  A    between atoms: C_27  and  O_30
REMARK                            x       y       z     vdW  Elec       q    Type
REMARK                         _______ _______ _______ _____ _____    ______ ____
ROOT
ATOM      1  C   UNL     1       2.252   3.396  19.566  0.00  0.00    +0.000 A 
ATOM      2  N   UNL     1       1.287   3.604  20.474  0.00  0.00    +0.000 NA
ATOM      3  N   UNL     1       1.210   4.938  20.540  0.00  0.00    +0.000 N 
ATOM      4  C   UNL     1       2.099   5.605  19.751  0.00  0.00    +0.000 A 
ATOM      5  C   UNL     1       2.406   6.940  19.535  0.00  0.00    +0.000 A 
ATOM      6  N   UNL     1       1.735   8.015  20.081  0.00  0.00    +0.000 N 
ATOM      7  N   UNL     1       3.463   7.179  18.714  0.00  0.00    +0.000 NA
ATOM      8  C   UNL     1       4.072   6.155  18.077  0.00  0.00    +0.000 A 
ATOM      9  N   UNL     1       5.164   6.351  17.263  0.00  0.00    +0.000 N 
ATOM     10  N   UNL     1       3.730   4.869  18.169  0.00  0.00    +0.000 NA
ATOM     11  C   UNL     1       2.774   4.615  19.075  0.00  0.00    +0.000 A 
ATOM     12  H   UNL     1       0.534   5.320  21.187  0.00  0.00    +0.000 HD
ATOM     13  H   UNL     1       2.200   8.908  19.973  0.00  0.00    +0.000 HD
ATOM     14  H   UNL     1       5.016   5.856  16.393  0.00  0.00    +0.000 HD
ENDROOT
BRANCH   1  16
ATOM     15  C   UNL     1       2.515   1.765  17.695  0.00  0.00    +0.000 C 
ATOM     16  C   UNL     1       2.661   2.007  19.199  0.00  0.00    +0.000 C 
ATOM     17  C   UNL     1       4.089   1.729  19.667  0.00  0.00    +0.000 C 
ENDBRANCH   1  16
BRANCH   6  18
ATOM     18  C   UNL     1       0.728   7.852  21.099  0.00  0.00    +0.000 C 
BRANCH  18  19
ATOM     19  C   UNL     1       0.150   9.154  21.561  0.00  0.00    +0.000 A 
ATOM     20  C   UNL     1      -0.066  10.200  20.661  0.00  0.00    +0.000 A 
ATOM     21  C   UNL     1      -0.648  11.391  21.100  0.00  0.00    +0.000 A 
ATOM     22  C   UNL     1      -1.024  11.571  22.442  0.00  0.00    +0.000 A 
ATOM     23  C   UNL     1      -0.800  10.505  23.332  0.00  0.00    +0.000 A 
ATOM     24  C   UNL     1      -0.220   9.314  22.899  0.00  0.00    +0.000 A 
BRANCH  22  25
ATOM     25  C   UNL     1      -1.600  12.850  22.897  0.00  0.00    +0.000 A 
ATOM     26  C   UNL     1      -2.974  13.107  22.897  0.00  0.00    +0.000 A 
ATOM     27  C   UNL     1      -3.436  14.327  23.387  0.00  0.00    +0.000 A 
ATOM     28  C   UNL     1      -2.527  15.264  23.854  0.00  0.00    +0.000 A 
ATOM     29  C   UNL     1      -1.178  14.943  23.809  0.00  0.00    +0.000 A 
ATOM     30  N   UNL     1      -0.706  13.770  23.337  0.00  0.00    +0.000 NA
ENDBRANCH  22  25
ENDBRANCH  18  19
ENDBRANCH   6  18
BRANCH   9  31
ATOM     31  C   UNL     1       5.876   7.613  17.232  0.00  0.00    +0.000 C 
BRANCH  31  32
ATOM     32  C   UNL     1       7.393   7.323  17.445  0.00  0.00    +0.000 C 
ATOM     33  C   UNL     1       8.199   8.598  17.708  0.00  0.00    +0.000 C 
ATOM     34  C   UNL     1       7.599   6.327  18.584  0.00  0.00    +0.000 C 
BRANCH  32  35
ATOM     35  O   UNL     1       7.932   6.724  16.253  0.00  0.00    +0.000 OA
ATOM     36  H   UNL     1       7.193   6.711  15.612  0.00  0.00    +0.000 HD
ENDBRANCH  32  35
ENDBRANCH  31  32
ENDBRANCH   9  31
TORSDOF 7
ENDMDL
MODEL 7
REMARK VINA RESULT:      -7.9      4.248     10.578
REMARK  Name = 
REMARK  11 active torsions:
REMARK  status: ('A' for Active; 'I' for Inactive)
REMARK    1  A    between atoms: C_1  and  C_2
REMARK    2  A    between atoms: C_2  and  C_3
REMARK    3  A    between atoms: C_2  and  C_4
REMARK    4  A    between atoms: N_9  and  C_10
REMARK    5  A    between atoms: C_10  and  C_11
REMARK    6  A    between atoms: C_14  and  C_15
REMARK    7  A    between atoms: N_25  and  C_26
REMARK    8  A    between atoms: C_26  and  C_27
REMARK    9  A    between atoms: C_27  and  C_28
REMARK   10  A    between atoms: C_27  and  C_29
REMARK   11  A    between atoms: C_27  and  O_30
REMARK                            x       y       z     vdW  Elec       q    Type
REMARK                         _______ _______ _______ _____ _____    ______ ____
ROOT
ATOM      1  C   UNL     1      -4.260  11.501  17.902  0.00  0.00    +0.000 A 
ATOM      2  N   UNL     1      -3.361  10.988  17.049  0.00  0.00    +0.000 NA
ATOM      3  N   UNL     1      -2.202  11.129  17.703  0.00  0.00    +0.000 N 
ATOM      4  C   UNL     1      -2.299  11.739  18.919  0.00  0.00    +0.000 A 
ATOM      5  C   UNL     1      -1.393  12.127  19.895  0.00  0.00    +0.000 A 
ATOM      6  N   UNL     1      -0.038  11.868  19.876  0.00  0.00    +0.000 N 
ATOM      7  N   UNL     1      -1.912  12.818  20.943  0.00  0.00    +0.000 NA
ATOM      8  C   UNL     1      -3.247  12.992  21.046  0.00  0.00    +0.000 A 
ATOM      9  N   UNL     1      -3.810  13.713  22.075  0.00  0.00    +0.000 N 
ATOM     10  N   UNL     1      -4.160  12.533  20.188  0.00  0.00    +0.000 NA
ATOM     11  C   UNL     1      -3.646  11.964  19.088  0.00  0.00    +0.000 A 
ATOM     12  H   UNL     1      -1.372  10.808  17.226  0.00  0.00    +0.000 HD
ATOM     13  H   UNL     1       0.504  12.379  20.564  0.00  0.00    +0.000 HD
ATOM     14  H   UNL     1      -4.576  13.179  22.467  0.00  0.00    +0.000 HD
ENDROOT
BRANCH   1  16
ATOM     15  C   UNL     1      -6.550  10.730  18.529  0.00  0.00    +0.000 C 
ATOM     16  C   UNL     1      -5.709  11.542  17.541  0.00  0.00    +0.000 C 
ATOM     17  C   UNL     1      -6.198  12.987  17.456  0.00  0.00    +0.000 C 
ENDBRANCH   1  16
BRANCH   6  18
ATOM     18  C   UNL     1       0.620  11.308  18.724  0.00  0.00    +0.000 C 
BRANCH  18  19
ATOM     19  C   UNL     1       1.169   9.937  18.974  0.00  0.00    +0.000 A 
ATOM     20  C   UNL     1       1.008   9.318  20.216  0.00  0.00    +0.000 A 
ATOM     21  C   UNL     1       1.485   8.022  20.419  0.00  0.00    +0.000 A 
ATOM     22  C   UNL     1       2.136   7.313  19.395  0.00  0.00    +0.000 A 
ATOM     23  C   UNL     1       2.286   7.953  18.151  0.00  0.00    +0.000 A 
ATOM     24  C   UNL     1       1.811   9.246  17.943  0.00  0.00    +0.000 A 
BRANCH  22  25
ATOM     25  C   UNL     1       2.670   5.960  19.638  0.00  0.00    +0.000 A 
ATOM     26  C   UNL     1       2.037   5.032  20.468  0.00  0.00    +0.000 A 
ATOM     27  C   UNL     1       2.587   3.759  20.607  0.00  0.00    +0.000 A 
ATOM     28  C   UNL     1       3.754   3.442  19.928  0.00  0.00    +0.000 A 
ATOM     29  C   UNL     1       4.332   4.419  19.133  0.00  0.00    +0.000 A 
ATOM     30  N   UNL     1       3.820   5.660  18.985  0.00  0.00    +0.000 NA
ENDBRANCH  22  25
ENDBRANCH  18  19
ENDBRANCH   6  18
BRANCH   9  31
ATOM     31  C   UNL     1      -3.007  14.530  22.963  0.00  0.00    +0.000 C 
BRANCH  31  32
ATOM     32  C   UNL     1      -3.802  14.736  24.288  0.00  0.00    +0.000 C 
ATOM     33  C   UNL     1      -2.900  15.170  25.447  0.00  0.00    +0.000 C 
ATOM     34  C   UNL     1      -4.929  15.749  24.092  0.00  0.00    +0.000 C 
BRANCH  32  35
ATOM     35  O   UNL     1      -4.411  13.492  24.673  0.00  0.00    +0.000 OA
ATOM     36  H   UNL     1      -5.204  13.405  24.107  0.00  0.00    +0.000 HD
ENDBRANCH  32  35
ENDBRANCH  31  32
ENDBRANCH   9  31
TORSDOF 7
ENDMDL
MODEL 8
REMARK VINA RESULT:      -7.8      2.723      3.294
REMARK  Name = 
REMARK  11 active torsions:
REMARK  status: ('A' for Active; 'I' for Inactive)
REMARK    1  A    between atoms: C_1  and  C_2
REMARK    2  A    between atoms: C_2  and  C_3
REMARK    3  A    between atoms: C_2  and  C_4
REMARK    4  A    between atoms: N_9  and  C_10
REMARK    5  A    between atoms: C_10  and  C_11
REMARK    6  A    between atoms: C_14  and  C_15
REMARK    7  A    between atoms: N_25  and  C_26
REMARK    8  A    between atoms: C_26  and  C_27
REMARK    9  A    between atoms: C_27  and  C_28
REMARK   10  A    between atoms: C_27  and  C_29
REMARK   11  A    between atoms: C_27  and  O_30
REMARK                            x       y       z     vdW  Elec       q    Type
REMARK                         _______ _______ _______ _____ _____    ______ ____
ROOT
ATOM      1  C   UNL     1       2.526   3.323  19.986  0.00  0.00    +0.000 A 
ATOM      2  N   UNL     1       1.604   3.564  20.930  0.00  0.00    +0.000 NA
ATOM      3  N   UNL     1       1.469   4.895  20.895  0.00  0.00    +0.000 N 
ATOM      4  C   UNL     1       2.281   5.531  20.003  0.00  0.00    +0.000 A 
ATOM      5  C   UNL     1       2.514   6.856  19.664  0.00  0.00    +0.000 A 
ATOM      6  N   UNL     1       1.825   7.943  20.161  0.00  0.00    +0.000 N 
ATOM      7  N   UNL     1       3.511   7.070  18.766  0.00  0.00    +0.000 NA
ATOM      8  C   UNL     1       4.130   6.023  18.177  0.00  0.00    +0.000 A 
ATOM      9  N   UNL     1       5.165   6.197  17.286  0.00  0.00    +0.000 N 
ATOM     10  N   UNL     1       3.853   4.736  18.391  0.00  0.00    +0.000 NA
ATOM     11  C   UNL     1       2.962   4.518  19.369  0.00  0.00    +0.000 A 
ATOM     12  H   UNL     1       0.813   5.300  21.548  0.00  0.00    +0.000 HD
ATOM     13  H   UNL     1       2.242   8.843  19.955  0.00  0.00    +0.000 HD
ATOM     14  H   UNL     1       4.991   5.626  16.468  0.00  0.00    +0.000 HD
ENDROOT
BRANCH   1  16
ATOM     15  C   UNL     1       2.838   1.585  18.221  0.00  0.00    +0.000 C 
ATOM     16  C   UNL     1       2.977   1.927  19.707  0.00  0.00    +0.000 C 
ATOM     17  C   UNL     1       4.413   1.723  20.189  0.00  0.00    +0.000 C 
ENDBRANCH   1  16
BRANCH   6  18
ATOM     18  C   UNL     1       0.886   7.823  21.247  0.00  0.00    +0.000 C 
BRANCH  18  19
ATOM     19  C   UNL     1       0.149   9.097  21.525  0.00  0.00    +0.000 A 
ATOM     20  C   UNL     1      -0.310   9.390  22.812  0.00  0.00    +0.000 A 
ATOM     21  C   UNL     1      -0.955  10.602  23.065  0.00  0.00    +0.000 A 
ATOM     22  C   UNL     1      -1.162  11.548  22.045  0.00  0.00    +0.000 A 
ATOM     23  C   UNL     1      -0.689  11.234  20.758  0.00  0.00    +0.000 A 
ATOM     24  C   UNL     1      -0.045  10.026  20.500  0.00  0.00    +0.000 A 
BRANCH  22  25
ATOM     25  C   UNL     1      -1.880  12.807  22.320  0.00  0.00    +0.000 A 
ATOM     26  C   UNL     1      -2.738  12.968  23.411  0.00  0.00    +0.000 A 
ATOM     27  C   UNL     1      -3.341  14.206  23.621  0.00  0.00    +0.000 A 
ATOM     28  C   UNL     1      -3.088  15.248  22.742  0.00  0.00    +0.000 A 
ATOM     29  C   UNL     1      -2.237  15.008  21.674  0.00  0.00    +0.000 A 
ATOM     30  N   UNL     1      -1.642  13.817  21.447  0.00  0.00    +0.000 NA
ENDBRANCH  22  25
ENDBRANCH  18  19
ENDBRANCH   6  18
BRANCH   9  31
ATOM     31  C   UNL     1       5.815   7.480  17.112  0.00  0.00    +0.000 C 
BRANCH  31  32
ATOM     32  C   UNL     1       7.333   7.304  17.416  0.00  0.00    +0.000 C 
ATOM     33  C   UNL     1       8.031   8.637  17.697  0.00  0.00    +0.000 C 
ATOM     34  C   UNL     1       7.544   6.344  18.585  0.00  0.00    +0.000 C 
BRANCH  32  35
ATOM     35  O   UNL     1       7.981   6.725  16.269  0.00  0.00    +0.000 OA
ATOM     36  H   UNL     1       7.499   5.892  16.092  0.00  0.00    +0.000 HD
ENDBRANCH  32  35
ENDBRANCH  31  32
ENDBRANCH   9  31
TORSDOF 7
ENDMDL
MODEL 9
REMARK VINA RESULT:      -7.8      4.289     10.484
REMARK  Name = 
REMARK  11 active torsions:
REMARK  status: ('A' for Active; 'I' for Inactive)
REMARK    1  A    between atoms: C_1  and  C_2
REMARK    2  A    between atoms: C_2  and  C_3
REMARK    3  A    between atoms: C_2  and  C_4
REMARK    4  A    between atoms: N_9  and  C_10
REMARK    5  A    between atoms: C_10  and  C_11
REMARK    6  A    between atoms: C_14  and  C_15
REMARK    7  A    between atoms: N_25  and  C_26
REMARK    8  A    between atoms: C_26  and  C_27
REMARK    9  A    between atoms: C_27  and  C_28
REMARK   10  A    between atoms: C_27  and  C_29
REMARK   11  A    between atoms: C_27  and  O_30
REMARK                            x       y       z     vdW  Elec       q    Type
REMARK                         _______ _______ _______ _____ _____    ______ ____
ROOT
ATOM      1  C   UNL     1      -1.644  13.810  22.915  0.00  0.00    +0.000 A 
ATOM      2  N   UNL     1      -0.406  13.355  23.160  0.00  0.00    +0.000 NA
ATOM      3  N   UNL     1      -0.136  12.605  22.086  0.00  0.00    +0.000 N 
ATOM      4  C   UNL     1      -1.148  12.521  21.175  0.00  0.00    +0.000 A 
ATOM      5  C   UNL     1      -1.333  11.845  19.977  0.00  0.00    +0.000 A 
ATOM      6  N   UNL     1      -0.379  11.086  19.331  0.00  0.00    +0.000 N 
ATOM      7  N   UNL     1      -2.566  11.958  19.419  0.00  0.00    +0.000 NA
ATOM      8  C   UNL     1      -3.486  12.781  19.968  0.00  0.00    +0.000 A 
ATOM      9  N   UNL     1      -4.757  12.899  19.452  0.00  0.00    +0.000 N 
ATOM     10  N   UNL     1      -3.306  13.536  21.053  0.00  0.00    +0.000 NA
ATOM     11  C   UNL     1      -2.139  13.331  21.680  0.00  0.00    +0.000 A 
ATOM     12  H   UNL     1       0.765  12.149  22.068  0.00  0.00    +0.000 HD
ATOM     13  H   UNL     1      -0.731  10.514  18.572  0.00  0.00    +0.000 HD
ATOM     14  H   UNL     1      -4.985  13.882  19.366  0.00  0.00    +0.000 HD
ENDROOT
BRANCH   1  16
ATOM     15  C   UNL     1      -3.479  13.966  24.601  0.00  0.00    +0.000 C 
ATOM     16  C   UNL     1      -2.333  14.699  23.897  0.00  0.00    +0.000 C 
ATOM     17  C   UNL     1      -1.331  15.256  24.908  0.00  0.00    +0.000 C 
ENDBRANCH   1  16
BRANCH   6  18
ATOM     18  C   UNL     1       0.886  10.765  19.940  0.00  0.00    +0.000 C 
BRANCH  18  19
ATOM     19  C   UNL     1       1.408   9.422  19.529  0.00  0.00    +0.000 A 
ATOM     20  C   UNL     1       1.540   8.391  20.462  0.00  0.00    +0.000 A 
ATOM     21  C   UNL     1       1.985   7.132  20.054  0.00  0.00    +0.000 A 
ATOM     22  C   UNL     1       2.311   6.870  18.712  0.00  0.00    +0.000 A 
ATOM     23  C   UNL     1       2.168   7.921  17.788  0.00  0.00    +0.000 A 
ATOM     24  C   UNL     1       1.725   9.180  18.190  0.00  0.00    +0.000 A 
BRANCH  22  25
ATOM     25  C   UNL     1       2.817   5.546  18.305  0.00  0.00    +0.000 A 
ATOM     26  C   UNL     1       2.006   4.569  17.723  0.00  0.00    +0.000 A 
ATOM     27  C   UNL     1       2.576   3.361  17.328  0.00  0.00    +0.000 A 
ATOM     28  C   UNL     1       3.932   3.148  17.527  0.00  0.00    +0.000 A 
ATOM     29  C   UNL     1       4.670   4.158  18.123  0.00  0.00    +0.000 A 
ATOM     30  N   UNL     1       4.140   5.336  18.518  0.00  0.00    +0.000 NA
ENDBRANCH  22  25
ENDBRANCH  18  19
ENDBRANCH   6  18
BRANCH   9  31
ATOM     31  C   UNL     1      -5.264  11.980  18.453  0.00  0.00    +0.000 C 
BRANCH  31  32
ATOM     32  C   UNL     1      -6.797  11.810  18.679  0.00  0.00    +0.000 C 
ATOM     33  C   UNL     1      -7.170  11.797  20.164  0.00  0.00    +0.000 C 
ATOM     34  C   UNL     1      -7.576  12.903  17.951  0.00  0.00    +0.000 C 
BRANCH  32  35
ATOM     35  O   UNL     1      -7.219  10.549  18.130  0.00  0.00    +0.000 OA
ATOM     36  H   UNL     1      -7.224   9.926  18.885  0.00  0.00    +0.000 HD
ENDBRANCH  32  35
ENDBRANCH  31  32
ENDBRANCH   9  31
TORSDOF 7
ENDMDL
