MODEL 1
REMARK VINA RESULT:      -7.7      0.000      0.000
REMARK  Name = 
REMARK  7 active torsions:
REMARK  status: ('A' for Active; 'I' for Inactive)
REMARK    1  A    between atoms: C_1  and  N_2
REMARK    2  A    between atoms: N_2  and  C_3
REMARK    3  A    between atoms: N_2  and  C_4
REMARK    4  A    between atoms: C_4  and  C_5
REMARK    5  A    between atoms: C_10  and  N_11
REMARK    6  A    between atoms: N_14  and  C_15
REMARK    7  A    between atoms: C_22  and  C_23
REMARK                            x       y       z     vdW  Elec       q    Type
REMARK                         _______ _______ _______ _____ _____    ______ ____
ROOT
ATOM      1  N   UNL     1       2.497  15.338  19.428  0.00  0.00    +0.000 N 
ATOM      2  C   UNL     1       2.572  16.744  19.232  0.00  0.00    +0.000 A 
ATOM      3  O   UNL     1       3.552  17.433  19.018  0.00  0.00    +0.000 OA
ATOM      4  N   UNL     1       1.276  17.245  19.333  0.00  0.00    +0.000 N 
ATOM      5  C   UNL     1       0.914  18.630  19.231  0.00  0.00    +0.000 C 
ATOM      6  C   UNL     1       0.403  16.193  19.572  0.00  0.00    +0.000 A 
ATOM      7  C   UNL     1      -0.951  16.230  19.739  0.00  0.00    +0.000 A 
ATOM      8  N   UNL     1      -1.639  15.104  19.961  0.00  0.00    +0.000 NA
ATOM      9  C   UNL     1      -0.956  13.942  20.003  0.00  0.00    +0.000 A 
ATOM     10  C   UNL     1      -1.726  12.826  20.226  0.00  0.00    +0.000 A 
ATOM     11  C   UNL     1      -1.157  11.565  20.267  0.00  0.00    +0.000 A 
ATOM     12  C   UNL     1       0.212  11.432  20.069  0.00  0.00    +0.000 A 
ATOM     13  N   UNL     1       1.016  12.520  19.882  0.00  0.00    +0.000 NA
ATOM     14  C   UNL     1       0.448  13.770  19.839  0.00  0.00    +0.000 A 
ATOM     15  C   UNL     1       1.117  14.988  19.627  0.00  0.00    +0.000 A 
ENDROOT
BRANCH  12  16
ATOM     16  C   UNL     1       0.832  10.096  20.045  0.00  0.00    +0.000 A 
ATOM     17  C   UNL     1       0.715   9.200  21.100  0.00  0.00    +0.000 A 
ATOM     18  N   UNL     1       1.213   7.933  21.107  0.00  0.00    +0.000 NA
ATOM     19  C   UNL     1       1.877   7.503  20.018  0.00  0.00    +0.000 A 
ATOM     20  C   UNL     1       2.389   6.211  19.979  0.00  0.00    +0.000 A 
ATOM     21  C   UNL     1       3.084   5.725  18.863  0.00  0.00    +0.000 A 
ATOM     22  C   UNL     1       3.272   6.539  17.757  0.00  0.00    +0.000 A 
ATOM     23  C   UNL     1       2.773   7.839  17.768  0.00  0.00    +0.000 A 
ATOM     24  C   UNL     1       2.075   8.323  18.892  0.00  0.00    +0.000 A 
ATOM     25  C   UNL     1       1.547   9.623  18.930  0.00  0.00    +0.000 A 
ENDBRANCH  12  16
BRANCH   1  31
ATOM     26  C   UNL     1       7.600  16.234  19.457  0.00  0.00    +0.000 C 
ATOM     27  O   UNL     1       8.174  16.482  20.524  0.00  0.00    +0.000 OA
ATOM     28  N   UNL     1       6.326  15.655  19.415  0.00  0.00    +0.000 N 
ATOM     29  C   UNL     1       5.561  15.668  20.659  0.00  0.00    +0.000 C 
ATOM     30  C   UNL     1       4.513  14.563  20.725  0.00  0.00    +0.000 C 
ATOM     31  C   UNL     1       3.638  14.420  19.470  0.00  0.00    +0.000 C 
ATOM     32  C   UNL     1       4.513  14.447  18.210  0.00  0.00    +0.000 C 
ATOM     33  C   UNL     1       5.555  15.558  18.176  0.00  0.00    +0.000 C 
BRANCH  26  34
ATOM     34  C   UNL     1       8.326  16.526  18.131  0.00  0.00    +0.000 C 
BRANCH  34  36
ATOM     35  C   UNL     1       9.645  14.486  17.980  0.00  0.00    +0.000 C 
ATOM     36  N   UNL     1       9.688  15.945  18.092  0.00  0.00    +0.000 NA
ATOM     37  C   UNL     1      10.455  16.521  16.991  0.00  0.00    +0.000 C 
ENDBRANCH  34  36
ENDBRANCH  26  34
ENDBRANCH   1  31
TORSDOF 4
ENDMDL
MODEL 2
REMARK VINA RESULT:      -7.5      1.221      1.622
REMARK  Name = 
REMARK  7 active torsions:
REMARK  status: ('A' for Active; 'I' for Inactive)
REMARK    1  A    between atoms: C_1  and  N_2
REMARK    2  A    between atoms: N_2  and  C_3
REMARK    3  A    between atoms: N_2  and  C_4
REMARK    4  A    between atoms: C_4  and  C_5
REMARK    5  A    between atoms: C_10  and  N_11
REMARK    6  A    between atoms: N_14  and  C_15
REMARK    7  A    between atoms: C_22  and  C_23
REMARK                            x       y       z     vdW  Elec       q    Type
REMARK                         _______ _______ _______ _____ _____    ______ ____
ROOT
ATOM      1  N   UNL     1       1.614  15.395  18.823  0.00  0.00    +0.000 N 
ATOM      2  C   UNL     1       1.405  16.801  18.837  0.00  0.00    +0.000 A 
ATOM      3  O   UNL     1       2.140  17.686  18.441  0.00  0.00    +0.000 OA
ATOM      4  N   UNL     1       0.157  17.027  19.413  0.00  0.00    +0.000 N 
ATOM      5  C   UNL     1      -0.425  18.317  19.648  0.00  0.00    +0.000 C 
ATOM      6  C   UNL     1      -0.416  15.806  19.742  0.00  0.00    +0.000 A 
ATOM      7  C   UNL     1      -1.625  15.561  20.325  0.00  0.00    +0.000 A 
ATOM      8  N   UNL     1      -2.020  14.306  20.570  0.00  0.00    +0.000 NA
ATOM      9  C   UNL     1      -1.193  13.301  20.215  0.00  0.00    +0.000 A 
ATOM     10  C   UNL     1      -1.666  12.040  20.486  0.00  0.00    +0.000 A 
ATOM     11  C   UNL     1      -0.930  10.917  20.150  0.00  0.00    +0.000 A 
ATOM     12  C   UNL     1       0.297  11.074  19.518  0.00  0.00    +0.000 A 
ATOM     13  N   UNL     1       0.817  12.311  19.264  0.00  0.00    +0.000 NA
ATOM     14  C   UNL     1       0.084  13.424  19.598  0.00  0.00    +0.000 A 
ATOM     15  C   UNL     1       0.450  14.764  19.383  0.00  0.00    +0.000 A 
ENDROOT
BRANCH  12  16
ATOM     16  C   UNL     1       1.070   9.894  19.093  0.00  0.00    +0.000 A 
ATOM     17  C   UNL     1       1.757   9.846  17.887  0.00  0.00    +0.000 A 
ATOM     18  N   UNL     1       2.535   8.810  17.473  0.00  0.00    +0.000 NA
ATOM     19  C   UNL     1       2.654   7.739  18.279  0.00  0.00    +0.000 A 
ATOM     20  C   UNL     1       3.451   6.665  17.899  0.00  0.00    +0.000 A 
ATOM     21  C   UNL     1       3.601   5.532  18.712  0.00  0.00    +0.000 A 
ATOM     22  C   UNL     1       2.948   5.466  19.933  0.00  0.00    +0.000 A 
ATOM     23  C   UNL     1       2.141   6.525  20.338  0.00  0.00    +0.000 A 
ATOM     24  C   UNL     1       1.993   7.661  19.518  0.00  0.00    +0.000 A 
ATOM     25  C   UNL     1       1.198   8.752  19.905  0.00  0.00    +0.000 A 
ENDBRANCH  12  16
BRANCH   1  31
ATOM     26  C   UNL     1       6.620  16.350  19.765  0.00  0.00    +0.000 C 
ATOM     27  O   UNL     1       7.147  15.904  20.790  0.00  0.00    +0.000 OA
ATOM     28  N   UNL     1       5.402  15.857  19.281  0.00  0.00    +0.000 N 
ATOM     29  C   UNL     1       4.612  15.045  20.204  0.00  0.00    +0.000 C 
ATOM     30  C   UNL     1       3.663  14.089  19.492  0.00  0.00    +0.000 C 
ATOM     31  C   UNL     1       2.830  14.718  18.363  0.00  0.00    +0.000 C 
ATOM     32  C   UNL     1       3.725  15.577  17.461  0.00  0.00    +0.000 C 
ATOM     33  C   UNL     1       4.668  16.518  18.201  0.00  0.00    +0.000 C 
BRANCH  26  34
ATOM     34  C   UNL     1       7.345  17.449  18.966  0.00  0.00    +0.000 C 
BRANCH  34  36
ATOM     35  C   UNL     1       8.820  15.949  17.740  0.00  0.00    +0.000 C 
ATOM     36  N   UNL     1       8.748  17.089  18.656  0.00  0.00    +0.000 NA
ATOM     37  C   UNL     1       9.457  18.238  18.100  0.00  0.00    +0.000 C 
ENDBRANCH  34  36
ENDBRANCH  26  34
ENDBRANCH   1  31
TORSDOF 4
ENDMDL
MODEL 3
REMARK VINA RESULT:      -7.4      2.242      3.563
REMARK  Name = 
REMARK  7 active torsions:
REMARK  status: ('A' for Active; 'I' for Inactive)
REMARK    1  A    between atoms: C_1  and  N_2
REMARK    2  A    between atoms: N_2  and  C_3
REMARK    3  A    between atoms: N_2  and  C_4
REMARK    4  A    between atoms: C_4  and  C_5
REMARK    5  A    between atoms: C_10  and  N_11
REMARK    6  A    between atoms: N_14  and  C_15
REMARK    7  A    between atoms: C_22  and  C_23
REMARK                            x       y       z     vdW  Elec       q    Type
REMARK                         _______ _______ _______ _____ _____    ______ ____
ROOT
ATOM      1  N   UNL     1      -0.033  13.940  20.237  0.00  0.00    +0.000 N 
ATOM      2  C   UNL     1      -0.645  15.181  20.562  0.00  0.00    +0.000 A 
ATOM      3  O   UNL     1      -0.574  16.244  19.974  0.00  0.00    +0.000 OA
ATOM      4  N   UNL     1      -1.378  14.987  21.730  0.00  0.00    +0.000 N 
ATOM      5  C   UNL     1      -2.122  16.002  22.419  0.00  0.00    +0.000 C 
ATOM      6  C   UNL     1      -1.249  13.663  22.129  0.00  0.00    +0.000 A 
ATOM      7  C   UNL     1      -1.796  13.042  23.214  0.00  0.00    +0.000 A 
ATOM      8  N   UNL     1      -1.563  11.745  23.444  0.00  0.00    +0.000 NA
ATOM      9  C   UNL     1      -0.786  11.076  22.568  0.00  0.00    +0.000 A 
ATOM     10  C   UNL     1      -0.597   9.747  22.860  0.00  0.00    +0.000 A 
ATOM     11  C   UNL     1       0.158   8.936  22.030  0.00  0.00    +0.000 A 
ATOM     12  C   UNL     1       0.720   9.478  20.881  0.00  0.00    +0.000 A 
ATOM     13  N   UNL     1       0.586  10.802  20.576  0.00  0.00    +0.000 NA
ATOM     14  C   UNL     1      -0.165  11.604  21.401  0.00  0.00    +0.000 A 
ATOM     15  C   UNL     1      -0.431  12.973  21.224  0.00  0.00    +0.000 A 
ENDROOT
BRANCH  12  16
ATOM     16  C   UNL     1       1.475   8.622  19.950  0.00  0.00    +0.000 A 
ATOM     17  C   UNL     1       1.841   9.044  18.678  0.00  0.00    +0.000 A 
ATOM     18  N   UNL     1       2.590   8.321  17.802  0.00  0.00    +0.000 NA
ATOM     19  C   UNL     1       3.011   7.100  18.178  0.00  0.00    +0.000 A 
ATOM     20  C   UNL     1       3.790   6.335  17.316  0.00  0.00    +0.000 A 
ATOM     21  C   UNL     1       4.249   5.059  17.673  0.00  0.00    +0.000 A 
ATOM     22  C   UNL     1       3.931   4.531  18.914  0.00  0.00    +0.000 A 
ATOM     23  C   UNL     1       3.150   5.272  19.796  0.00  0.00    +0.000 A 
ATOM     24  C   UNL     1       2.691   6.555  19.435  0.00  0.00    +0.000 A 
ATOM     25  C   UNL     1       1.914   7.334  20.306  0.00  0.00    +0.000 A 
ENDBRANCH  12  16
BRANCH   1  31
ATOM     26  C   UNL     1       4.803  15.595  19.385  0.00  0.00    +0.000 C 
ATOM     27  O   UNL     1       5.757  14.980  19.873  0.00  0.00    +0.000 OA
ATOM     28  N   UNL     1       3.527  15.028  19.283  0.00  0.00    +0.000 N 
ATOM     29  C   UNL     1       3.280  13.826  20.076  0.00  0.00    +0.000 C 
ATOM     30  C   UNL     1       2.168  12.954  19.505  0.00  0.00    +0.000 C 
ATOM     31  C   UNL     1       0.884  13.707  19.118  0.00  0.00    +0.000 C 
ATOM     32  C   UNL     1       1.232  14.968  18.318  0.00  0.00    +0.000 C 
ATOM     33  C   UNL     1       2.352  15.816  18.909  0.00  0.00    +0.000 C 
BRANCH  26  34
ATOM     34  C   UNL     1       5.031  17.012  18.827  0.00  0.00    +0.000 C 
BRANCH  34  36
ATOM     35  C   UNL     1       4.541  17.785  21.083  0.00  0.00    +0.000 C 
ATOM     36  N   UNL     1       5.363  17.991  19.888  0.00  0.00    +0.000 NA
ATOM     37  C   UNL     1       6.782  17.915  20.223  0.00  0.00    +0.000 C 
ENDBRANCH  34  36
ENDBRANCH  26  34
ENDBRANCH   1  31
TORSDOF 4
ENDMDL
MODEL 4
REMARK VINA RESULT:      -7.4      3.057      4.901
REMARK  Name = 
REMARK  7 active torsions:
REMARK  status: ('A' for Active; 'I' for Inactive)
REMARK    1  A    between atoms: C_1  and  N_2
REMARK    2  A    between atoms: N_2  and  C_3
REMARK    3  A    between atoms: N_2  and  C_4
REMARK    4  A    between atoms: C_4  and  C_5
REMARK    5  A    between atoms: C_10  and  N_11
REMARK    6  A    between atoms: N_14  and  C_15
REMARK    7  A    between atoms: C_22  and  C_23
REMARK                            x       y       z     vdW  Elec       q    Type
REMARK                         _______ _______ _______ _____ _____    ______ ____
ROOT
ATOM      1  N   UNL     1       0.213  12.973  20.501  0.00  0.00    +0.000 N 
ATOM      2  C   UNL     1      -0.470  14.136  20.950  0.00  0.00    +0.000 A 
ATOM      3  O   UNL     1      -0.416  15.270  20.510  0.00  0.00    +0.000 OA
ATOM      4  N   UNL     1      -1.253  13.761  22.038  0.00  0.00    +0.000 N 
ATOM      5  C   UNL     1      -2.077  14.646  22.810  0.00  0.00    +0.000 C 
ATOM      6  C   UNL     1      -1.086  12.402  22.268  0.00  0.00    +0.000 A 
ATOM      7  C   UNL     1      -1.659  11.622  23.230  0.00  0.00    +0.000 A 
ATOM      8  N   UNL     1      -1.381  10.316  23.302  0.00  0.00    +0.000 NA
ATOM      9  C   UNL     1      -0.530   9.799  22.392  0.00  0.00    +0.000 A 
ATOM     10  C   UNL     1      -0.297   8.451  22.518  0.00  0.00    +0.000 A 
ATOM     11  C   UNL     1       0.537   7.786  21.635  0.00  0.00    +0.000 A 
ATOM     12  C   UNL     1       1.133   8.497  20.600  0.00  0.00    +0.000 A 
ATOM     13  N   UNL     1       0.955   9.844  20.463  0.00  0.00    +0.000 NA
ATOM     14  C   UNL     1       0.127  10.500  21.341  0.00  0.00    +0.000 A 
ATOM     15  C   UNL     1      -0.192  11.870  21.329  0.00  0.00    +0.000 A 
ENDROOT
BRANCH  12  16
ATOM     16  C   UNL     1       1.973   7.801  19.610  0.00  0.00    +0.000 A 
ATOM     17  C   UNL     1       2.364   8.393  18.416  0.00  0.00    +0.000 A 
ATOM     18  N   UNL     1       3.188   7.823  17.496  0.00  0.00    +0.000 NA
ATOM     19  C   UNL     1       3.664   6.589  17.744  0.00  0.00    +0.000 A 
ATOM     20  C   UNL     1       4.520   5.976  16.835  0.00  0.00    +0.000 A 
ATOM     21  C   UNL     1       5.039   4.693  17.058  0.00  0.00    +0.000 A 
ATOM     22  C   UNL     1       4.703   4.003  18.212  0.00  0.00    +0.000 A 
ATOM     23  C   UNL     1       3.846   4.589  19.139  0.00  0.00    +0.000 A 
ATOM     24  C   UNL     1       3.327   5.879  18.911  0.00  0.00    +0.000 A 
ATOM     25  C   UNL     1       2.472   6.505  19.831  0.00  0.00    +0.000 A 
ENDBRANCH  12  16
BRANCH   1  31
ATOM     26  C   UNL     1       2.751  16.754  18.028  0.00  0.00    +0.000 C 
ATOM     27  O   UNL     1       3.789  17.216  18.513  0.00  0.00    +0.000 OA
ATOM     28  N   UNL     1       2.215  15.530  18.446  0.00  0.00    +0.000 N 
ATOM     29  C   UNL     1       2.727  14.987  19.702  0.00  0.00    +0.000 C 
ATOM     30  C   UNL     1       2.581  13.473  19.800  0.00  0.00    +0.000 C 
ATOM     31  C   UNL     1       1.197  12.926  19.416  0.00  0.00    +0.000 C 
ATOM     32  C   UNL     1       0.720  13.568  18.107  0.00  0.00    +0.000 C 
ATOM     33  C   UNL     1       0.884  15.081  18.036  0.00  0.00    +0.000 C 
BRANCH  26  34
ATOM     34  C   UNL     1       2.047  17.521  16.892  0.00  0.00    +0.000 C 
BRANCH  34  36
ATOM     35  C   UNL     1      -0.223  18.400  16.887  0.00  0.00    +0.000 C 
ATOM     36  N   UNL     1       1.137  18.573  17.401  0.00  0.00    +0.000 NA
ATOM     37  C   UNL     1       1.135  18.580  18.861  0.00  0.00    +0.000 C 
ENDBRANCH  34  36
ENDBRANCH  26  34
ENDBRANCH   1  31
TORSDOF 4
ENDMDL
MODEL 5
REMARK VINA RESULT:      -7.2      0.967      1.033
REMARK  Name = 
REMARK  7 active torsions:
REMARK  status: ('A' for Active; 'I' for Inactive)
REMARK    1  A    between atoms: C_1  and  N_2
REMARK    2  A    between atoms: N_2  and  C_3
REMARK    3  A    between atoms: N_2  and  C_4
REMARK    4  A    between atoms: C_4  and  C_5
REMARK    5  A    between atoms: C_10  and  N_11
REMARK    6  A    between atoms: N_14  and  C_15
REMARK    7  A    between atoms: C_22  and  C_23
REMARK                            x       y       z     vdW  Elec       q    Type
REMARK                         _______ _______ _______ _____ _____    ______ ____
ROOT
ATOM      1  N   UNL     1       1.506  15.499  18.999  0.00  0.00    +0.000 N 
ATOM      2  C   UNL     1       1.386  16.891  18.739  0.00  0.00    +0.000 A 
ATOM      3  O   UNL     1       2.191  17.644  18.224  0.00  0.00    +0.000 OA
ATOM      4  N   UNL     1       0.131  17.289  19.195  0.00  0.00    +0.000 N 
ATOM      5  C   UNL     1      -0.377  18.631  19.155  0.00  0.00    +0.000 C 
ATOM      6  C   UNL     1      -0.531  16.186  19.716  0.00  0.00    +0.000 A 
ATOM      7  C   UNL     1      -1.776  16.122  20.270  0.00  0.00    +0.000 A 
ATOM      8  N   UNL     1      -2.260  14.960  20.723  0.00  0.00    +0.000 NA
ATOM      9  C   UNL     1      -1.485  13.862  20.606  0.00  0.00    +0.000 A 
ATOM     10  C   UNL     1      -2.047  12.703  21.083  0.00  0.00    +0.000 A 
ATOM     11  C   UNL     1      -1.370  11.498  21.002  0.00  0.00    +0.000 A 
ATOM     12  C   UNL     1      -0.111  11.465  20.417  0.00  0.00    +0.000 A 
ATOM     13  N   UNL     1       0.497  12.601  19.965  0.00  0.00    +0.000 NA
ATOM     14  C   UNL     1      -0.177  13.796  20.046  0.00  0.00    +0.000 A 
ATOM     15  C   UNL     1       0.282  15.049  19.604  0.00  0.00    +0.000 A 
ENDROOT
BRANCH  12  16
ATOM     16  C   UNL     1       0.603  10.185  20.261  0.00  0.00    +0.000 A 
ATOM     17  C   UNL     1       0.599   9.204  21.244  0.00  0.00    +0.000 A 
ATOM     18  N   UNL     1       1.186   7.982  21.128  0.00  0.00    +0.000 NA
ATOM     19  C   UNL     1       1.829   7.689  19.983  0.00  0.00    +0.000 A 
ATOM     20  C   UNL     1       2.431   6.446  19.820  0.00  0.00    +0.000 A 
ATOM     21  C   UNL     1       3.108   6.102  18.641  0.00  0.00    +0.000 A 
ATOM     22  C   UNL     1       3.187   7.012  17.599  0.00  0.00    +0.000 A 
ATOM     23  C   UNL     1       2.597   8.265  17.735  0.00  0.00    +0.000 A 
ATOM     24  C   UNL     1       1.917   8.607  18.921  0.00  0.00    +0.000 A 
ATOM     25  C   UNL     1       1.298   9.857  19.084  0.00  0.00    +0.000 A 
ENDBRANCH  12  16
BRANCH   1  31
ATOM     26  C   UNL     1       6.543  16.465  19.737  0.00  0.00    +0.000 C 
ATOM     27  O   UNL     1       7.049  16.269  20.847  0.00  0.00    +0.000 OA
ATOM     28  N   UNL     1       5.307  15.914  19.375  0.00  0.00    +0.000 N 
ATOM     29  C   UNL     1       4.483  15.390  20.461  0.00  0.00    +0.000 C 
ATOM     30  C   UNL     1       3.497  14.323  19.999  0.00  0.00    +0.000 C 
ATOM     31  C   UNL     1       2.694  14.681  18.738  0.00  0.00    +0.000 C 
ATOM     32  C   UNL     1       3.626  15.252  17.662  0.00  0.00    +0.000 C 
ATOM     33  C   UNL     1       4.604  16.311  18.155  0.00  0.00    +0.000 C 
BRANCH  26  34
ATOM     34  C   UNL     1       7.314  17.299  18.697  0.00  0.00    +0.000 C 
BRANCH  34  36
ATOM     35  C   UNL     1       9.125  15.870  17.919  0.00  0.00    +0.000 C 
ATOM     36  N   UNL     1       8.771  17.036  18.731  0.00  0.00    +0.000 NA
ATOM     37  C   UNL     1       9.511  18.213  18.285  0.00  0.00    +0.000 C 
ENDBRANCH  34  36
ENDBRANCH  26  34
ENDBRANCH   1  31
TORSDOF 4
ENDMDL
MODEL 6
REMARK VINA RESULT:      -6.9      3.521      7.713
REMARK  Name = 
REMARK  7 active torsions:
REMARK  status: ('A' for Active; 'I' for Inactive)
REMARK    1  A    between atoms: C_1  and  N_2
REMARK    2  A    between atoms: N_2  and  C_3
REMARK    3  A    between atoms: N_2  and  C_4
REMARK    4  A    between atoms: C_4  and  C_5
REMARK    5  A    between atoms: C_10  and  N_11
REMARK    6  A    between atoms: N_14  and  C_15
REMARK    7  A    between atoms: C_22  and  C_23
REMARK                            x       y       z     vdW  Elec       q    Type
REMARK                         _______ _______ _______ _____ _____    ______ ____
ROOT
ATOM      1  N   UNL     1       1.030  12.717  19.256  0.00  0.00    +0.000 N 
ATOM      2  C   UNL     1       2.237  12.728  18.506  0.00  0.00    +0.000 A 
ATOM      3  O   UNL     1       2.703  11.855  17.797  0.00  0.00    +0.000 OA
ATOM      4  N   UNL     1       2.847  13.961  18.723  0.00  0.00    +0.000 N 
ATOM      5  C   UNL     1       4.109  14.368  18.175  0.00  0.00    +0.000 C 
ATOM      6  C   UNL     1       2.048  14.716  19.571  0.00  0.00    +0.000 A 
ATOM      7  C   UNL     1       2.263  15.978  20.045  0.00  0.00    +0.000 A 
ATOM      8  N   UNL     1       1.375  16.558  20.861  0.00  0.00    +0.000 NA
ATOM      9  C   UNL     1       0.267  15.862  21.187  0.00  0.00    +0.000 A 
ATOM     10  C   UNL     1      -0.605  16.521  22.020  0.00  0.00    +0.000 A 
ATOM     11  C   UNL     1      -1.795  15.932  22.414  0.00  0.00    +0.000 A 
ATOM     12  C   UNL     1      -2.111  14.663  21.947  0.00  0.00    +0.000 A 
ATOM     13  N   UNL     1      -1.254  13.962  21.148  0.00  0.00    +0.000 NA
ATOM     14  C   UNL     1      -0.075  14.548  20.757  0.00  0.00    +0.000 A 
ATOM     15  C   UNL     1       0.904  13.987  19.918  0.00  0.00    +0.000 A 
ENDROOT
BRANCH  12  16
ATOM     16  C   UNL     1      -3.400  14.041  22.300  0.00  0.00    +0.000 A 
ATOM     17  C   UNL     1      -3.986  14.197  23.549  0.00  0.00    +0.000 A 
ATOM     18  N   UNL     1      -5.200  13.699  23.908  0.00  0.00    +0.000 NA
ATOM     19  C   UNL     1      -5.896  12.995  22.997  0.00  0.00    +0.000 A 
ATOM     20  C   UNL     1      -7.147  12.481  23.320  0.00  0.00    +0.000 A 
ATOM     21  C   UNL     1      -7.903  11.744  22.398  0.00  0.00    +0.000 A 
ATOM     22  C   UNL     1      -7.408  11.515  21.124  0.00  0.00    +0.000 A 
ATOM     23  C   UNL     1      -6.158  12.014  20.773  0.00  0.00    +0.000 A 
ATOM     24  C   UNL     1      -5.401  12.755  21.703  0.00  0.00    +0.000 A 
ATOM     25  C   UNL     1      -4.142  13.285  21.376  0.00  0.00    +0.000 A 
ENDBRANCH  12  16
BRANCH   1  31
ATOM     26  C   UNL     1       1.902   7.627  19.682  0.00  0.00    +0.000 C 
ATOM     27  O   UNL     1       2.131   7.134  20.793  0.00  0.00    +0.000 OA
ATOM     28  N   UNL     1       1.329   8.896  19.536  0.00  0.00    +0.000 N 
ATOM     29  C   UNL     1       1.328   9.753  20.719  0.00  0.00    +0.000 C 
ATOM     30  C   UNL     1       0.227  10.807  20.690  0.00  0.00    +0.000 C 
ATOM     31  C   UNL     1       0.105  11.585  19.370  0.00  0.00    +0.000 C 
ATOM     32  C   UNL     1       0.147  10.618  18.180  0.00  0.00    +0.000 C 
ATOM     33  C   UNL     1       1.253   9.572  18.241  0.00  0.00    +0.000 C 
BRANCH  26  34
ATOM     34  C   UNL     1       2.209   6.802  18.418  0.00  0.00    +0.000 C 
BRANCH  34  36
ATOM     35  C   UNL     1       3.657   4.849  18.299  0.00  0.00    +0.000 C 
ATOM     36  N   UNL     1       3.606   6.309  18.392  0.00  0.00    +0.000 NA
ATOM     37  C   UNL     1       4.339   6.918  17.286  0.00  0.00    +0.000 C 
ENDBRANCH  34  36
ENDBRANCH  26  34
ENDBRANCH   1  31
TORSDOF 4
ENDMDL
MODEL 7
REMARK VINA RESULT:      -6.8      1.803      2.302
REMARK  Name = 
REMARK  7 active torsions:
REMARK  status: ('A' for Active; 'I' for Inactive)
REMARK    1  A    between atoms: C_1  and  N_2
REMARK    2  A    between atoms: N_2  and  C_3
REMARK    3  A    between atoms: N_2  and  C_4
REMARK    4  A    between atoms: C_4  and  C_5
REMARK    5  A    between atoms: C_10  and  N_11
REMARK    6  A    between atoms: N_14  and  C_15
REMARK    7  A    between atoms: C_22  and  C_23
REMARK                            x       y       z     vdW  Elec       q    Type
REMARK                         _______ _______ _______ _____ _____    ______ ____
ROOT
ATOM      1  N   UNL     1       1.174  15.407  18.912  0.00  0.00    +0.000 N 
ATOM      2  C   UNL     1       0.870  16.795  18.973  0.00  0.00    +0.000 A 
ATOM      3  O   UNL     1       1.496  17.734  18.519  0.00  0.00    +0.000 OA
ATOM      4  N   UNL     1      -0.323  16.925  19.681  0.00  0.00    +0.000 N 
ATOM      5  C   UNL     1      -0.965  18.168  19.999  0.00  0.00    +0.000 C 
ATOM      6  C   UNL     1      -0.771  15.663  20.046  0.00  0.00    +0.000 A 
ATOM      7  C   UNL     1      -1.891  15.326  20.748  0.00  0.00    +0.000 A 
ATOM      8  N   UNL     1      -2.170  14.044  21.011  0.00  0.00    +0.000 NA
ATOM      9  C   UNL     1      -1.317  13.104  20.553  0.00  0.00    +0.000 A 
ATOM     10  C   UNL     1      -1.669  11.810  20.849  0.00  0.00    +0.000 A 
ATOM     11  C   UNL     1      -0.896  10.745  20.418  0.00  0.00    +0.000 A 
ATOM     12  C   UNL     1       0.243  10.996  19.663  0.00  0.00    +0.000 A 
ATOM     13  N   UNL     1       0.646  12.269  19.379  0.00  0.00    +0.000 NA
ATOM     14  C   UNL     1      -0.124  13.324  19.807  0.00  0.00    +0.000 A 
ATOM     15  C   UNL     1       0.123  14.689  19.580  0.00  0.00    +0.000 A 
ENDROOT
BRANCH  12  16
ATOM     16  C   UNL     1       1.047   9.878  19.139  0.00  0.00    +0.000 A 
ATOM     17  C   UNL     1       1.681   9.930  17.904  0.00  0.00    +0.000 A 
ATOM     18  N   UNL     1       2.484   8.955  17.398  0.00  0.00    +0.000 NA
ATOM     19  C   UNL     1       2.686   7.848  18.136  0.00  0.00    +0.000 A 
ATOM     20  C   UNL     1       3.511   6.835  17.660  0.00  0.00    +0.000 A 
ATOM     21  C   UNL     1       3.748   5.667  18.400  0.00  0.00    +0.000 A 
ATOM     22  C   UNL     1       3.154   5.503  19.641  0.00  0.00    +0.000 A 
ATOM     23  C   UNL     1       2.320   6.499  20.141  0.00  0.00    +0.000 A 
ATOM     24  C   UNL     1       2.085   7.671  19.395  0.00  0.00    +0.000 A 
ATOM     25  C   UNL     1       1.262   8.701  19.877  0.00  0.00    +0.000 A 
ENDBRANCH  12  16
BRANCH   1  31
ATOM     26  C   UNL     1       6.201  16.261  19.837  0.00  0.00    +0.000 C 
ATOM     27  O   UNL     1       6.764  15.668  20.764  0.00  0.00    +0.000 OA
ATOM     28  N   UNL     1       4.972  15.836  19.320  0.00  0.00    +0.000 N 
ATOM     29  C   UNL     1       4.217  14.882  20.129  0.00  0.00    +0.000 C 
ATOM     30  C   UNL     1       3.252  14.036  19.307  0.00  0.00    +0.000 C 
ATOM     31  C   UNL     1       2.379  14.823  18.316  0.00  0.00    +0.000 C 
ATOM     32  C   UNL     1       3.240  15.821  17.531  0.00  0.00    +0.000 C 
ATOM     33  C   UNL     1       4.199  16.647  18.379  0.00  0.00    +0.000 C 
BRANCH  26  34
ATOM     34  C   UNL     1       6.893  17.478  19.196  0.00  0.00    +0.000 C 
BRANCH  34  36
ATOM     35  C   UNL     1       5.897  18.629  21.096  0.00  0.00    +0.000 C 
ATOM     36  N   UNL     1       6.996  18.625  20.128  0.00  0.00    +0.000 NA
ATOM     37  C   UNL     1       8.283  18.608  20.816  0.00  0.00    +0.000 C 
ENDBRANCH  34  36
ENDBRANCH  26  34
ENDBRANCH   1  31
TORSDOF 4
ENDMDL
MODEL 8
REMARK VINA RESULT:      -6.8      3.737      8.238
REMARK  Name = 
REMARK  7 active torsions:
REMARK  status: ('A' for Active; 'I' for Inactive)
REMARK    1  A    between atoms: C_1  and  N_2
REMARK    2  A    between atoms: N_2  and  C_3
REMARK    3  A    between atoms: N_2  and  C_4
REMARK    4  A    between atoms: C_4  and  C_5
REMARK    5  A    between atoms: C_10  and  N_11
REMARK    6  A    between atoms: N_14  and  C_15
REMARK    7  A    between atoms: C_22  and  C_23
REMARK                            x       y       z     vdW  Elec       q    Type
REMARK                         _______ _______ _______ _____ _____    ______ ____
ROOT
ATOM      1  N   UNL     1       1.100  12.962  19.372  0.00  0.00    +0.000 N 
ATOM      2  C   UNL     1       2.284  12.957  18.585  0.00  0.00    +0.000 A 
ATOM      3  O   UNL     1       2.675  12.113  17.801  0.00  0.00    +0.000 OA
ATOM      4  N   UNL     1       2.973  14.133  18.870  0.00  0.00    +0.000 N 
ATOM      5  C   UNL     1       4.242  14.505  18.312  0.00  0.00    +0.000 C 
ATOM      6  C   UNL     1       2.247  14.869  19.796  0.00  0.00    +0.000 A 
ATOM      7  C   UNL     1       2.551  16.077  20.352  0.00  0.00    +0.000 A 
ATOM      8  N   UNL     1       1.723  16.647  21.237  0.00  0.00    +0.000 NA
ATOM      9  C   UNL     1       0.584  15.995  21.548  0.00  0.00    +0.000 A 
ATOM     10  C   UNL     1      -0.222  16.640  22.454  0.00  0.00    +0.000 A 
ATOM     11  C   UNL     1      -1.434  16.095  22.843  0.00  0.00    +0.000 A 
ATOM     12  C   UNL     1      -1.840  14.884  22.296  0.00  0.00    +0.000 A 
ATOM     13  N   UNL     1      -1.050  14.195  21.421  0.00  0.00    +0.000 NA
ATOM     14  C   UNL     1       0.151  14.739  21.036  0.00  0.00    +0.000 A 
ATOM     15  C   UNL     1       1.070  14.184  20.127  0.00  0.00    +0.000 A 
ENDROOT
BRANCH  12  16
ATOM     16  C   UNL     1      -3.153  14.315  22.646  0.00  0.00    +0.000 A 
ATOM     17  C   UNL     1      -3.362  12.949  22.782  0.00  0.00    +0.000 A 
ATOM     18  N   UNL     1      -4.535  12.373  23.163  0.00  0.00    +0.000 NA
ATOM     19  C   UNL     1      -5.583  13.175  23.425  0.00  0.00    +0.000 A 
ATOM     20  C   UNL     1      -6.795  12.627  23.830  0.00  0.00    +0.000 A 
ATOM     21  C   UNL     1      -7.910  13.428  24.115  0.00  0.00    +0.000 A 
ATOM     22  C   UNL     1      -7.819  14.806  23.998  0.00  0.00    +0.000 A 
ATOM     23  C   UNL     1      -6.619  15.383  23.591  0.00  0.00    +0.000 A 
ATOM     24  C   UNL     1      -5.501  14.574  23.306  0.00  0.00    +0.000 A 
ATOM     25  C   UNL     1      -4.273  15.125  22.908  0.00  0.00    +0.000 A 
ENDBRANCH  12  16
BRANCH   1  31
ATOM     26  C   UNL     1       1.614   7.926  20.479  0.00  0.00    +0.000 C 
ATOM     27  O   UNL     1       1.618   7.554  21.658  0.00  0.00    +0.000 OA
ATOM     28  N   UNL     1       1.144   9.189  20.099  0.00  0.00    +0.000 N 
ATOM     29  C   UNL     1       0.979  10.173  21.166  0.00  0.00    +0.000 C 
ATOM     30  C   UNL     1      -0.043  11.252  20.828  0.00  0.00    +0.000 C 
ATOM     31  C   UNL     1       0.112  11.881  19.434  0.00  0.00    +0.000 C 
ATOM     32  C   UNL     1       0.312  10.785  18.379  0.00  0.00    +0.000 C 
ATOM     33  C   UNL     1       1.334   9.717  18.748  0.00  0.00    +0.000 C 
BRANCH  26  34
ATOM     34  C   UNL     1       2.097   6.955  19.385  0.00  0.00    +0.000 C 
BRANCH  34  36
ATOM     35  C   UNL     1       1.775   4.561  19.687  0.00  0.00    +0.000 C 
ATOM     36  N   UNL     1       2.654   5.703  19.947  0.00  0.00    +0.000 NA
ATOM     37  C   UNL     1       3.989   5.454  19.410  0.00  0.00    +0.000 C 
ENDBRANCH  34  36
ENDBRANCH  26  34
ENDBRANCH   1  31
TORSDOF 4
ENDMDL
MODEL 9
REMARK VINA RESULT:      -6.8      1.868      2.144
REMARK  Name = 
REMARK  7 active torsions:
REMARK  status: ('A' for Active; 'I' for Inactive)
REMARK    1  A    between atoms: C_1  and  N_2
REMARK    2  A    between atoms: N_2  and  C_3
REMARK    3  A    between atoms: N_2  and  C_4
REMARK    4  A    between atoms: C_4  and  C_5
REMARK    5  A    between atoms: C_10  and  N_11
REMARK    6  A    between atoms: N_14  and  C_15
REMARK    7  A    between atoms: C_22  and  C_23
REMARK                            x       y       z     vdW  Elec       q    Type
REMARK                         _______ _______ _______ _____ _____    ______ ____
ROOT
ATOM      1  N   UNL     1       2.534  15.129  21.603  0.00  0.00    +0.000 N 
ATOM      2  C   UNL     1       2.586  16.476  22.056  0.00  0.00    +0.000 A 
ATOM      3  O   UNL     1       3.512  17.263  22.005  0.00  0.00    +0.000 OA
ATOM      4  N   UNL     1       1.342  16.774  22.607  0.00  0.00    +0.000 N 
ATOM      5  C   UNL     1       0.983  18.024  23.213  0.00  0.00    +0.000 C 
ATOM      6  C   UNL     1       0.520  15.660  22.495  0.00  0.00    +0.000 A 
ATOM      7  C   UNL     1      -0.773  15.510  22.903  0.00  0.00    +0.000 A 
ATOM      8  N   UNL     1      -1.417  14.353  22.710  0.00  0.00    +0.000 NA
ATOM      9  C   UNL     1      -0.753  13.353  22.096  0.00  0.00    +0.000 A 
ATOM     10  C   UNL     1      -1.477  12.199  21.922  0.00  0.00    +0.000 A 
ATOM     11  C   UNL     1      -0.925  11.102  21.282  0.00  0.00    +0.000 A 
ATOM     12  C   UNL     1       0.376  11.181  20.801  0.00  0.00    +0.000 A 
ATOM     13  N   UNL     1       1.139  12.298  20.986  0.00  0.00    +0.000 NA
ATOM     14  C   UNL     1       0.589  13.385  21.620  0.00  0.00    +0.000 A 
ATOM     15  C   UNL     1       1.217  14.618  21.867  0.00  0.00    +0.000 A 
ENDROOT
BRANCH  12  16
ATOM     16  C   UNL     1       0.964  10.051  20.061  0.00  0.00    +0.000 A 
ATOM     17  C   UNL     1       1.411  10.168  18.751  0.00  0.00    +0.000 A 
ATOM     18  N   UNL     1       2.017   9.177  18.043  0.00  0.00    +0.000 NA
ATOM     19  C   UNL     1       2.200   7.985  18.640  0.00  0.00    +0.000 A 
ATOM     20  C   UNL     1       2.828   6.951  17.955  0.00  0.00    +0.000 A 
ATOM     21  C   UNL     1       3.038   5.696  18.544  0.00  0.00    +0.000 A 
ATOM     22  C   UNL     1       2.619   5.463  19.844  0.00  0.00    +0.000 A 
ATOM     23  C   UNL     1       1.984   6.478  20.553  0.00  0.00    +0.000 A 
ATOM     24  C   UNL     1       1.775   7.738  19.958  0.00  0.00    +0.000 A 
ATOM     25  C   UNL     1       1.151   8.788  20.651  0.00  0.00    +0.000 A 
ENDBRANCH  12  16
BRANCH   1  31
ATOM     26  C   UNL     1       7.443  16.502  20.671  0.00  0.00    +0.000 C 
ATOM     27  O   UNL     1       8.286  16.420  21.572  0.00  0.00    +0.000 OA
ATOM     28  N   UNL     1       6.211  15.841  20.742  0.00  0.00    +0.000 N 
ATOM     29  C   UNL     1       5.816  15.334  22.053  0.00  0.00    +0.000 C 
ATOM     30  C   UNL     1       4.835  14.170  21.971  0.00  0.00    +0.000 C 
ATOM     31  C   UNL     1       3.650  14.383  21.015  0.00  0.00    +0.000 C 
ATOM     32  C   UNL     1       4.147  14.945  19.676  0.00  0.00    +0.000 C 
ATOM     33  C   UNL     1       5.131  16.103  19.791  0.00  0.00    +0.000 C 
BRANCH  26  34
ATOM     34  C   UNL     1       7.775  17.318  19.407  0.00  0.00    +0.000 C 
BRANCH  34  36
ATOM     35  C   UNL     1       8.762  15.681  17.899  0.00  0.00    +0.000 C 
ATOM     36  N   UNL     1       9.014  16.851  18.743  0.00  0.00    +0.000 NA
ATOM     37  C   UNL     1       9.607  17.929  17.957  0.00  0.00    +0.000 C 
ENDBRANCH  34  36
ENDBRANCH  26  34
ENDBRANCH   1  31
TORSDOF 4
ENDMDL
