MODEL 1
REMARK VINA RESULT:      -7.0      0.000      0.000
REMARK  Name = 
REMARK  8 active torsions:
REMARK  status: ('A' for Active; 'I' for Inactive)
REMARK    1  A    between atoms: N_1  and  C_2
REMARK    2  A    between atoms: N_10  and  C_11
REMARK    3  A    between atoms: C_13  and  C_14
REMARK    4  A    between atoms: C_14  and  P_15
REMARK    5  A    between atoms: P_15  and  O_17
REMARK    6  A    between atoms: P_15  and  O_18
REMARK    7  A    between atoms: C_19  and  O_20
REMARK    8  A    between atoms: C_21  and  O_22
REMARK                            x       y       z     vdW  Elec       q    Type
REMARK                         _______ _______ _______ _____ _____    ______ ____
ROOT
ATOM      1  C   UNL     1       4.001   5.703  18.910  0.00  0.00    +0.000 C 
ATOM      2  O   UNL     1       5.127   5.644  18.007  0.00  0.00    +0.000 OA
ATOM      3  C   UNL     1       5.314   4.276  17.578  0.00  0.00    +0.000 C 
ATOM      4  C   UNL     1       4.366   3.420  18.428  0.00  0.00    +0.000 C 
ATOM      5  C   UNL     1       3.250   4.377  18.815  0.00  0.00    +0.000 C 
ENDROOT
BRANCH   1  14
ATOM      6  C   UNL     1       0.974   9.464  19.368  0.00  0.00    +0.000 A 
ATOM      7  N   UNL     1       0.543   9.133  20.606  0.00  0.00    +0.000 NA
ATOM      8  C   UNL     1       1.038   8.017  21.179  0.00  0.00    +0.000 A 
ATOM      9  N   UNL     1       1.933   7.146  20.678  0.00  0.00    +0.000 NA
ATOM     10  C   UNL     1       2.304   7.497  19.434  0.00  0.00    +0.000 A 
ATOM     11  C   UNL     1       1.881   8.606  18.723  0.00  0.00    +0.000 A 
ATOM     12  N   UNL     1       2.468   8.643  17.474  0.00  0.00    +0.000 NA
ATOM     13  C   UNL     1       3.253   7.587  17.444  0.00  0.00    +0.000 A 
ATOM     14  N   UNL     1       3.193   6.866  18.608  0.00  0.00    +0.000 N 
BRANCH   6  15
ATOM     15  N   UNL     1       0.491  10.631  18.792  0.00  0.00    +0.000 N 
ATOM     16  H   UNL     1      -0.460  10.534  18.469  0.00  0.00    +0.000 HD
ATOM     17  H   UNL     1       1.159  11.083  18.179  0.00  0.00    +0.000 HD
ENDBRANCH   6  15
ENDBRANCH   1  14
BRANCH   4  18
ATOM     18  O   UNL     1       5.002   2.971  19.637  0.00  0.00    +0.000 OA
ATOM     19  H   UNL     1       5.635   2.259  19.430  0.00  0.00    +0.000 HD
ENDBRANCH   4  18
BRANCH   5  20
ATOM     20  O   UNL     1       2.642   4.004  20.050  0.00  0.00    +0.000 OA
ATOM     21  H   UNL     1       3.199   3.291  20.429  0.00  0.00    +0.000 HD
ENDBRANCH   5  20
BRANCH   3  22
ATOM     22  C   UNL     1       5.074   4.171  16.072  0.00  0.00    +0.000 C 
BRANCH  22  23
ATOM     23  P   UNL     1       6.521   4.812  15.155  0.00  0.00    +0.000 P 
ATOM     24  O   UNL     1       5.905   6.209  15.103  0.00  0.00    +0.000 OA
BRANCH  23  25
ATOM     25  O   UNL     1       7.416   4.818  16.522  0.00  0.00    +0.000 OA
ATOM     26  H   UNL     1       7.450   3.923  16.914  0.00  0.00    +0.000 HD
ENDBRANCH  23  25
BRANCH  23  27
ATOM     27  O   UNL     1       7.889   5.419  14.287  0.00  0.00    +0.000 OA
ATOM     28  H   UNL     1       8.350   6.012  14.915  0.00  0.00    +0.000 HD
ENDBRANCH  23  27
ENDBRANCH  22  23
ENDBRANCH   3  22
TORSDOF 8
ENDMDL
MODEL 2
REMARK VINA RESULT:      -6.9      0.941      1.270
REMARK  Name = 
REMARK  8 active torsions:
REMARK  status: ('A' for Active; 'I' for Inactive)
REMARK    1  A    between atoms: N_1  and  C_2
REMARK    2  A    between atoms: N_10  and  C_11
REMARK    3  A    between atoms: C_13  and  C_14
REMARK    4  A    between atoms: C_14  and  P_15
REMARK    5  A    between atoms: P_15  and  O_17
REMARK    6  A    between atoms: P_15  and  O_18
REMARK    7  A    between atoms: C_19  and  O_20
REMARK    8  A    between atoms: C_21  and  O_22
REMARK                            x       y       z     vdW  Elec       q    Type
REMARK                         _______ _______ _______ _____ _____    ______ ____
ROOT
ATOM      1  C   UNL     1       3.337   5.680  19.403  0.00  0.00    +0.000 C 
ATOM      2  O   UNL     1       4.741   5.599  19.072  0.00  0.00    +0.000 OA
ATOM      3  C   UNL     1       5.044   4.253  18.636  0.00  0.00    +0.000 C 
ATOM      4  C   UNL     1       3.789   3.415  18.907  0.00  0.00    +0.000 C 
ATOM      5  C   UNL     1       2.653   4.424  18.866  0.00  0.00    +0.000 C 
ENDROOT
BRANCH   1  14
ATOM      6  C   UNL     1       1.048   9.946  19.145  0.00  0.00    +0.000 A 
ATOM      7  N   UNL     1       0.474   9.860  20.366  0.00  0.00    +0.000 NA
ATOM      8  C   UNL     1       0.709   8.757  21.106  0.00  0.00    +0.000 A 
ATOM      9  N   UNL     1       1.457   7.683  20.793  0.00  0.00    +0.000 NA
ATOM     10  C   UNL     1       1.976   7.799  19.558  0.00  0.00    +0.000 A 
ATOM     11  C   UNL     1       1.821   8.865  18.690  0.00  0.00    +0.000 A 
ATOM     12  N   UNL     1       2.492   8.636  17.505  0.00  0.00    +0.000 NA
ATOM     13  C   UNL     1       3.064   7.462  17.669  0.00  0.00    +0.000 A 
ATOM     14  N   UNL     1       2.787   6.919  18.897  0.00  0.00    +0.000 N 
BRANCH   6  15
ATOM     15  N   UNL     1       0.836  11.097  18.398  0.00  0.00    +0.000 N 
ATOM     16  H   UNL     1      -0.104  11.452  18.498  0.00  0.00    +0.000 HD
ATOM     17  H   UNL     1       1.230  11.050  17.465  0.00  0.00    +0.000 HD
ENDBRANCH   6  15
ENDBRANCH   1  14
BRANCH   4  18
ATOM     18  O   UNL     1       3.817   2.835  20.223  0.00  0.00    +0.000 OA
ATOM     19  H   UNL     1       4.703   2.472  20.403  0.00  0.00    +0.000 HD
ENDBRANCH   4  18
BRANCH   5  20
ATOM     20  O   UNL     1       1.554   4.013  19.677  0.00  0.00    +0.000 OA
ATOM     21  H   UNL     1       1.798   4.225  20.604  0.00  0.00    +0.000 HD
ENDBRANCH   5  20
BRANCH   3  22
ATOM     22  C   UNL     1       5.480   4.273  17.170  0.00  0.00    +0.000 C 
BRANCH  22  23
ATOM     23  P   UNL     1       6.627   5.667  16.871  0.00  0.00    +0.000 P 
ATOM     24  O   UNL     1       7.689   4.713  16.326  0.00  0.00    +0.000 OA
BRANCH  23  25
ATOM     25  O   UNL     1       5.775   6.116  15.551  0.00  0.00    +0.000 OA
ATOM     26  H   UNL     1       5.119   5.431  15.316  0.00  0.00    +0.000 HD
ENDBRANCH  23  25
BRANCH  23  27
ATOM     27  O   UNL     1       7.712   6.984  16.588  0.00  0.00    +0.000 OA
ATOM     28  H   UNL     1       7.643   7.551  17.384  0.00  0.00    +0.000 HD
ENDBRANCH  23  27
ENDBRANCH  22  23
ENDBRANCH   3  22
TORSDOF 8
ENDMDL
MODEL 3
REMARK VINA RESULT:      -6.8      3.597      5.824
REMARK  Name = 
REMARK  8 active torsions:
REMARK  status: ('A' for Active; 'I' for Inactive)
REMARK    1  A    between atoms: N_1  and  C_2
REMARK    2  A    between atoms: N_10  and  C_11
REMARK    3  A    between atoms: C_13  and  C_14
REMARK    4  A    between atoms: C_14  and  P_15
REMARK    5  A    between atoms: P_15  and  O_17
REMARK    6  A    between atoms: P_15  and  O_18
REMARK    7  A    between atoms: C_19  and  O_20
REMARK    8  A    between atoms: C_21  and  O_22
REMARK                            x       y       z     vdW  Elec       q    Type
REMARK                         _______ _______ _______ _____ _____    ______ ____
ROOT
ATOM      1  C   UNL     1       4.694   6.521  18.714  0.00  0.00    +0.000 C 
ATOM      2  O   UNL     1       4.658   5.350  19.559  0.00  0.00    +0.000 OA
ATOM      3  C   UNL     1       3.278   5.000  19.817  0.00  0.00    +0.000 C 
ATOM      4  C   UNL     1       2.427   6.146  19.258  0.00  0.00    +0.000 C 
ATOM      5  C   UNL     1       3.290   6.747  18.160  0.00  0.00    +0.000 C 
ENDROOT
BRANCH   1  14
ATOM      6  C   UNL     1       7.060   5.067  14.739  0.00  0.00    +0.000 A 
ATOM      7  N   UNL     1       6.187   4.084  14.420  0.00  0.00    +0.000 NA
ATOM      8  C   UNL     1       5.125   3.887  15.228  0.00  0.00    +0.000 A 
ATOM      9  N   UNL     1       4.794   4.548  16.352  0.00  0.00    +0.000 NA
ATOM     10  C   UNL     1       5.708   5.489  16.646  0.00  0.00    +0.000 A 
ATOM     11  C   UNL     1       6.842   5.802  15.916  0.00  0.00    +0.000 A 
ATOM     12  N   UNL     1       7.551   6.819  16.522  0.00  0.00    +0.000 NA
ATOM     13  C   UNL     1       6.841   7.133  17.585  0.00  0.00    +0.000 A 
ATOM     14  N   UNL     1       5.714   6.361  17.700  0.00  0.00    +0.000 N 
BRANCH   6  15
ATOM     15  N   UNL     1       8.134   5.294  13.890  0.00  0.00    +0.000 N 
ATOM     16  H   UNL     1       8.357   6.275  13.806  0.00  0.00    +0.000 HD
ATOM     17  H   UNL     1       8.101   4.740  13.042  0.00  0.00    +0.000 HD
ENDBRANCH   6  15
ENDBRANCH   1  14
BRANCH   4  18
ATOM     18  O   UNL     1       2.198   7.165  20.247  0.00  0.00    +0.000 OA
ATOM     19  H   UNL     1       1.391   6.956  20.752  0.00  0.00    +0.000 HD
ENDBRANCH   4  18
BRANCH   5  20
ATOM     20  O   UNL     1       2.998   8.129  17.959  0.00  0.00    +0.000 OA
ATOM     21  H   UNL     1       3.641   8.631  18.505  0.00  0.00    +0.000 HD
ENDBRANCH   5  20
BRANCH   3  22
ATOM     22  C   UNL     1       2.971   3.633  19.205  0.00  0.00    +0.000 C 
BRANCH  22  23
ATOM     23  P   UNL     1       4.170   2.388  19.804  0.00  0.00    +0.000 P 
ATOM     24  O   UNL     1       3.558   1.321  18.896  0.00  0.00    +0.000 OA
BRANCH  23  25
ATOM     25  O   UNL     1       5.354   3.055  18.898  0.00  0.00    +0.000 OA
ATOM     26  H   UNL     1       6.149   2.488  18.899  0.00  0.00    +0.000 HD
ENDBRANCH  23  25
BRANCH  23  27
ATOM     27  O   UNL     1       5.302   1.209  20.370  0.00  0.00    +0.000 OA
ATOM     28  H   UNL     1       5.359   1.351  21.338  0.00  0.00    +0.000 HD
ENDBRANCH  23  27
ENDBRANCH  22  23
ENDBRANCH   3  22
TORSDOF 8
ENDMDL
MODEL 4
REMARK VINA RESULT:      -6.7      2.705      4.283
REMARK  Name = 
REMARK  8 active torsions:
REMARK  status: ('A' for Active; 'I' for Inactive)
REMARK    1  A    between atoms: N_1  and  C_2
REMARK    2  A    between atoms: N_10  and  C_11
REMARK    3  A    between atoms: C_13  and  C_14
REMARK    4  A    between atoms: C_14  and  P_15
REMARK    5  A    between atoms: P_15  and  O_17
REMARK    6  A    between atoms: P_15  and  O_18
REMARK    7  A    between atoms: C_19  and  O_20
REMARK    8  A    between atoms: C_21  and  O_22
REMARK                            x       y       z     vdW  Elec       q    Type
REMARK                         _______ _______ _______ _____ _____    ______ ____
ROOT
ATOM      1  C   UNL     1       5.204   5.793  18.214  0.00  0.00    +0.000 C 
ATOM      2  O   UNL     1       5.171   5.740  16.771  0.00  0.00    +0.000 OA
ATOM      3  C   UNL     1       6.430   5.213  16.292  0.00  0.00    +0.000 C 
ATOM      4  C   UNL     1       7.357   5.128  17.510  0.00  0.00    +0.000 C 
ATOM      5  C   UNL     1       6.409   4.985  18.688  0.00  0.00    +0.000 C 
ENDROOT
BRANCH   1  14
ATOM      6  C   UNL     1       1.537   2.942  19.607  0.00  0.00    +0.000 A 
ATOM      7  N   UNL     1       2.005   1.825  19.004  0.00  0.00    +0.000 NA
ATOM      8  C   UNL     1       3.161   1.908  18.315  0.00  0.00    +0.000 A 
ATOM      9  N   UNL     1       3.949   2.982  18.128  0.00  0.00    +0.000 NA
ATOM     10  C   UNL     1       3.426   4.073  18.716  0.00  0.00    +0.000 A 
ATOM     11  C   UNL     1       2.255   4.139  19.449  0.00  0.00    +0.000 A 
ATOM     12  N   UNL     1       2.028   5.425  19.897  0.00  0.00    +0.000 NA
ATOM     13  C   UNL     1       3.060   6.117  19.463  0.00  0.00    +0.000 A 
ATOM     14  N   UNL     1       3.937   5.341  18.748  0.00  0.00    +0.000 N 
BRANCH   6  15
ATOM     15  N   UNL     1       0.366   2.850  20.346  0.00  0.00    +0.000 N 
ATOM     16  H   UNL     1      -0.032   3.755  20.549  0.00  0.00    +0.000 HD
ATOM     17  H   UNL     1       0.417   2.173  21.099  0.00  0.00    +0.000 HD
ENDBRANCH   6  15
ENDBRANCH   1  14
BRANCH   4  18
ATOM     18  O   UNL     1       8.105   6.344  17.690  0.00  0.00    +0.000 OA
ATOM     19  H   UNL     1       9.057   6.139  17.743  0.00  0.00    +0.000 HD
ENDBRANCH   4  18
BRANCH   5  20
ATOM     20  O   UNL     1       6.978   5.506  19.888  0.00  0.00    +0.000 OA
ATOM     21  H   UNL     1       7.671   6.144  19.612  0.00  0.00    +0.000 HD
ENDBRANCH   5  20
BRANCH   3  22
ATOM     22  C   UNL     1       6.194   3.877  15.588  0.00  0.00    +0.000 C 
BRANCH  22  23
ATOM     23  P   UNL     1       6.601   4.019  13.809  0.00  0.00    +0.000 P 
ATOM     24  O   UNL     1       5.119   4.121  13.450  0.00  0.00    +0.000 OA
BRANCH  23  25
ATOM     25  O   UNL     1       7.072   5.569  14.015  0.00  0.00    +0.000 OA
ATOM     26  H   UNL     1       6.326   6.116  14.330  0.00  0.00    +0.000 HD
ENDBRANCH  23  25
BRANCH  23  27
ATOM     27  O   UNL     1       6.984   4.152  12.128  0.00  0.00    +0.000 OA
ATOM     28  H   UNL     1       6.167   3.890  11.656  0.00  0.00    +0.000 HD
ENDBRANCH  23  27
ENDBRANCH  22  23
ENDBRANCH   3  22
TORSDOF 8
ENDMDL
MODEL 5
REMARK VINA RESULT:      -6.7      1.172      1.324
REMARK  Name = 
REMARK  8 active torsions:
REMARK  status: ('A' for Active; 'I' for Inactive)
REMARK    1  A    between atoms: N_1  and  C_2
REMARK    2  A    between atoms: N_10  and  C_11
REMARK    3  A    between atoms: C_13  and  C_14
REMARK    4  A    between atoms: C_14  and  P_15
REMARK    5  A    between atoms: P_15  and  O_17
REMARK    6  A    between atoms: P_15  and  O_18
REMARK    7  A    between atoms: C_19  and  O_20
REMARK    8  A    between atoms: C_21  and  O_22
REMARK                            x       y       z     vdW  Elec       q    Type
REMARK                         _______ _______ _______ _____ _____    ______ ____
ROOT
ATOM      1  C   UNL     1       2.963   5.886  19.561  0.00  0.00    +0.000 C 
ATOM      2  O   UNL     1       4.265   5.600  19.004  0.00  0.00    +0.000 OA
ATOM      3  C   UNL     1       4.332   4.196  18.663  0.00  0.00    +0.000 C 
ATOM      4  C   UNL     1       3.063   3.549  19.233  0.00  0.00    +0.000 C 
ATOM      5  C   UNL     1       2.058   4.688  19.284  0.00  0.00    +0.000 C 
ENDROOT
BRANCH   1  14
ATOM      6  C   UNL     1       0.925  10.274  19.237  0.00  0.00    +0.000 A 
ATOM      7  N   UNL     1       0.394  10.262  20.480  0.00  0.00    +0.000 NA
ATOM      8  C   UNL     1       0.589   9.172  21.249  0.00  0.00    +0.000 A 
ATOM      9  N   UNL     1       1.259   8.044  20.947  0.00  0.00    +0.000 NA
ATOM     10  C   UNL     1       1.738   8.088  19.691  0.00  0.00    +0.000 A 
ATOM     11  C   UNL     1       1.615   9.133  18.792  0.00  0.00    +0.000 A 
ATOM     12  N   UNL     1       2.226   8.825  17.594  0.00  0.00    +0.000 NA
ATOM     13  C   UNL     1       2.733   7.624  17.777  0.00  0.00    +0.000 A 
ATOM     14  N   UNL     1       2.470   7.139  19.032  0.00  0.00    +0.000 N 
BRANCH   6  15
ATOM     15  N   UNL     1       0.755  11.410  18.458  0.00  0.00    +0.000 N 
ATOM     16  H   UNL     1       1.074  12.246  18.925  0.00  0.00    +0.000 HD
ATOM     17  H   UNL     1      -0.139  11.442  17.982  0.00  0.00    +0.000 HD
ENDBRANCH   6  15
ENDBRANCH   1  14
BRANCH   4  18
ATOM     18  O   UNL     1       3.268   3.080  20.577  0.00  0.00    +0.000 OA
ATOM     19  H   UNL     1       2.490   3.298  21.122  0.00  0.00    +0.000 HD
ENDBRANCH   4  18
BRANCH   5  20
ATOM     20  O   UNL     1       1.087   4.488  20.310  0.00  0.00    +0.000 OA
ATOM     21  H   UNL     1       0.377   5.145  20.151  0.00  0.00    +0.000 HD
ENDBRANCH   5  20
BRANCH   3  22
ATOM     22  C   UNL     1       4.491   4.040  17.151  0.00  0.00    +0.000 C 
BRANCH  22  23
ATOM     23  P   UNL     1       6.239   4.291  16.670  0.00  0.00    +0.000 P 
ATOM     24  O   UNL     1       5.989   5.780  16.433  0.00  0.00    +0.000 OA
BRANCH  23  25
ATOM     25  O   UNL     1       6.706   4.206  18.233  0.00  0.00    +0.000 OA
ATOM     26  H   UNL     1       7.289   4.957  18.459  0.00  0.00    +0.000 HD
ENDBRANCH  23  25
BRANCH  23  27
ATOM     27  O   UNL     1       7.890   4.530  16.214  0.00  0.00    +0.000 OA
ATOM     28  H   UNL     1       8.346   3.697  16.454  0.00  0.00    +0.000 HD
ENDBRANCH  23  27
ENDBRANCH  22  23
ENDBRANCH   3  22
TORSDOF 8
ENDMDL
MODEL 6
REMARK VINA RESULT:      -6.7      1.194      1.333
REMARK  Name = 
REMARK  8 active torsions:
REMARK  status: ('A' for Active; 'I' for Inactive)
REMARK    1  A    between atoms: N_1  and  C_2
REMARK    2  A    between atoms: N_10  and  C_11
REMARK    3  A    between atoms: C_13  and  C_14
REMARK    4  A    between atoms: C_14  and  P_15
REMARK    5  A    between atoms: P_15  and  O_17
REMARK    6  A    between atoms: P_15  and  O_18
REMARK    7  A    between atoms: C_19  and  O_20
REMARK    8  A    between atoms: C_21  and  O_22
REMARK                            x       y       z     vdW  Elec       q    Type
REMARK                         _______ _______ _______ _____ _____    ______ ____
ROOT
ATOM      1  C   UNL     1       3.335   5.623  18.935  0.00  0.00    +0.000 C 
ATOM      2  O   UNL     1       4.585   5.816  19.633  0.00  0.00    +0.000 OA
ATOM      3  C   UNL     1       5.554   4.868  19.131  0.00  0.00    +0.000 C 
ATOM      4  C   UNL     1       4.789   3.909  18.212  0.00  0.00    +0.000 C 
ATOM      5  C   UNL     1       3.602   4.726  17.729  0.00  0.00    +0.000 C 
ENDROOT
BRANCH   1  14
ATOM      6  C   UNL     1       1.071   9.896  19.299  0.00  0.00    +0.000 A 
ATOM      7  N   UNL     1       0.598   9.687  20.548  0.00  0.00    +0.000 NA
ATOM      8  C   UNL     1       0.882   8.514  21.151  0.00  0.00    +0.000 A 
ATOM      9  N   UNL     1       1.592   7.477  20.671  0.00  0.00    +0.000 NA
ATOM     10  C   UNL     1       2.009   7.717  19.415  0.00  0.00    +0.000 A 
ATOM     11  C   UNL     1       1.794   8.866  18.675  0.00  0.00    +0.000 A 
ATOM     12  N   UNL     1       2.365   8.758  17.422  0.00  0.00    +0.000 NA
ATOM     13  C   UNL     1       2.938   7.573  17.419  0.00  0.00    +0.000 A 
ATOM     14  N   UNL     1       2.756   6.908  18.604  0.00  0.00    +0.000 N 
BRANCH   6  15
ATOM     15  N   UNL     1       0.809  11.117  18.692  0.00  0.00    +0.000 N 
ATOM     16  H   UNL     1       1.648  11.562  18.348  0.00  0.00    +0.000 HD
ATOM     17  H   UNL     1       0.143  11.685  19.202  0.00  0.00    +0.000 HD
ENDBRANCH   6  15
ENDBRANCH   1  14
BRANCH   4  18
ATOM     18  O   UNL     1       4.279   2.777  18.938  0.00  0.00    +0.000 OA
ATOM     19  H   UNL     1       4.016   3.053  19.835  0.00  0.00    +0.000 HD
ENDBRANCH   4  18
BRANCH   5  20
ATOM     20  O   UNL     1       2.487   3.896  17.408  0.00  0.00    +0.000 OA
ATOM     21  H   UNL     1       2.119   4.240  16.565  0.00  0.00    +0.000 HD
ENDBRANCH   5  20
BRANCH   3  22
ATOM     22  C   UNL     1       6.698   5.616  18.445  0.00  0.00    +0.000 C 
BRANCH  22  23
ATOM     23  P   UNL     1       6.910   5.012  16.730  0.00  0.00    +0.000 P 
ATOM     24  O   UNL     1       7.545   6.337  16.312  0.00  0.00    +0.000 OA
BRANCH  23  25
ATOM     25  O   UNL     1       8.176   4.086  17.187  0.00  0.00    +0.000 OA
ATOM     26  H   UNL     1       8.376   4.221  18.134  0.00  0.00    +0.000 HD
ENDBRANCH  23  25
BRANCH  23  27
ATOM     27  O   UNL     1       7.110   4.442  15.110  0.00  0.00    +0.000 OA
ATOM     28  H   UNL     1       7.454   3.529  15.198  0.00  0.00    +0.000 HD
ENDBRANCH  23  27
ENDBRANCH  22  23
ENDBRANCH   3  22
TORSDOF 8
ENDMDL
MODEL 7
REMARK VINA RESULT:      -6.6      3.878      6.060
REMARK  Name = 
REMARK  8 active torsions:
REMARK  status: ('A' for Active; 'I' for Inactive)
REMARK    1  A    between atoms: N_1  and  C_2
REMARK    2  A    between atoms: N_10  and  C_11
REMARK    3  A    between atoms: C_13  and  C_14
REMARK    4  A    between atoms: C_14  and  P_15
REMARK    5  A    between atoms: P_15  and  O_17
REMARK    6  A    between atoms: P_15  and  O_18
REMARK    7  A    between atoms: C_19  and  O_20
REMARK    8  A    between atoms: C_21  and  O_22
REMARK                            x       y       z     vdW  Elec       q    Type
REMARK                         _______ _______ _______ _____ _____    ______ ____
ROOT
ATOM      1  C   UNL     1       4.935   5.956  18.778  0.00  0.00    +0.000 C 
ATOM      2  O   UNL     1       5.081   4.732  19.530  0.00  0.00    +0.000 OA
ATOM      3  C   UNL     1       3.767   4.212  19.840  0.00  0.00    +0.000 C 
ATOM      4  C   UNL     1       2.762   5.292  19.421  0.00  0.00    +0.000 C 
ATOM      5  C   UNL     1       3.480   6.062  18.326  0.00  0.00    +0.000 C 
ENDROOT
BRANCH   1  14
ATOM      6  C   UNL     1       7.167   5.075  14.564  0.00  0.00    +0.000 A 
ATOM      7  N   UNL     1       6.377   4.035  14.214  0.00  0.00    +0.000 NA
ATOM      8  C   UNL     1       5.395   3.665  15.061  0.00  0.00    +0.000 A 
ATOM      9  N   UNL     1       5.074   4.197  16.254  0.00  0.00    +0.000 NA
ATOM     10  C   UNL     1       5.908   5.202  16.574  0.00  0.00    +0.000 A 
ATOM     11  C   UNL     1       6.954   5.688  15.810  0.00  0.00    +0.000 A 
ATOM     12  N   UNL     1       7.597   6.723  16.458  0.00  0.00    +0.000 NA
ATOM     13  C   UNL     1       6.931   6.876  17.584  0.00  0.00    +0.000 A 
ATOM     14  N   UNL     1       5.897   5.984  17.697  0.00  0.00    +0.000 N 
BRANCH   6  15
ATOM     15  N   UNL     1       8.155   5.480  13.677  0.00  0.00    +0.000 N 
ATOM     16  H   UNL     1       8.513   6.398  13.895  0.00  0.00    +0.000 HD
ATOM     17  H   UNL     1       7.937   5.271  12.709  0.00  0.00    +0.000 HD
ENDBRANCH   6  15
ENDBRANCH   1  14
BRANCH   4  18
ATOM     18  O   UNL     1       2.491   6.205  20.498  0.00  0.00    +0.000 OA
ATOM     19  H   UNL     1       2.492   7.120  20.161  0.00  0.00    +0.000 HD
ENDBRANCH   4  18
BRANCH   5  20
ATOM     20  O   UNL     1       3.029   7.413  18.249  0.00  0.00    +0.000 OA
ATOM     21  H   UNL     1       3.616   7.935  18.836  0.00  0.00    +0.000 HD
ENDBRANCH   5  20
BRANCH   3  22
ATOM     22  C   UNL     1       3.569   2.866  19.142  0.00  0.00    +0.000 C 
BRANCH  22  23
ATOM     23  P   UNL     1       1.798   2.606  18.761  0.00  0.00    +0.000 P 
ATOM     24  O   UNL     1       2.089   2.623  17.261  0.00  0.00    +0.000 OA
BRANCH  23  25
ATOM     25  O   UNL     1       1.915   1.030  19.175  0.00  0.00    +0.000 OA
ATOM     26  H   UNL     1       1.035   0.667  19.399  0.00  0.00    +0.000 HD
ENDBRANCH  23  25
BRANCH  23  27
ATOM     27  O   UNL     1       0.124   2.361  18.401  0.00  0.00    +0.000 OA
ATOM     28  H   UNL     1      -0.349   2.542  19.239  0.00  0.00    +0.000 HD
ENDBRANCH  23  27
ENDBRANCH  22  23
ENDBRANCH   3  22
TORSDOF 8
ENDMDL
MODEL 8
REMARK VINA RESULT:      -6.5      1.419      2.216
REMARK  Name = 
REMARK  8 active torsions:
REMARK  status: ('A' for Active; 'I' for Inactive)
REMARK    1  A    between atoms: N_1  and  C_2
REMARK    2  A    between atoms: N_10  and  C_11
REMARK    3  A    between atoms: C_13  and  C_14
REMARK    4  A    between atoms: C_14  and  P_15
REMARK    5  A    between atoms: P_15  and  O_17
REMARK    6  A    between atoms: P_15  and  O_18
REMARK    7  A    between atoms: C_19  and  O_20
REMARK    8  A    between atoms: C_21  and  O_22
REMARK                            x       y       z     vdW  Elec       q    Type
REMARK                         _______ _______ _______ _____ _____    ______ ____
ROOT
ATOM      1  C   UNL     1       3.132   4.796  19.278  0.00  0.00    +0.000 C 
ATOM      2  O   UNL     1       4.522   4.830  19.670  0.00  0.00    +0.000 OA
ATOM      3  C   UNL     1       5.333   4.369  18.565  0.00  0.00    +0.000 C 
ATOM      4  C   UNL     1       4.361   3.835  17.506  0.00  0.00    +0.000 C 
ATOM      5  C   UNL     1       3.073   4.599  17.765  0.00  0.00    +0.000 C 
ENDROOT
BRANCH   1  14
ATOM      6  C   UNL     1       1.234   9.255  19.455  0.00  0.00    +0.000 A 
ATOM      7  N   UNL     1       1.791   9.680  18.299  0.00  0.00    +0.000 NA
ATOM      8  C   UNL     1       2.578   8.823  17.617  0.00  0.00    +0.000 A 
ATOM      9  N   UNL     1       2.908   7.557  17.932  0.00  0.00    +0.000 NA
ATOM     10  C   UNL     1       2.360   7.193  19.104  0.00  0.00    +0.000 A 
ATOM     11  C   UNL     1       1.538   7.961  19.910  0.00  0.00    +0.000 A 
ATOM     12  N   UNL     1       1.167   7.263  21.042  0.00  0.00    +0.000 NA
ATOM     13  C   UNL     1       1.735   6.083  20.907  0.00  0.00    +0.000 A 
ATOM     14  N   UNL     1       2.462   5.990  19.748  0.00  0.00    +0.000 N 
BRANCH   6  15
ATOM     15  N   UNL     1       0.396  10.124  20.140  0.00  0.00    +0.000 N 
ATOM     16  H   UNL     1       0.635  11.092  19.983  0.00  0.00    +0.000 HD
ATOM     17  H   UNL     1       0.200   9.830  21.090  0.00  0.00    +0.000 HD
ENDBRANCH   6  15
ENDBRANCH   1  14
BRANCH   4  18
ATOM     18  O   UNL     1       4.090   2.435  17.697  0.00  0.00    +0.000 OA
ATOM     19  H   UNL     1       4.292   1.947  16.877  0.00  0.00    +0.000 HD
ENDBRANCH   4  18
BRANCH   5  20
ATOM     20  O   UNL     1       1.928   3.854  17.356  0.00  0.00    +0.000 OA
ATOM     21  H   UNL     1       1.221   4.510  17.174  0.00  0.00    +0.000 HD
ENDBRANCH   5  20
BRANCH   3  22
ATOM     22  C   UNL     1       6.231   5.506  18.076  0.00  0.00    +0.000 C 
BRANCH  22  23
ATOM     23  P   UNL     1       6.885   5.123  16.410  0.00  0.00    +0.000 P 
ATOM     24  O   UNL     1       7.562   6.491  16.331  0.00  0.00    +0.000 OA
BRANCH  23  25
ATOM     25  O   UNL     1       8.025   4.147  17.056  0.00  0.00    +0.000 OA
ATOM     26  H   UNL     1       8.580   3.756  16.353  0.00  0.00    +0.000 HD
ENDBRANCH  23  25
BRANCH  23  27
ATOM     27  O   UNL     1       7.503   4.763  14.836  0.00  0.00    +0.000 OA
ATOM     28  H   UNL     1       8.282   4.189  14.990  0.00  0.00    +0.000 HD
ENDBRANCH  23  27
ENDBRANCH  22  23
ENDBRANCH   3  22
TORSDOF 8
ENDMDL
MODEL 9
REMARK VINA RESULT:      -6.5      3.364      5.624
REMARK  Name = 
REMARK  8 active torsions:
REMARK  status: ('A' for Active; 'I' for Inactive)
REMARK    1  A    between atoms: N_1  and  C_2
REMARK    2  A    between atoms: N_10  and  C_11
REMARK    3  A    between atoms: C_13  and  C_14
REMARK    4  A    between atoms: C_14  and  P_15
REMARK    5  A    between atoms: P_15  and  O_17
REMARK    6  A    between atoms: P_15  and  O_18
REMARK    7  A    between atoms: C_19  and  O_20
REMARK    8  A    between atoms: C_21  and  O_22
REMARK                            x       y       z     vdW  Elec       q    Type
REMARK                         _______ _______ _______ _____ _____    ______ ____
ROOT
ATOM      1  C   UNL     1       3.892   6.633  19.017  0.00  0.00    +0.000 C 
ATOM      2  O   UNL     1       3.940   5.384  19.742  0.00  0.00    +0.000 OA
ATOM      3  C   UNL     1       2.629   5.105  20.284  0.00  0.00    +0.000 C 
ATOM      4  C   UNL     1       1.781   6.360  20.041  0.00  0.00    +0.000 C 
ATOM      5  C   UNL     1       2.425   7.012  18.829  0.00  0.00    +0.000 C 
ENDROOT
BRANCH   1  14
ATOM      6  C   UNL     1       7.131   5.199  15.705  0.00  0.00    +0.000 A 
ATOM      7  N   UNL     1       7.897   4.495  16.569  0.00  0.00    +0.000 NA
ATOM      8  C   UNL     1       7.533   4.465  17.867  0.00  0.00    +0.000 A 
ATOM      9  N   UNL     1       6.479   5.060  18.455  0.00  0.00    +0.000 NA
ATOM     10  C   UNL     1       5.770   5.775  17.565  0.00  0.00    +0.000 A 
ATOM     11  C   UNL     1       6.023   5.900  16.210  0.00  0.00    +0.000 A 
ATOM     12  N   UNL     1       5.088   6.719  15.609  0.00  0.00    +0.000 NA
ATOM     13  C   UNL     1       4.270   7.061  16.581  0.00  0.00    +0.000 A 
ATOM     14  N   UNL     1       4.637   6.510  17.782  0.00  0.00    +0.000 N 
BRANCH   6  15
ATOM     15  N   UNL     1       7.485   5.202  14.363  0.00  0.00    +0.000 N 
ATOM     16  H   UNL     1       6.965   4.522  13.828  0.00  0.00    +0.000 HD
ATOM     17  H   UNL     1       8.485   5.264  14.210  0.00  0.00    +0.000 HD
ENDBRANCH   6  15
ENDBRANCH   1  14
BRANCH   4  18
ATOM     18  O   UNL     1       1.876   7.281  21.141  0.00  0.00    +0.000 OA
ATOM     19  H   UNL     1       1.178   7.957  21.064  0.00  0.00    +0.000 HD
ENDBRANCH   4  18
BRANCH   5  20
ATOM     20  O   UNL     1       2.223   8.424  18.821  0.00  0.00    +0.000 OA
ATOM     21  H   UNL     1       2.745   8.775  18.069  0.00  0.00    +0.000 HD
ENDBRANCH   5  20
BRANCH   3  22
ATOM     22  C   UNL     1       2.067   3.835  19.645  0.00  0.00    +0.000 C 
BRANCH  22  23
ATOM     23  P   UNL     1       3.394   2.592  19.435  0.00  0.00    +0.000 P 
ATOM     24  O   UNL     1       2.366   1.508  19.113  0.00  0.00    +0.000 OA
BRANCH  23  25
ATOM     25  O   UNL     1       3.784   3.220  17.978  0.00  0.00    +0.000 OA
ATOM     26  H   UNL     1       4.727   3.060  17.776  0.00  0.00    +0.000 HD
ENDBRANCH  23  25
BRANCH  23  27
ATOM     27  O   UNL     1       4.647   1.417  19.236  0.00  0.00    +0.000 OA
ATOM     28  H   UNL     1       4.183   0.560  19.138  0.00  0.00    +0.000 HD
ENDBRANCH  23  27
ENDBRANCH  22  23
ENDBRANCH   3  22
TORSDOF 8
ENDMDL
