MODEL 1
REMARK VINA RESULT:      -8.6      0.000      0.000
REMARK  Name = 
REMARK  2 active torsions:
REMARK  status: ('A' for Active; 'I' for Inactive)
REMARK    1  A    between atoms: C_7  and  N_8
REMARK    2  A    between atoms: C_15  and  C_16
REMARK                            x       y       z     vdW  Elec       q    Type
REMARK                         _______ _______ _______ _____ _____    ______ ____
ROOT
ATOM      1  O   UNL     1      -1.579  10.081  18.664  0.00  0.00    +0.000 OA
ATOM      2  C   UNL     1      -0.576  10.724  18.905  0.00  0.00    +0.000 C 
ATOM      3  N   UNL     1       0.015  11.680  18.068  0.00  0.00    +0.000 N 
ATOM      4  C   UNL     1       1.145  12.230  18.665  0.00  0.00    +0.000 A 
ATOM      5  C   UNL     1       2.182  12.913  18.077  0.00  0.00    +0.000 A 
ATOM      6  C   UNL     1       3.057  13.575  18.927  0.00  0.00    +0.000 A 
ATOM      7  C   UNL     1       2.722  13.676  20.291  0.00  0.00    +0.000 A 
ATOM      8  C   UNL     1       1.785  12.792  20.870  0.00  0.00    +0.000 A 
ATOM      9  C   UNL     1       1.159  11.896  20.015  0.00  0.00    +0.000 A 
ATOM     10  C   UNL     1       0.395  10.585  20.100  0.00  0.00    +0.000 C 
ATOM     11  C   UNL     1      -0.243  10.371  21.443  0.00  0.00    +0.000 A 
ATOM     12  C   UNL     1      -1.080  11.104  22.341  0.00  0.00    +0.000 A 
ATOM     13  N   UNL     1      -1.341  10.392  23.451  0.00  0.00    +0.000 NA
ATOM     14  N   UNL     1      -0.718   9.223  23.277  0.00  0.00    +0.000 N 
ATOM     15  C   UNL     1      -0.027   9.186  22.116  0.00  0.00    +0.000 A 
ATOM     16  N   UNL     1       0.743   8.172  21.694  0.00  0.00    +0.000 N 
ATOM     17  C   UNL     1       1.380   8.233  20.463  0.00  0.00    +0.000 A 
ATOM     18  N   UNL     1       2.104   7.171  20.035  0.00  0.00    +0.000 N 
ATOM     19  C   UNL     1       2.790   7.104  18.866  0.00  0.00    +0.000 A 
ATOM     20  O   UNL     1       3.305   6.056  18.456  0.00  0.00    +0.000 OA
ATOM     21  N   UNL     1       2.862   8.255  18.166  0.00  0.00    +0.000 N 
ATOM     22  C   UNL     1       1.902   9.195  18.310  0.00  0.00    +0.000 A 
ATOM     23  O   UNL     1       1.582   9.833  17.314  0.00  0.00    +0.000 OA
ATOM     24  C   UNL     1       1.266   9.332  19.675  0.00  0.00    +0.000 A 
ATOM     25  H   UNL     1      -0.248  11.780  17.100  0.00  0.00    +0.000 HD
ATOM     26  H   UNL     1      -0.788   8.518  23.997  0.00  0.00    +0.000 HD
ATOM     27  H   UNL     1       0.838   7.290  22.193  0.00  0.00    +0.000 HD
ATOM     28  H   UNL     1       2.090   6.297  20.553  0.00  0.00    +0.000 HD
ATOM     29  H   UNL     1       3.210   8.154  17.227  0.00  0.00    +0.000 HD
ENDROOT
BRANCH  12  30
ATOM     30  C   UNL     1      -1.527  12.493  22.234  0.00  0.00    +0.000 A 
ATOM     31  C   UNL     1      -2.290  12.911  21.140  0.00  0.00    +0.000 A 
ATOM     32  C   UNL     1      -2.456  14.273  20.876  0.00  0.00    +0.000 A 
ATOM     33  C   UNL     1      -1.926  15.213  21.747  0.00  0.00    +0.000 A 
ATOM     34  C   UNL     1      -1.273  14.805  22.910  0.00  0.00    +0.000 A 
ATOM     35  C   UNL     1      -1.066  13.446  23.145  0.00  0.00    +0.000 A 
ENDBRANCH  12  30
BRANCH   7  36
ATOM     36  N   UNL     1       3.310  14.778  21.063  0.00  0.00    +0.000 N 
ATOM     37  O   UNL     1       3.280  14.687  22.301  0.00  0.00    +0.000 OA
ATOM     38  O   UNL     1       3.852  15.697  20.438  0.00  0.00    +0.000 OA
ENDBRANCH   7  36
TORSDOF 2
ENDMDL
MODEL 2
REMARK VINA RESULT:      -7.3      5.095      8.660
REMARK  Name = 
REMARK  2 active torsions:
REMARK  status: ('A' for Active; 'I' for Inactive)
REMARK    1  A    between atoms: C_7  and  N_8
REMARK    2  A    between atoms: C_15  and  C_16
REMARK                            x       y       z     vdW  Elec       q    Type
REMARK                         _______ _______ _______ _____ _____    ______ ____
ROOT
ATOM      1  O   UNL     1      -6.703  13.279  24.250  0.00  0.00    +0.000 OA
ATOM      2  C   UNL     1      -5.705  13.196  23.561  0.00  0.00    +0.000 C 
ATOM      3  N   UNL     1      -4.673  12.259  23.709  0.00  0.00    +0.000 N 
ATOM      4  C   UNL     1      -3.693  12.445  22.740  0.00  0.00    +0.000 A 
ATOM      5  C   UNL     1      -2.393  11.998  22.734  0.00  0.00    +0.000 A 
ATOM      6  C   UNL     1      -1.700  12.104  21.537  0.00  0.00    +0.000 A 
ATOM      7  C   UNL     1      -2.413  12.463  20.377  0.00  0.00    +0.000 A 
ATOM      8  C   UNL     1      -3.665  13.111  20.472  0.00  0.00    +0.000 A 
ATOM      9  C   UNL     1      -4.182  13.287  21.747  0.00  0.00    +0.000 A 
ATOM     10  C   UNL     1      -5.220  14.150  22.446  0.00  0.00    +0.000 C 
ATOM     11  C   UNL     1      -6.279  14.657  21.509  0.00  0.00    +0.000 A 
ATOM     12  C   UNL     1      -7.159  14.114  20.520  0.00  0.00    +0.000 A 
ATOM     13  N   UNL     1      -7.916  15.077  19.964  0.00  0.00    +0.000 NA
ATOM     14  N   UNL     1      -7.563  16.207  20.583  0.00  0.00    +0.000 N 
ATOM     15  C   UNL     1      -6.571  16.005  21.479  0.00  0.00    +0.000 A 
ATOM     16  N   UNL     1      -5.969  16.955  22.209  0.00  0.00    +0.000 N 
ATOM     17  C   UNL     1      -4.981  16.622  23.126  0.00  0.00    +0.000 A 
ATOM     18  N   UNL     1      -4.431  17.595  23.893  0.00  0.00    +0.000 N 
ATOM     19  C   UNL     1      -3.448  17.412  24.811  0.00  0.00    +0.000 A 
ATOM     20  O   UNL     1      -3.092  18.305  25.590  0.00  0.00    +0.000 OA
ATOM     21  N   UNL     1      -2.891  16.184  24.833  0.00  0.00    +0.000 N 
ATOM     22  C   UNL     1      -3.598  15.113  24.408  0.00  0.00    +0.000 A 
ATOM     23  O   UNL     1      -3.429  14.054  24.999  0.00  0.00    +0.000 OA
ATOM     24  C   UNL     1      -4.580  15.335  23.279  0.00  0.00    +0.000 A 
ATOM     25  H   UNL     1      -4.587  11.682  24.531  0.00  0.00    +0.000 HD
ATOM     26  H   UNL     1      -8.020  17.070  20.326  0.00  0.00    +0.000 HD
ATOM     27  H   UNL     1      -6.246  17.934  22.200  0.00  0.00    +0.000 HD
ATOM     28  H   UNL     1      -4.812  18.535  23.881  0.00  0.00    +0.000 HD
ATOM     29  H   UNL     1      -2.300  16.005  25.626  0.00  0.00    +0.000 HD
ENDROOT
BRANCH  12  30
ATOM     30  C   UNL     1      -7.210  12.747  20.004  0.00  0.00    +0.000 A 
ATOM     31  C   UNL     1      -7.521  11.680  20.852  0.00  0.00    +0.000 A 
ATOM     32  C   UNL     1      -7.274  10.364  20.449  0.00  0.00    +0.000 A 
ATOM     33  C   UNL     1      -6.790  10.115  19.173  0.00  0.00    +0.000 A 
ATOM     34  C   UNL     1      -6.598  11.164  18.276  0.00  0.00    +0.000 A 
ATOM     35  C   UNL     1      -6.798  12.479  18.697  0.00  0.00    +0.000 A 
ENDBRANCH  12  30
BRANCH   7  36
ATOM     36  N   UNL     1      -1.856  12.066  19.078  0.00  0.00    +0.000 N 
ATOM     37  O   UNL     1      -2.656  11.697  18.202  0.00  0.00    +0.000 OA
ATOM     38  O   UNL     1      -0.636  12.180  18.913  0.00  0.00    +0.000 OA
ENDBRANCH   7  36
TORSDOF 2
ENDMDL
MODEL 3
REMARK VINA RESULT:      -7.3      4.853      8.412
REMARK  Name = 
REMARK  2 active torsions:
REMARK  status: ('A' for Active; 'I' for Inactive)
REMARK    1  A    between atoms: C_7  and  N_8
REMARK    2  A    between atoms: C_15  and  C_16
REMARK                            x       y       z     vdW  Elec       q    Type
REMARK                         _______ _______ _______ _____ _____    ______ ____
ROOT
ATOM      1  O   UNL     1      -6.448  13.304  24.213  0.00  0.00    +0.000 OA
ATOM      2  C   UNL     1      -5.377  13.174  23.652  0.00  0.00    +0.000 C 
ATOM      3  N   UNL     1      -4.382  12.241  23.978  0.00  0.00    +0.000 N 
ATOM      4  C   UNL     1      -3.292  12.363  23.122  0.00  0.00    +0.000 A 
ATOM      5  C   UNL     1      -2.007  11.909  23.297  0.00  0.00    +0.000 A 
ATOM      6  C   UNL     1      -1.176  11.939  22.187  0.00  0.00    +0.000 A 
ATOM      7  C   UNL     1      -1.742  12.231  20.931  0.00  0.00    +0.000 A 
ATOM      8  C   UNL     1      -2.988  12.890  20.838  0.00  0.00    +0.000 A 
ATOM      9  C   UNL     1      -3.650  13.147  22.030  0.00  0.00    +0.000 A 
ATOM     10  C   UNL     1      -4.752  14.056  22.548  0.00  0.00    +0.000 C 
ATOM     11  C   UNL     1      -5.687  14.511  21.464  0.00  0.00    +0.000 A 
ATOM     12  C   UNL     1      -6.450  13.915  20.412  0.00  0.00    +0.000 A 
ATOM     13  N   UNL     1      -7.124  14.846  19.714  0.00  0.00    +0.000 NA
ATOM     14  N   UNL     1      -6.832  16.010  20.302  0.00  0.00    +0.000 N 
ATOM     15  C   UNL     1      -5.955  15.857  21.319  0.00  0.00    +0.000 A 
ATOM     16  N   UNL     1      -5.431  16.846  22.058  0.00  0.00    +0.000 N 
ATOM     17  C   UNL     1      -4.564  16.563  23.104  0.00  0.00    +0.000 A 
ATOM     18  N   UNL     1      -4.095  17.577  23.871  0.00  0.00    +0.000 N 
ATOM     19  C   UNL     1      -3.230  17.445  24.909  0.00  0.00    +0.000 A 
ATOM     20  O   UNL     1      -2.957  18.381  25.671  0.00  0.00    +0.000 OA
ATOM     21  N   UNL     1      -2.696  16.217  25.070  0.00  0.00    +0.000 N 
ATOM     22  C   UNL     1      -3.361  15.127  24.628  0.00  0.00    +0.000 A 
ATOM     23  O   UNL     1      -3.277  14.104  25.297  0.00  0.00    +0.000 OA
ATOM     24  C   UNL     1      -4.200  15.286  23.380  0.00  0.00    +0.000 A 
ATOM     25  H   UNL     1      -4.402  11.715  24.837  0.00  0.00    +0.000 HD
ATOM     26  H   UNL     1      -7.244  16.859  19.941  0.00  0.00    +0.000 HD
ATOM     27  H   UNL     1      -5.693  17.824  21.958  0.00  0.00    +0.000 HD
ATOM     28  H   UNL     1      -4.460  18.518  23.759  0.00  0.00    +0.000 HD
ATOM     29  H   UNL     1      -2.204  16.084  25.937  0.00  0.00    +0.000 HD
ENDROOT
BRANCH  12  30
ATOM     30  C   UNL     1      -6.458  12.519  19.975  0.00  0.00    +0.000 A 
ATOM     31  C   UNL     1      -5.967  12.167  18.715  0.00  0.00    +0.000 A 
ATOM     32  C   UNL     1      -6.247  10.908  18.176  0.00  0.00    +0.000 A 
ATOM     33  C   UNL     1      -6.952   9.979  18.927  0.00  0.00    +0.000 A 
ATOM     34  C   UNL     1      -7.335  10.276  20.234  0.00  0.00    +0.000 A 
ATOM     35  C   UNL     1      -7.097  11.549  20.751  0.00  0.00    +0.000 A 
ENDBRANCH  12  30
BRANCH   7  36
ATOM     36  N   UNL     1      -1.041  11.753  19.733  0.00  0.00    +0.000 N 
ATOM     37  O   UNL     1      -0.850  12.571  18.818  0.00  0.00    +0.000 OA
ATOM     38  O   UNL     1      -0.628  10.588  19.731  0.00  0.00    +0.000 OA
ENDBRANCH   7  36
TORSDOF 2
ENDMDL
MODEL 4
REMARK VINA RESULT:      -7.1      5.165      7.204
REMARK  Name = 
REMARK  2 active torsions:
REMARK  status: ('A' for Active; 'I' for Inactive)
REMARK    1  A    between atoms: C_7  and  N_8
REMARK    2  A    between atoms: C_15  and  C_16
REMARK                            x       y       z     vdW  Elec       q    Type
REMARK                         _______ _______ _______ _____ _____    ______ ____
ROOT
ATOM      1  O   UNL     1      -6.425  10.551  20.474  0.00  0.00    +0.000 OA
ATOM      2  C   UNL     1      -6.413  11.683  20.029  0.00  0.00    +0.000 C 
ATOM      3  N   UNL     1      -7.467  12.318  19.358  0.00  0.00    +0.000 N 
ATOM      4  C   UNL     1      -7.114  13.614  18.997  0.00  0.00    +0.000 A 
ATOM      5  C   UNL     1      -7.689  14.432  18.055  0.00  0.00    +0.000 A 
ATOM      6  C   UNL     1      -7.309  15.766  18.067  0.00  0.00    +0.000 A 
ATOM      7  C   UNL     1      -6.533  16.234  19.145  0.00  0.00    +0.000 A 
ATOM      8  C   UNL     1      -5.800  15.333  19.950  0.00  0.00    +0.000 A 
ATOM      9  C   UNL     1      -5.958  13.982  19.678  0.00  0.00    +0.000 A 
ATOM     10  C   UNL     1      -5.230  12.674  19.944  0.00  0.00    +0.000 C 
ATOM     11  C   UNL     1      -4.341  12.740  21.153  0.00  0.00    +0.000 A 
ATOM     12  C   UNL     1      -4.449  13.146  22.520  0.00  0.00    +0.000 A 
ATOM     13  N   UNL     1      -3.281  12.988  23.167  0.00  0.00    +0.000 NA
ATOM     14  N   UNL     1      -2.441  12.475  22.262  0.00  0.00    +0.000 N 
ATOM     15  C   UNL     1      -3.022  12.347  21.048  0.00  0.00    +0.000 A 
ATOM     16  N   UNL     1      -2.418  11.918  19.931  0.00  0.00    +0.000 N 
ATOM     17  C   UNL     1      -3.128  11.796  18.745  0.00  0.00    +0.000 A 
ATOM     18  N   UNL     1      -2.507  11.303  17.646  0.00  0.00    +0.000 N 
ATOM     19  C   UNL     1      -3.075  11.149  16.422  0.00  0.00    +0.000 A 
ATOM     20  O   UNL     1      -2.510  10.552  15.497  0.00  0.00    +0.000 OA
ATOM     21  N   UNL     1      -4.309  11.674  16.283  0.00  0.00    +0.000 N 
ATOM     22  C   UNL     1      -5.108  11.821  17.362  0.00  0.00    +0.000 A 
ATOM     23  O   UNL     1      -6.309  11.639  17.206  0.00  0.00    +0.000 OA
ATOM     24  C   UNL     1      -4.439  12.139  18.681  0.00  0.00    +0.000 A 
ATOM     25  H   UNL     1      -8.272  11.811  19.023  0.00  0.00    +0.000 HD
ATOM     26  H   UNL     1      -1.493  12.264  22.537  0.00  0.00    +0.000 HD
ATOM     27  H   UNL     1      -1.456  11.586  19.902  0.00  0.00    +0.000 HD
ATOM     28  H   UNL     1      -1.568  10.922  17.713  0.00  0.00    +0.000 HD
ATOM     29  H   UNL     1      -4.789  11.400  15.442  0.00  0.00    +0.000 HD
ENDROOT
BRANCH  12  30
ATOM     30  C   UNL     1      -5.580  13.790  23.188  0.00  0.00    +0.000 A 
ATOM     31  C   UNL     1      -6.737  13.064  23.483  0.00  0.00    +0.000 A 
ATOM     32  C   UNL     1      -7.917  13.729  23.833  0.00  0.00    +0.000 A 
ATOM     33  C   UNL     1      -7.915  15.110  23.961  0.00  0.00    +0.000 A 
ATOM     34  C   UNL     1      -6.734  15.831  23.794  0.00  0.00    +0.000 A 
ATOM     35  C   UNL     1      -5.572  15.171  23.397  0.00  0.00    +0.000 A 
ENDBRANCH  12  30
BRANCH   7  36
ATOM     36  N   UNL     1      -6.581  17.668  19.454  0.00  0.00    +0.000 N 
ATOM     37  O   UNL     1      -6.916  17.994  20.605  0.00  0.00    +0.000 OA
ATOM     38  O   UNL     1      -6.226  18.461  18.575  0.00  0.00    +0.000 OA
ENDBRANCH   7  36
TORSDOF 2
ENDMDL
MODEL 5
REMARK VINA RESULT:      -7.1      2.927      6.020
REMARK  Name = 
REMARK  2 active torsions:
REMARK  status: ('A' for Active; 'I' for Inactive)
REMARK    1  A    between atoms: C_7  and  N_8
REMARK    2  A    between atoms: C_15  and  C_16
REMARK                            x       y       z     vdW  Elec       q    Type
REMARK                         _______ _______ _______ _____ _____    ______ ____
ROOT
ATOM      1  O   UNL     1       0.785  13.955  22.321  0.00  0.00    +0.000 OA
ATOM      2  C   UNL     1       0.342  13.349  21.365  0.00  0.00    +0.000 C 
ATOM      3  N   UNL     1       0.437  11.967  21.146  0.00  0.00    +0.000 N 
ATOM      4  C   UNL     1      -0.192  11.611  19.957  0.00  0.00    +0.000 A 
ATOM      5  C   UNL     1      -0.038  10.466  19.213  0.00  0.00    +0.000 A 
ATOM      6  C   UNL     1      -0.966  10.245  18.205  0.00  0.00    +0.000 A 
ATOM      7  C   UNL     1      -2.099  11.078  18.141  0.00  0.00    +0.000 A 
ATOM      8  C   UNL     1      -2.101  12.342  18.771  0.00  0.00    +0.000 A 
ATOM      9  C   UNL     1      -0.978  12.670  19.518  0.00  0.00    +0.000 A 
ATOM     10  C   UNL     1      -0.308  13.913  20.081  0.00  0.00    +0.000 C 
ATOM     11  C   UNL     1      -1.269  15.051  20.278  0.00  0.00    +0.000 A 
ATOM     12  C   UNL     1      -2.543  15.262  20.892  0.00  0.00    +0.000 A 
ATOM     13  N   UNL     1      -2.948  16.535  20.745  0.00  0.00    +0.000 NA
ATOM     14  N   UNL     1      -1.963  17.145  20.077  0.00  0.00    +0.000 N 
ATOM     15  C   UNL     1      -0.968  16.291  19.751  0.00  0.00    +0.000 A 
ATOM     16  N   UNL     1       0.122  16.596  19.033  0.00  0.00    +0.000 N 
ATOM     17  C   UNL     1       1.098  15.640  18.789  0.00  0.00    +0.000 A 
ATOM     18  N   UNL     1       2.218  15.990  18.111  0.00  0.00    +0.000 N 
ATOM     19  C   UNL     1       3.238  15.154  17.789  0.00  0.00    +0.000 A 
ATOM     20  O   UNL     1       4.303  15.560  17.306  0.00  0.00    +0.000 OA
ATOM     21  N   UNL     1       3.024  13.847  18.045  0.00  0.00    +0.000 N 
ATOM     22  C   UNL     1       2.159  13.481  19.017  0.00  0.00    +0.000 A 
ATOM     23  O   UNL     1       2.438  12.488  19.676  0.00  0.00    +0.000 OA
ATOM     24  C   UNL     1       0.955  14.369  19.242  0.00  0.00    +0.000 A 
ATOM     25  H   UNL     1       1.053  11.380  21.687  0.00  0.00    +0.000 HD
ATOM     26  H   UNL     1      -2.053  18.128  19.862  0.00  0.00    +0.000 HD
ATOM     27  H   UNL     1       0.338  17.535  18.705  0.00  0.00    +0.000 HD
ATOM     28  H   UNL     1       2.397  16.963  17.882  0.00  0.00    +0.000 HD
ATOM     29  H   UNL     1       3.842  13.267  17.974  0.00  0.00    +0.000 HD
ENDROOT
BRANCH  12  30
ATOM     30  C   UNL     1      -3.433  14.271  21.496  0.00  0.00    +0.000 A 
ATOM     31  C   UNL     1      -4.711  14.054  20.975  0.00  0.00    +0.000 A 
ATOM     32  C   UNL     1      -5.665  13.348  21.715  0.00  0.00    +0.000 A 
ATOM     33  C   UNL     1      -5.315  12.798  22.939  0.00  0.00    +0.000 A 
ATOM     34  C   UNL     1      -4.007  12.899  23.409  0.00  0.00    +0.000 A 
ATOM     35  C   UNL     1      -3.071  13.645  22.692  0.00  0.00    +0.000 A 
ENDBRANCH  12  30
BRANCH   7  36
ATOM     36  N   UNL     1      -3.299  10.555  17.476  0.00  0.00    +0.000 N 
ATOM     37  O   UNL     1      -3.904  11.319  16.705  0.00  0.00    +0.000 OA
ATOM     38  O   UNL     1      -3.600   9.372  17.673  0.00  0.00    +0.000 OA
ENDBRANCH   7  36
TORSDOF 2
ENDMDL
MODEL 6
REMARK VINA RESULT:      -7.1      3.947      6.983
REMARK  Name = 
REMARK  2 active torsions:
REMARK  status: ('A' for Active; 'I' for Inactive)
REMARK    1  A    between atoms: C_7  and  N_8
REMARK    2  A    between atoms: C_15  and  C_16
REMARK                            x       y       z     vdW  Elec       q    Type
REMARK                         _______ _______ _______ _____ _____    ______ ____
ROOT
ATOM      1  O   UNL     1      -1.827  11.225  22.971  0.00  0.00    +0.000 OA
ATOM      2  C   UNL     1      -1.942  12.430  22.866  0.00  0.00    +0.000 C 
ATOM      3  N   UNL     1      -1.441  13.390  23.755  0.00  0.00    +0.000 N 
ATOM      4  C   UNL     1      -1.746  14.675  23.319  0.00  0.00    +0.000 A 
ATOM      5  C   UNL     1      -1.755  15.847  24.037  0.00  0.00    +0.000 A 
ATOM      6  C   UNL     1      -1.849  17.026  23.311  0.00  0.00    +0.000 A 
ATOM      7  C   UNL     1      -1.725  16.963  21.909  0.00  0.00    +0.000 A 
ATOM      8  C   UNL     1      -1.934  15.747  21.221  0.00  0.00    +0.000 A 
ATOM      9  C   UNL     1      -2.174  14.623  21.997  0.00  0.00    +0.000 A 
ATOM     10  C   UNL     1      -2.769  13.233  21.836  0.00  0.00    +0.000 C 
ATOM     11  C   UNL     1      -2.711  12.739  20.418  0.00  0.00    +0.000 A 
ATOM     12  C   UNL     1      -1.732  12.617  19.384  0.00  0.00    +0.000 A 
ATOM     13  N   UNL     1      -2.268  12.092  18.268  0.00  0.00    +0.000 NA
ATOM     14  N   UNL     1      -3.549  11.856  18.567  0.00  0.00    +0.000 N 
ATOM     15  C   UNL     1      -3.858  12.259  19.820  0.00  0.00    +0.000 A 
ATOM     16  N   UNL     1      -5.074  12.207  20.382  0.00  0.00    +0.000 N 
ATOM     17  C   UNL     1      -5.266  12.620  21.693  0.00  0.00    +0.000 A 
ATOM     18  N   UNL     1      -6.493  12.501  22.255  0.00  0.00    +0.000 N 
ATOM     19  C   UNL     1      -6.821  12.881  23.517  0.00  0.00    +0.000 A 
ATOM     20  O   UNL     1      -7.914  12.609  24.030  0.00  0.00    +0.000 OA
ATOM     21  N   UNL     1      -5.871  13.564  24.186  0.00  0.00    +0.000 N 
ATOM     22  C   UNL     1      -4.567  13.393  23.872  0.00  0.00    +0.000 A 
ATOM     23  O   UNL     1      -3.756  13.427  24.789  0.00  0.00    +0.000 OA
ATOM     24  C   UNL     1      -4.235  13.116  22.423  0.00  0.00    +0.000 A 
ATOM     25  H   UNL     1      -1.093  13.144  24.669  0.00  0.00    +0.000 HD
ATOM     26  H   UNL     1      -4.149  11.446  17.865  0.00  0.00    +0.000 HD
ATOM     27  H   UNL     1      -5.889  11.797  19.929  0.00  0.00    +0.000 HD
ATOM     28  H   UNL     1      -7.237  12.013  21.767  0.00  0.00    +0.000 HD
ATOM     29  H   UNL     1      -6.052  13.681  25.169  0.00  0.00    +0.000 HD
ENDROOT
BRANCH  12  30
ATOM     30  C   UNL     1      -0.350  13.096  19.382  0.00  0.00    +0.000 A 
ATOM     31  C   UNL     1       0.602  12.520  20.228  0.00  0.00    +0.000 A 
ATOM     32  C   UNL     1       1.824  13.161  20.455  0.00  0.00    +0.000 A 
ATOM     33  C   UNL     1       2.120  14.335  19.777  0.00  0.00    +0.000 A 
ATOM     34  C   UNL     1       1.230  14.849  18.836  0.00  0.00    +0.000 A 
ATOM     35  C   UNL     1      -0.008  14.234  18.648  0.00  0.00    +0.000 A 
ENDBRANCH  12  30
BRANCH   7  36
ATOM     36  N   UNL     1      -1.288  18.174  21.204  0.00  0.00    +0.000 N 
ATOM     37  O   UNL     1      -0.169  18.631  21.490  0.00  0.00    +0.000 OA
ATOM     38  O   UNL     1      -2.029  18.631  20.326  0.00  0.00    +0.000 OA
ENDBRANCH   7  36
TORSDOF 2
ENDMDL
MODEL 7
REMARK VINA RESULT:      -6.9      4.265      7.871
REMARK  Name = 
REMARK  2 active torsions:
REMARK  status: ('A' for Active; 'I' for Inactive)
REMARK    1  A    between atoms: C_7  and  N_8
REMARK    2  A    between atoms: C_15  and  C_16
REMARK                            x       y       z     vdW  Elec       q    Type
REMARK                         _______ _______ _______ _____ _____    ______ ____
ROOT
ATOM      1  O   UNL     1      -5.648  13.804  23.854  0.00  0.00    +0.000 OA
ATOM      2  C   UNL     1      -4.632  13.422  23.307  0.00  0.00    +0.000 C 
ATOM      3  N   UNL     1      -3.804  12.376  23.737  0.00  0.00    +0.000 N 
ATOM      4  C   UNL     1      -2.734  12.201  22.865  0.00  0.00    +0.000 A 
ATOM      5  C   UNL     1      -1.542  11.554  23.085  0.00  0.00    +0.000 A 
ATOM      6  C   UNL     1      -0.751  11.304  21.974  0.00  0.00    +0.000 A 
ATOM      7  C   UNL     1      -1.294  11.538  20.696  0.00  0.00    +0.000 A 
ATOM      8  C   UNL     1      -2.409  12.389  20.531  0.00  0.00    +0.000 A 
ATOM      9  C   UNL     1      -2.983  12.898  21.688  0.00  0.00    +0.000 A 
ATOM     10  C   UNL     1      -3.896  14.042  22.097  0.00  0.00    +0.000 C 
ATOM     11  C   UNL     1      -4.769  14.520  20.972  0.00  0.00    +0.000 A 
ATOM     12  C   UNL     1      -5.653  13.944  20.007  0.00  0.00    +0.000 A 
ATOM     13  N   UNL     1      -6.176  14.888  19.204  0.00  0.00    +0.000 NA
ATOM     14  N   UNL     1      -5.670  16.045  19.643  0.00  0.00    +0.000 N 
ATOM     15  C   UNL     1      -4.804  15.865  20.665  0.00  0.00    +0.000 A 
ATOM     16  N   UNL     1      -4.097  16.828  21.272  0.00  0.00    +0.000 N 
ATOM     17  C   UNL     1      -3.261  16.526  22.338  0.00  0.00    +0.000 A 
ATOM     18  N   UNL     1      -2.603  17.527  22.971  0.00  0.00    +0.000 N 
ATOM     19  C   UNL     1      -1.744  17.371  24.011  0.00  0.00    +0.000 A 
ATOM     20  O   UNL     1      -1.292  18.330  24.650  0.00  0.00    +0.000 OA
ATOM     21  N   UNL     1      -1.426  16.097  24.318  0.00  0.00    +0.000 N 
ATOM     22  C   UNL     1      -2.282  15.095  24.019  0.00  0.00    +0.000 A 
ATOM     23  O   UNL     1      -2.356  14.161  24.808  0.00  0.00    +0.000 OA
ATOM     24  C   UNL     1      -3.116  15.247  22.767  0.00  0.00    +0.000 A 
ATOM     25  H   UNL     1      -3.890  11.968  24.655  0.00  0.00    +0.000 HD
ATOM     26  H   UNL     1      -5.940  16.903  19.183  0.00  0.00    +0.000 HD
ATOM     27  H   UNL     1      -4.188  17.818  21.054  0.00  0.00    +0.000 HD
ATOM     28  H   UNL     1      -2.803  18.496  22.747  0.00  0.00    +0.000 HD
ATOM     29  H   UNL     1      -0.940  15.985  25.192  0.00  0.00    +0.000 HD
ENDROOT
BRANCH  12  30
ATOM     30  C   UNL     1      -5.914  12.529  19.746  0.00  0.00    +0.000 A 
ATOM     31  C   UNL     1      -5.470  11.932  18.564  0.00  0.00    +0.000 A 
ATOM     32  C   UNL     1      -5.971  10.687  18.171  0.00  0.00    +0.000 A 
ATOM     33  C   UNL     1      -6.855  10.009  18.997  0.00  0.00    +0.000 A 
ATOM     34  C   UNL     1      -7.205  10.539  20.238  0.00  0.00    +0.000 A 
ATOM     35  C   UNL     1      -6.743  11.803  20.605  0.00  0.00    +0.000 A 
ENDBRANCH  12  30
BRANCH   7  36
ATOM     36  N   UNL     1      -0.720  10.804  19.561  0.00  0.00    +0.000 N 
ATOM     37  O   UNL     1       0.515  10.677  19.528  0.00  0.00    +0.000 OA
ATOM     38  O   UNL     1      -1.500  10.304  18.742  0.00  0.00    +0.000 OA
ENDBRANCH   7  36
TORSDOF 2
ENDMDL
MODEL 8
REMARK VINA RESULT:      -6.9      2.942      5.879
REMARK  Name = 
REMARK  2 active torsions:
REMARK  status: ('A' for Active; 'I' for Inactive)
REMARK    1  A    between atoms: C_7  and  N_8
REMARK    2  A    between atoms: C_15  and  C_16
REMARK                            x       y       z     vdW  Elec       q    Type
REMARK                         _______ _______ _______ _____ _____    ______ ____
ROOT
ATOM      1  O   UNL     1       0.167  12.778  22.188  0.00  0.00    +0.000 OA
ATOM      2  C   UNL     1      -0.283  12.421  21.116  0.00  0.00    +0.000 C 
ATOM      3  N   UNL     1      -0.395  11.098  20.667  0.00  0.00    +0.000 N 
ATOM      4  C   UNL     1      -0.966  11.053  19.399  0.00  0.00    +0.000 A 
ATOM      5  C   UNL     1      -0.936  10.034  18.478  0.00  0.00    +0.000 A 
ATOM      6  C   UNL     1      -1.794  10.144  17.394  0.00  0.00    +0.000 A 
ATOM      7  C   UNL     1      -2.767  11.163  17.408  0.00  0.00    +0.000 A 
ATOM      8  C   UNL     1      -2.619  12.289  18.247  0.00  0.00    +0.000 A 
ATOM      9  C   UNL     1      -1.528  12.291  19.104  0.00  0.00    +0.000 A 
ATOM     10  C   UNL     1      -0.717  13.289  19.914  0.00  0.00    +0.000 C 
ATOM     11  C   UNL     1      -1.493  14.532  20.248  0.00  0.00    +0.000 A 
ATOM     12  C   UNL     1      -2.764  14.861  20.813  0.00  0.00    +0.000 A 
ATOM     13  N   UNL     1      -2.942  16.193  20.865  0.00  0.00    +0.000 NA
ATOM     14  N   UNL     1      -1.817  16.720  20.373  0.00  0.00    +0.000 N 
ATOM     15  C   UNL     1      -0.949  15.768  19.963  0.00  0.00    +0.000 A 
ATOM     16  N   UNL     1       0.236  15.988  19.375  0.00  0.00    +0.000 N 
ATOM     17  C   UNL     1       1.060  14.928  19.028  0.00  0.00    +0.000 A 
ATOM     18  N   UNL     1       2.278  15.181  18.488  0.00  0.00    +0.000 N 
ATOM     19  C   UNL     1       3.173  14.242  18.088  0.00  0.00    +0.000 A 
ATOM     20  O   UNL     1       4.328  14.527  17.747  0.00  0.00    +0.000 OA
ATOM     21  N   UNL     1       2.727  12.969  18.100  0.00  0.00    +0.000 N 
ATOM     22  C   UNL     1       1.732  12.609  18.940  0.00  0.00    +0.000 A 
ATOM     23  O   UNL     1       1.785  11.489  19.432  0.00  0.00    +0.000 OA
ATOM     24  C   UNL     1       0.673  13.646  19.244  0.00  0.00    +0.000 A 
ATOM     25  H   UNL     1       0.066  10.333  21.134  0.00  0.00    +0.000 HD
ATOM     26  H   UNL     1      -1.726  17.725  20.326  0.00  0.00    +0.000 HD
ATOM     27  H   UNL     1       0.630  16.915  19.229  0.00  0.00    +0.000 HD
ATOM     28  H   UNL     1       2.632  16.131  18.443  0.00  0.00    +0.000 HD
ATOM     29  H   UNL     1       3.443  12.273  17.977  0.00  0.00    +0.000 HD
ENDROOT
BRANCH  12  30
ATOM     30  C   UNL     1      -3.854  13.957  21.181  0.00  0.00    +0.000 A 
ATOM     31  C   UNL     1      -4.990  13.849  20.375  0.00  0.00    +0.000 A 
ATOM     32  C   UNL     1      -6.147  13.237  20.864  0.00  0.00    +0.000 A 
ATOM     33  C   UNL     1      -6.141  12.668  22.129  0.00  0.00    +0.000 A 
ATOM     34  C   UNL     1      -4.974  12.658  22.891  0.00  0.00    +0.000 A 
ATOM     35  C   UNL     1      -3.836  13.312  22.420  0.00  0.00    +0.000 A 
ENDBRANCH  12  30
BRANCH   7  36
ATOM     36  N   UNL     1      -3.972  10.972  16.592  0.00  0.00    +0.000 N 
ATOM     37  O   UNL     1      -5.052  11.364  17.066  0.00  0.00    +0.000 OA
ATOM     38  O   UNL     1      -3.835  10.492  15.461  0.00  0.00    +0.000 OA
ENDBRANCH   7  36
TORSDOF 2
ENDMDL
MODEL 9
REMARK VINA RESULT:      -6.9      6.305      8.453
REMARK  Name = 
REMARK  2 active torsions:
REMARK  status: ('A' for Active; 'I' for Inactive)
REMARK    1  A    between atoms: C_7  and  N_8
REMARK    2  A    between atoms: C_15  and  C_16
REMARK                            x       y       z     vdW  Elec       q    Type
REMARK                         _______ _______ _______ _____ _____    ______ ____
ROOT
ATOM      1  O   UNL     1       8.495  17.385  19.533  0.00  0.00    +0.000 OA
ATOM      2  C   UNL     1       8.284  16.465  20.300  0.00  0.00    +0.000 C 
ATOM      3  N   UNL     1       8.799  16.335  21.597  0.00  0.00    +0.000 N 
ATOM      4  C   UNL     1       8.343  15.165  22.195  0.00  0.00    +0.000 A 
ATOM      5  C   UNL     1       8.858  14.496  23.279  0.00  0.00    +0.000 A 
ATOM      6  C   UNL     1       8.070  13.495  23.830  0.00  0.00    +0.000 A 
ATOM      7  C   UNL     1       6.739  13.367  23.386  0.00  0.00    +0.000 A 
ATOM      8  C   UNL     1       6.336  13.916  22.148  0.00  0.00    +0.000 A 
ATOM      9  C   UNL     1       7.285  14.651  21.452  0.00  0.00    +0.000 A 
ATOM     10  C   UNL     1       7.530  15.142  20.035  0.00  0.00    +0.000 C 
ATOM     11  C   UNL     1       6.265  15.256  19.233  0.00  0.00    +0.000 A 
ATOM     12  C   UNL     1       4.970  15.844  19.385  0.00  0.00    +0.000 A 
ATOM     13  N   UNL     1       4.203  15.612  18.306  0.00  0.00    +0.000 NA
ATOM     14  N   UNL     1       4.974  14.917  17.465  0.00  0.00    +0.000 N 
ATOM     15  C   UNL     1       6.191  14.656  17.993  0.00  0.00    +0.000 A 
ATOM     16  N   UNL     1       7.158  13.931  17.412  0.00  0.00    +0.000 N 
ATOM     17  C   UNL     1       8.384  13.757  18.038  0.00  0.00    +0.000 A 
ATOM     18  N   UNL     1       9.363  13.069  17.403  0.00  0.00    +0.000 N 
ATOM     19  C   UNL     1      10.598  12.811  17.906  0.00  0.00    +0.000 A 
ATOM     20  O   UNL     1      11.503  12.314  17.224  0.00  0.00    +0.000 OA
ATOM     21  N   UNL     1      10.783  13.147  19.199  0.00  0.00    +0.000 N 
ATOM     22  C   UNL     1      10.042  14.131  19.755  0.00  0.00    +0.000 A 
ATOM     23  O   UNL     1      10.589  14.855  20.577  0.00  0.00    +0.000 OA
ATOM     24  C   UNL     1       8.620  14.288  19.265  0.00  0.00    +0.000 A 
ATOM     25  H   UNL     1       9.548  16.918  21.937  0.00  0.00    +0.000 HD
ATOM     26  H   UNL     1       4.597  14.639  16.570  0.00  0.00    +0.000 HD
ATOM     27  H   UNL     1       7.088  13.546  16.473  0.00  0.00    +0.000 HD
ATOM     28  H   UNL     1       9.246  12.781  16.437  0.00  0.00    +0.000 HD
ATOM     29  H   UNL     1      11.740  13.120  19.506  0.00  0.00    +0.000 HD
ENDROOT
BRANCH  12  30
ATOM     30  C   UNL     1       4.405  16.501  20.564  0.00  0.00    +0.000 A 
ATOM     31  C   UNL     1       4.986  17.665  21.074  0.00  0.00    +0.000 A 
ATOM     32  C   UNL     1       4.651  18.118  22.354  0.00  0.00    +0.000 A 
ATOM     33  C   UNL     1       3.681  17.451  23.087  0.00  0.00    +0.000 A 
ATOM     34  C   UNL     1       3.005  16.364  22.535  0.00  0.00    +0.000 A 
ATOM     35  C   UNL     1       3.376  15.885  21.279  0.00  0.00    +0.000 A 
ENDBRANCH  12  30
BRANCH   7  36
ATOM     36  N   UNL     1       5.774  12.725  24.286  0.00  0.00    +0.000 N 
ATOM     37  O   UNL     1       5.605  11.500  24.163  0.00  0.00    +0.000 OA
ATOM     38  O   UNL     1       5.235  13.425  25.151  0.00  0.00    +0.000 OA
ENDBRANCH   7  36
TORSDOF 2
ENDMDL
