MODEL 1
REMARK VINA RESULT:      -8.4      0.000      0.000
REMARK  Name = 
REMARK  6 active torsions:
REMARK  status: ('A' for Active; 'I' for Inactive)
REMARK    1  A    between atoms: C_1  and  C_2
REMARK    2  A    between atoms: N_4  and  C_5
REMARK    3  A    between atoms: C_5  and  C_6
REMARK    4  A    between atoms: C_5  and  C_7
REMARK    5  A    between atoms: N_9  and  C_10
REMARK    6  A    between atoms: C_10  and  C_11
REMARK                            x       y       z     vdW  Elec       q    Type
REMARK                         _______ _______ _______ _____ _____    ______ ____
ROOT
ATOM      1  C   UNL     1       7.281   5.683  19.432  0.00  0.00    +0.000 C 
ATOM      2  C   UNL     1       6.181   5.015  18.651  0.00  0.00    +0.000 A 
ATOM      3  N   UNL     1       5.139   4.585  19.299  0.00  0.00    +0.000 NA
ATOM      4  N   UNL     1       4.127   3.915  18.605  0.00  0.00    +0.000 N 
ATOM      5  C   UNL     1       4.115   3.710  17.201  0.00  0.00    +0.000 A 
ATOM      6  O   UNL     1       3.205   3.130  16.611  0.00  0.00    +0.000 OA
ATOM      7  C   UNL     1       5.294   4.214  16.500  0.00  0.00    +0.000 A 
ATOM      8  C   UNL     1       6.279   4.838  17.227  0.00  0.00    +0.000 A 
ATOM      9  S   UNL     1       7.578   5.363  16.290  0.00  0.00    +0.000 S 
ATOM     10  C   UNL     1       6.872   4.752  14.846  0.00  0.00    +0.000 A 
ATOM     11  C   UNL     1       7.428   4.819  13.552  0.00  0.00    +0.000 A 
ATOM     12  C   UNL     1       6.725   4.266  12.481  0.00  0.00    +0.000 A 
ATOM     13  C   UNL     1       5.496   3.658  12.691  0.00  0.00    +0.000 A 
ATOM     14  C   UNL     1       4.946   3.595  13.979  0.00  0.00    +0.000 A 
ATOM     15  C   UNL     1       5.631   4.149  15.093  0.00  0.00    +0.000 A 
ENDROOT
BRANCH   4  16
ATOM     16  C   UNL     1       3.043   3.329  19.415  0.00  0.00    +0.000 C 
ATOM     17  C   UNL     1       3.564   2.551  20.629  0.00  0.00    +0.000 C 
BRANCH  16  18
ATOM     18  C   UNL     1       2.050   4.403  19.883  0.00  0.00    +0.000 C 
ATOM     19  O   UNL     1       0.857   4.146  20.059  0.00  0.00    +0.000 OA
ATOM     20  N   UNL     1       2.600   5.610  20.252  0.00  0.00    +0.000 N 
ATOM     21  H   UNL     1       3.578   5.783  20.037  0.00  0.00    +0.000 HD
BRANCH  20  22
ATOM     22  C   UNL     1       1.807   6.670  20.836  0.00  0.00    +0.000 C 
BRANCH  22  23
ATOM     23  C   UNL     1       1.697   7.856  19.915  0.00  0.00    +0.000 A 
ATOM     24  C   UNL     1       2.336   7.802  18.661  0.00  0.00    +0.000 A 
ATOM     25  C   UNL     1       2.278   8.881  17.777  0.00  0.00    +0.000 A 
ATOM     26  C   UNL     1       1.585  10.034  18.132  0.00  0.00    +0.000 A 
ATOM     27  C   UNL     1       0.950  10.108  19.372  0.00  0.00    +0.000 A 
ATOM     28  C   UNL     1       1.010   9.029  20.261  0.00  0.00    +0.000 A 
ATOM     29 CL   UNL     1       0.218   9.206  21.786  0.00  0.00    +0.000 Cl
ENDBRANCH  22  23
ENDBRANCH  20  22
ENDBRANCH  16  18
ENDBRANCH   4  16
TORSDOF 4
ENDMDL
MODEL 2
REMARK VINA RESULT:      -7.7      1.132      1.457
REMARK  Name = 
REMARK  6 active torsions:
REMARK  status: ('A' for Active; 'I' for Inactive)
REMARK    1  A    between atoms: C_1  and  C_2
REMARK    2  A    between atoms: N_4  and  C_5
REMARK    3  A    between atoms: C_5  and  C_6
REMARK    4  A    between atoms: C_5  and  C_7
REMARK    5  A    between atoms: N_9  and  C_10
REMARK    6  A    between atoms: C_10  and  C_11
REMARK                            x       y       z     vdW  Elec       q    Type
REMARK                         _______ _______ _______ _____ _____    ______ ____
ROOT
ATOM      1  C   UNL     1       7.019   5.515  19.427  0.00  0.00    +0.000 C 
ATOM      2  C   UNL     1       5.908   4.953  18.583  0.00  0.00    +0.000 A 
ATOM      3  N   UNL     1       4.796   4.620  19.170  0.00  0.00    +0.000 NA
ATOM      4  N   UNL     1       3.766   4.048  18.417  0.00  0.00    +0.000 N 
ATOM      5  C   UNL     1       3.812   3.846  17.014  0.00  0.00    +0.000 A 
ATOM      6  O   UNL     1       2.887   3.354  16.372  0.00  0.00    +0.000 OA
ATOM      7  C   UNL     1       5.069   4.241  16.381  0.00  0.00    +0.000 A 
ATOM      8  C   UNL     1       6.066   4.770  17.165  0.00  0.00    +0.000 A 
ATOM      9  S   UNL     1       7.458   5.173  16.303  0.00  0.00    +0.000 S 
ATOM     10  C   UNL     1       6.779   4.632  14.819  0.00  0.00    +0.000 A 
ATOM     11  C   UNL     1       7.409   4.649  13.557  0.00  0.00    +0.000 A 
ATOM     12  C   UNL     1       6.718   4.165  12.447  0.00  0.00    +0.000 A 
ATOM     13  C   UNL     1       5.428   3.674  12.585  0.00  0.00    +0.000 A 
ATOM     14  C   UNL     1       4.805   3.660  13.841  0.00  0.00    +0.000 A 
ATOM     15  C   UNL     1       5.476   4.146  14.995  0.00  0.00    +0.000 A 
ENDROOT
BRANCH   4  16
ATOM     16  C   UNL     1       2.590   3.563  19.163  0.00  0.00    +0.000 C 
ATOM     17  C   UNL     1       2.856   2.244  19.898  0.00  0.00    +0.000 C 
BRANCH  16  18
ATOM     18  C   UNL     1       2.089   4.614  20.165  0.00  0.00    +0.000 C 
ATOM     19  O   UNL     1       1.726   4.302  21.300  0.00  0.00    +0.000 OA
ATOM     20  N   UNL     1       2.231   5.928  19.778  0.00  0.00    +0.000 N 
ATOM     21  H   UNL     1       2.485   6.125  18.813  0.00  0.00    +0.000 HD
BRANCH  20  22
ATOM     22  C   UNL     1       1.925   7.028  20.666  0.00  0.00    +0.000 C 
BRANCH  22  23
ATOM     23  C   UNL     1       1.536   8.269  19.906  0.00  0.00    +0.000 A 
ATOM     24  C   UNL     1       0.596   9.147  20.478  0.00  0.00    +0.000 A 
ATOM     25  C   UNL     1       0.189  10.302  19.807  0.00  0.00    +0.000 A 
ATOM     26  C   UNL     1       0.712  10.597  18.552  0.00  0.00    +0.000 A 
ATOM     27  C   UNL     1       1.641   9.736  17.967  0.00  0.00    +0.000 A 
ATOM     28  C   UNL     1       2.046   8.576  18.637  0.00  0.00    +0.000 A 
ATOM     29 CL   UNL     1       3.182   7.549  17.836  0.00  0.00    +0.000 Cl
ENDBRANCH  22  23
ENDBRANCH  20  22
ENDBRANCH  16  18
ENDBRANCH   4  16
TORSDOF 4
ENDMDL
MODEL 3
REMARK VINA RESULT:      -7.6      5.739     10.508
REMARK  Name = 
REMARK  6 active torsions:
REMARK  status: ('A' for Active; 'I' for Inactive)
REMARK    1  A    between atoms: C_1  and  C_2
REMARK    2  A    between atoms: N_4  and  C_5
REMARK    3  A    between atoms: C_5  and  C_6
REMARK    4  A    between atoms: C_5  and  C_7
REMARK    5  A    between atoms: N_9  and  C_10
REMARK    6  A    between atoms: C_10  and  C_11
REMARK                            x       y       z     vdW  Elec       q    Type
REMARK                         _______ _______ _______ _____ _____    ______ ____
ROOT
ATOM      1  C   UNL     1      -2.625   9.816  15.979  0.00  0.00    +0.000 C 
ATOM      2  C   UNL     1      -2.366  10.502  17.293  0.00  0.00    +0.000 A 
ATOM      3  N   UNL     1      -1.188  10.380  17.830  0.00  0.00    +0.000 NA
ATOM      4  N   UNL     1      -0.937  10.964  19.076  0.00  0.00    +0.000 N 
ATOM      5  C   UNL     1      -1.872  11.749  19.798  0.00  0.00    +0.000 A 
ATOM      6  O   UNL     1      -1.622  12.265  20.886  0.00  0.00    +0.000 OA
ATOM      7  C   UNL     1      -3.182  11.877  19.164  0.00  0.00    +0.000 A 
ATOM      8  C   UNL     1      -3.394  11.260  17.955  0.00  0.00    +0.000 A 
ATOM      9  S   UNL     1      -4.950  11.487  17.346  0.00  0.00    +0.000 S 
ATOM     10  C   UNL     1      -5.420  12.425  18.708  0.00  0.00    +0.000 A 
ATOM     11  C   UNL     1      -6.687  13.004  18.926  0.00  0.00    +0.000 A 
ATOM     12  C   UNL     1      -6.909  13.734  20.094  0.00  0.00    +0.000 A 
ATOM     13  C   UNL     1      -5.893  13.888  21.026  0.00  0.00    +0.000 A 
ATOM     14  C   UNL     1      -4.634  13.313  20.804  0.00  0.00    +0.000 A 
ATOM     15  C   UNL     1      -4.370  12.564  19.626  0.00  0.00    +0.000 A 
ENDROOT
BRANCH   4  16
ATOM     16  C   UNL     1       0.369  10.671  19.694  0.00  0.00    +0.000 C 
ATOM     17  C   UNL     1       0.276   9.622  20.809  0.00  0.00    +0.000 C 
BRANCH  16  18
ATOM     18  C   UNL     1       1.396  10.214  18.647  0.00  0.00    +0.000 C 
ATOM     19  O   UNL     1       2.128  11.019  18.068  0.00  0.00    +0.000 OA
ATOM     20  N   UNL     1       1.561   8.853  18.522  0.00  0.00    +0.000 N 
ATOM     21  H   UNL     1       0.895   8.240  18.985  0.00  0.00    +0.000 HD
BRANCH  20  22
ATOM     22  C   UNL     1       2.581   8.277  17.673  0.00  0.00    +0.000 C 
BRANCH  22  23
ATOM     23  C   UNL     1       3.091   6.970  18.220  0.00  0.00    +0.000 A 
ATOM     24  C   UNL     1       2.536   6.475  19.416  0.00  0.00    +0.000 A 
ATOM     25  C   UNL     1       2.985   5.276  19.974  0.00  0.00    +0.000 A 
ATOM     26  C   UNL     1       3.997   4.553  19.348  0.00  0.00    +0.000 A 
ATOM     27  C   UNL     1       4.561   5.031  18.165  0.00  0.00    +0.000 A 
ATOM     28  C   UNL     1       4.115   6.235  17.607  0.00  0.00    +0.000 A 
ATOM     29 CL   UNL     1       4.880   6.772  16.154  0.00  0.00    +0.000 Cl
ENDBRANCH  22  23
ENDBRANCH  20  22
ENDBRANCH  16  18
ENDBRANCH   4  16
TORSDOF 4
ENDMDL
MODEL 4
REMARK VINA RESULT:      -7.3      4.967      9.528
REMARK  Name = 
REMARK  6 active torsions:
REMARK  status: ('A' for Active; 'I' for Inactive)
REMARK    1  A    between atoms: C_1  and  C_2
REMARK    2  A    between atoms: N_4  and  C_5
REMARK    3  A    between atoms: C_5  and  C_6
REMARK    4  A    between atoms: C_5  and  C_7
REMARK    5  A    between atoms: N_9  and  C_10
REMARK    6  A    between atoms: C_10  and  C_11
REMARK                            x       y       z     vdW  Elec       q    Type
REMARK                         _______ _______ _______ _____ _____    ______ ____
ROOT
ATOM      1  C   UNL     1      -0.378  12.154  22.138  0.00  0.00    +0.000 C 
ATOM      2  C   UNL     1      -0.687  11.511  20.813  0.00  0.00    +0.000 A 
ATOM      3  N   UNL     1       0.211  10.736  20.279  0.00  0.00    +0.000 NA
ATOM      4  N   UNL     1      -0.030  10.167  19.025  0.00  0.00    +0.000 N 
ATOM      5  C   UNL     1      -1.233  10.323  18.289  0.00  0.00    +0.000 A 
ATOM      6  O   UNL     1      -1.426   9.800  17.194  0.00  0.00    +0.000 OA
ATOM      7  C   UNL     1      -2.226  11.190  18.919  0.00  0.00    +0.000 A 
ATOM      8  C   UNL     1      -1.934  11.753  20.138  0.00  0.00    +0.000 A 
ATOM      9  S   UNL     1      -3.168  12.732  20.741  0.00  0.00    +0.000 S 
ATOM     10  C   UNL     1      -4.158  12.451  19.363  0.00  0.00    +0.000 A 
ATOM     11  C   UNL     1      -5.441  12.987  19.135  0.00  0.00    +0.000 A 
ATOM     12  C   UNL     1      -6.113  12.663  17.956  0.00  0.00    +0.000 A 
ATOM     13  C   UNL     1      -5.521  11.824  17.023  0.00  0.00    +0.000 A 
ATOM     14  C   UNL     1      -4.246  11.291  17.255  0.00  0.00    +0.000 A 
ATOM     15  C   UNL     1      -3.532  11.597  18.445  0.00  0.00    +0.000 A 
ENDROOT
BRANCH   4  16
ATOM     16  C   UNL     1       1.081   9.416  18.413  0.00  0.00    +0.000 C 
ATOM     17  C   UNL     1       2.176  10.330  17.849  0.00  0.00    +0.000 C 
BRANCH  16  18
ATOM     18  C   UNL     1       1.705   8.426  19.409  0.00  0.00    +0.000 C 
ATOM     19  O   UNL     1       1.458   8.483  20.616  0.00  0.00    +0.000 OA
ATOM     20  N   UNL     1       2.412   7.382  18.856  0.00  0.00    +0.000 N 
ATOM     21  H   UNL     1       2.627   7.415  17.863  0.00  0.00    +0.000 HD
BRANCH  20  22
ATOM     22  C   UNL     1       2.944   6.303  19.659  0.00  0.00    +0.000 C 
BRANCH  22  23
ATOM     23  C   UNL     1       2.290   4.987  19.331  0.00  0.00    +0.000 A 
ATOM     24  C   UNL     1       1.306   4.484  20.204  0.00  0.00    +0.000 A 
ATOM     25  C   UNL     1       0.681   3.261  19.953  0.00  0.00    +0.000 A 
ATOM     26  C   UNL     1       1.030   2.518  18.830  0.00  0.00    +0.000 A 
ATOM     27  C   UNL     1       2.006   2.999  17.957  0.00  0.00    +0.000 A 
ATOM     28  C   UNL     1       2.636   4.223  18.208  0.00  0.00    +0.000 A 
ATOM     29 CL   UNL     1       3.852   4.738  17.092  0.00  0.00    +0.000 Cl
ENDBRANCH  22  23
ENDBRANCH  20  22
ENDBRANCH  16  18
ENDBRANCH   4  16
TORSDOF 4
ENDMDL
MODEL 5
REMARK VINA RESULT:      -7.1      2.660      7.189
REMARK  Name = 
REMARK  6 active torsions:
REMARK  status: ('A' for Active; 'I' for Inactive)
REMARK    1  A    between atoms: C_1  and  C_2
REMARK    2  A    between atoms: N_4  and  C_5
REMARK    3  A    between atoms: C_5  and  C_6
REMARK    4  A    between atoms: C_5  and  C_7
REMARK    5  A    between atoms: N_9  and  C_10
REMARK    6  A    between atoms: C_10  and  C_11
REMARK                            x       y       z     vdW  Elec       q    Type
REMARK                         _______ _______ _______ _____ _____    ______ ____
ROOT
ATOM      1  C   UNL     1       3.573   7.598  16.831  0.00  0.00    +0.000 C 
ATOM      2  C   UNL     1       2.836   7.512  18.140  0.00  0.00    +0.000 A 
ATOM      3  N   UNL     1       2.874   6.389  18.796  0.00  0.00    +0.000 NA
ATOM      4  N   UNL     1       2.156   6.267  19.989  0.00  0.00    +0.000 N 
ATOM      5  C   UNL     1       1.413   7.314  20.592  0.00  0.00    +0.000 A 
ATOM      6  O   UNL     1       0.802   7.185  21.651  0.00  0.00    +0.000 OA
ATOM      7  C   UNL     1       1.399   8.566  19.838  0.00  0.00    +0.000 A 
ATOM      8  C   UNL     1       2.093   8.631  18.654  0.00  0.00    +0.000 A 
ATOM      9  S   UNL     1       1.983  10.131  17.891  0.00  0.00    +0.000 S 
ATOM     10  C   UNL     1       0.970  10.763  19.128  0.00  0.00    +0.000 A 
ATOM     11  C   UNL     1       0.425  12.063  19.178  0.00  0.00    +0.000 A 
ATOM     12  C   UNL     1      -0.387  12.418  20.255  0.00  0.00    +0.000 A 
ATOM     13  C   UNL     1      -0.654  11.501  21.262  0.00  0.00    +0.000 A 
ATOM     14  C   UNL     1      -0.109  10.211  21.209  0.00  0.00    +0.000 A 
ATOM     15  C   UNL     1       0.725   9.814  20.129  0.00  0.00    +0.000 A 
ENDROOT
BRANCH   4  16
ATOM     16  C   UNL     1       2.124   4.929  20.609  0.00  0.00    +0.000 C 
ATOM     17  C   UNL     1       0.790   4.205  20.390  0.00  0.00    +0.000 C 
BRANCH  16  18
ATOM     18  C   UNL     1       3.274   4.047  20.099  0.00  0.00    +0.000 C 
ATOM     19  O   UNL     1       3.105   2.855  19.838  0.00  0.00    +0.000 OA
ATOM     20  N   UNL     1       4.445   4.704  19.795  0.00  0.00    +0.000 N 
ATOM     21  H   UNL     1       4.545   5.675  20.079  0.00  0.00    +0.000 HD
BRANCH  20  22
ATOM     22  C   UNL     1       5.569   4.028  19.183  0.00  0.00    +0.000 C 
BRANCH  22  23
ATOM     23  C   UNL     1       5.802   4.498  17.772  0.00  0.00    +0.000 A 
ATOM     24  C   UNL     1       5.033   3.935  16.735  0.00  0.00    +0.000 A 
ATOM     25  C   UNL     1       5.222   4.324  15.407  0.00  0.00    +0.000 A 
ATOM     26  C   UNL     1       6.184   5.279  15.092  0.00  0.00    +0.000 A 
ATOM     27  C   UNL     1       6.958   5.844  16.106  0.00  0.00    +0.000 A 
ATOM     28  C   UNL     1       6.773   5.452  17.436  0.00  0.00    +0.000 A 
ATOM     29 CL   UNL     1       7.787   6.181  18.631  0.00  0.00    +0.000 Cl
ENDBRANCH  22  23
ENDBRANCH  20  22
ENDBRANCH  16  18
ENDBRANCH   4  16
TORSDOF 4
ENDMDL
MODEL 6
REMARK VINA RESULT:      -7.0      5.403      7.929
REMARK  Name = 
REMARK  6 active torsions:
REMARK  status: ('A' for Active; 'I' for Inactive)
REMARK    1  A    between atoms: C_1  and  C_2
REMARK    2  A    between atoms: N_4  and  C_5
REMARK    3  A    between atoms: C_5  and  C_6
REMARK    4  A    between atoms: C_5  and  C_7
REMARK    5  A    between atoms: N_9  and  C_10
REMARK    6  A    between atoms: C_10  and  C_11
REMARK                            x       y       z     vdW  Elec       q    Type
REMARK                         _______ _______ _______ _____ _____    ______ ____
ROOT
ATOM      1  C   UNL     1      -0.121   8.967  22.275  0.00  0.00    +0.000 C 
ATOM      2  C   UNL     1       0.490   9.263  20.932  0.00  0.00    +0.000 A 
ATOM      3  N   UNL     1       0.208  10.399  20.364  0.00  0.00    +0.000 NA
ATOM      4  N   UNL     1       0.722  10.676  19.094  0.00  0.00    +0.000 N 
ATOM      5  C   UNL     1       1.597   9.822  18.375  0.00  0.00    +0.000 A 
ATOM      6  O   UNL     1       2.047  10.096  17.264  0.00  0.00    +0.000 OA
ATOM      7  C   UNL     1       1.903   8.559  19.044  0.00  0.00    +0.000 A 
ATOM      8  C   UNL     1       1.352   8.315  20.278  0.00  0.00    +0.000 A 
ATOM      9  S   UNL     1       1.787   6.820  20.926  0.00  0.00    +0.000 S 
ATOM     10  C   UNL     1       2.738   6.423  19.550  0.00  0.00    +0.000 A 
ATOM     11  C   UNL     1       3.462   5.230  19.352  0.00  0.00    +0.000 A 
ATOM     12  C   UNL     1       4.182   5.060  18.169  0.00  0.00    +0.000 A 
ATOM     13  C   UNL     1       4.182   6.055  17.202  0.00  0.00    +0.000 A 
ATOM     14  C   UNL     1       3.463   7.241  17.404  0.00  0.00    +0.000 A 
ATOM     15  C   UNL     1       2.719   7.450  18.596  0.00  0.00    +0.000 A 
ENDROOT
BRANCH   4  16
ATOM     16  C   UNL     1       0.252  11.915  18.445  0.00  0.00    +0.000 C 
ATOM     17  C   UNL     1      -1.195  12.266  18.813  0.00  0.00    +0.000 C 
BRANCH  16  18
ATOM     18  C   UNL     1       1.166  13.104  18.779  0.00  0.00    +0.000 C 
ATOM     19  O   UNL     1       2.297  13.203  18.299  0.00  0.00    +0.000 OA
ATOM     20  N   UNL     1       0.587  14.122  19.503  0.00  0.00    +0.000 N 
ATOM     21  H   UNL     1      -0.328  13.964  19.916  0.00  0.00    +0.000 HD
BRANCH  20  22
ATOM     22  C   UNL     1       1.283  15.360  19.779  0.00  0.00    +0.000 C 
BRANCH  22  23
ATOM     23  C   UNL     1       0.991  16.409  18.739  0.00  0.00    +0.000 A 
ATOM     24  C   UNL     1      -0.346  16.796  18.523  0.00  0.00    +0.000 A 
ATOM     25  C   UNL     1      -0.670  17.752  17.559  0.00  0.00    +0.000 A 
ATOM     26  C   UNL     1       0.333  18.335  16.792  0.00  0.00    +0.000 A 
ATOM     27  C   UNL     1       1.663  17.961  16.989  0.00  0.00    +0.000 A 
ATOM     28  C   UNL     1       1.990  17.000  17.951  0.00  0.00    +0.000 A 
ATOM     29 CL   UNL     1       3.656  16.572  18.118  0.00  0.00    +0.000 Cl
ENDBRANCH  22  23
ENDBRANCH  20  22
ENDBRANCH  16  18
ENDBRANCH   4  16
TORSDOF 4
ENDMDL
MODEL 7
REMARK VINA RESULT:      -7.0      5.011     10.057
REMARK  Name = 
REMARK  6 active torsions:
REMARK  status: ('A' for Active; 'I' for Inactive)
REMARK    1  A    between atoms: C_1  and  C_2
REMARK    2  A    between atoms: N_4  and  C_5
REMARK    3  A    between atoms: C_5  and  C_6
REMARK    4  A    between atoms: C_5  and  C_7
REMARK    5  A    between atoms: N_9  and  C_10
REMARK    6  A    between atoms: C_10  and  C_11
REMARK                            x       y       z     vdW  Elec       q    Type
REMARK                         _______ _______ _______ _____ _____    ______ ____
ROOT
ATOM      1  C   UNL     1      -2.445   9.826  16.688  0.00  0.00    +0.000 C 
ATOM      2  C   UNL     1      -1.793  10.308  17.955  0.00  0.00    +0.000 A 
ATOM      3  N   UNL     1      -0.615   9.846  18.257  0.00  0.00    +0.000 NA
ATOM      4  N   UNL     1      -0.010  10.238  19.454  0.00  0.00    +0.000 N 
ATOM      5  C   UNL     1      -0.563  11.171  20.368  0.00  0.00    +0.000 A 
ATOM      6  O   UNL     1      -0.003  11.511  21.408  0.00  0.00    +0.000 OA
ATOM      7  C   UNL     1      -1.881  11.682  19.996  0.00  0.00    +0.000 A 
ATOM      8  C   UNL     1      -2.453  11.244  18.825  0.00  0.00    +0.000 A 
ATOM      9  S   UNL     1      -3.973  11.911  18.528  0.00  0.00    +0.000 S 
ATOM     10  C   UNL     1      -3.937  12.818  19.988  0.00  0.00    +0.000 A 
ATOM     11  C   UNL     1      -4.948  13.680  20.461  0.00  0.00    +0.000 A 
ATOM     12  C   UNL     1      -4.764  14.340  21.676  0.00  0.00    +0.000 A 
ATOM     13  C   UNL     1      -3.600  14.150  22.406  0.00  0.00    +0.000 A 
ATOM     14  C   UNL     1      -2.596  13.295  21.931  0.00  0.00    +0.000 A 
ATOM     15  C   UNL     1      -2.747  12.606  20.698  0.00  0.00    +0.000 A 
ENDROOT
BRANCH   4  16
ATOM     16  C   UNL     1       1.258   9.571  19.806  0.00  0.00    +0.000 C 
ATOM     17  C   UNL     1       1.104   8.578  20.964  0.00  0.00    +0.000 C 
BRANCH  16  18
ATOM     18  C   UNL     1       1.868   8.852  18.593  0.00  0.00    +0.000 C 
ATOM     19  O   UNL     1       2.129   9.454  17.550  0.00  0.00    +0.000 OA
ATOM     20  N   UNL     1       2.256   7.547  18.802  0.00  0.00    +0.000 N 
ATOM     21  H   UNL     1       1.969   7.088  19.662  0.00  0.00    +0.000 HD
BRANCH  20  22
ATOM     22  C   UNL     1       2.963   6.785  17.795  0.00  0.00    +0.000 C 
BRANCH  22  23
ATOM     23  C   UNL     1       2.937   5.309  18.092  0.00  0.00    +0.000 A 
ATOM     24  C   UNL     1       1.758   4.586  17.829  0.00  0.00    +0.000 A 
ATOM     25  C   UNL     1       1.678   3.219  18.102  0.00  0.00    +0.000 A 
ATOM     26  C   UNL     1       2.772   2.552  18.645  0.00  0.00    +0.000 A 
ATOM     27  C   UNL     1       3.947   3.254  18.916  0.00  0.00    +0.000 A 
ATOM     28  C   UNL     1       4.028   4.624  18.647  0.00  0.00    +0.000 A 
ATOM     29 CL   UNL     1       5.509   5.427  19.033  0.00  0.00    +0.000 Cl
ENDBRANCH  22  23
ENDBRANCH  20  22
ENDBRANCH  16  18
ENDBRANCH   4  16
TORSDOF 4
ENDMDL
MODEL 8
REMARK VINA RESULT:      -7.0      5.325     10.226
REMARK  Name = 
REMARK  6 active torsions:
REMARK  status: ('A' for Active; 'I' for Inactive)
REMARK    1  A    between atoms: C_1  and  C_2
REMARK    2  A    between atoms: N_4  and  C_5
REMARK    3  A    between atoms: C_5  and  C_6
REMARK    4  A    between atoms: C_5  and  C_7
REMARK    5  A    between atoms: N_9  and  C_10
REMARK    6  A    between atoms: C_10  and  C_11
REMARK                            x       y       z     vdW  Elec       q    Type
REMARK                         _______ _______ _______ _____ _____    ______ ____
ROOT
ATOM      1  C   UNL     1      -2.477   9.584  16.083  0.00  0.00    +0.000 C 
ATOM      2  C   UNL     1      -2.069  10.256  17.366  0.00  0.00    +0.000 A 
ATOM      3  N   UNL     1      -0.866  10.046  17.817  0.00  0.00    +0.000 NA
ATOM      4  N   UNL     1      -0.480  10.617  19.032  0.00  0.00    +0.000 N 
ATOM      5  C   UNL     1      -1.293  11.479  19.811  0.00  0.00    +0.000 A 
ATOM      6  O   UNL     1      -0.924  11.981  20.871  0.00  0.00    +0.000 OA
ATOM      7  C   UNL     1      -2.634  11.705  19.274  0.00  0.00    +0.000 A 
ATOM      8  C   UNL     1      -2.982  11.098  18.091  0.00  0.00    +0.000 A 
ATOM      9  S   UNL     1      -4.556  11.443  17.596  0.00  0.00    +0.000 S 
ATOM     10  C   UNL     1      -4.849  12.425  18.976  0.00  0.00    +0.000 A 
ATOM     11  C   UNL     1      -6.048  13.103  19.279  0.00  0.00    +0.000 A 
ATOM     12  C   UNL     1      -6.124  13.858  20.450  0.00  0.00    +0.000 A 
ATOM     13  C   UNL     1      -5.033  13.937  21.303  0.00  0.00    +0.000 A 
ATOM     14  C   UNL     1      -3.843  13.264  20.997  0.00  0.00    +0.000 A 
ATOM     15  C   UNL     1      -3.726  12.487  19.813  0.00  0.00    +0.000 A 
ENDROOT
BRANCH   4  16
ATOM     16  C   UNL     1       0.842  10.227  19.557  0.00  0.00    +0.000 C 
ATOM     17  C   UNL     1       0.771   9.654  20.978  0.00  0.00    +0.000 C 
BRANCH  16  18
ATOM     18  C   UNL     1       1.536   9.215  18.633  0.00  0.00    +0.000 C 
ATOM     19  O   UNL     1       1.863   9.511  17.482  0.00  0.00    +0.000 OA
ATOM     20  N   UNL     1       1.917   8.029  19.220  0.00  0.00    +0.000 N 
ATOM     21  H   UNL     1       1.576   7.819  20.154  0.00  0.00    +0.000 HD
BRANCH  20  22
ATOM     22  C   UNL     1       2.694   7.036  18.510  0.00  0.00    +0.000 C 
BRANCH  22  23
ATOM     23  C   UNL     1       2.396   5.642  18.998  0.00  0.00    +0.000 A 
ATOM     24  C   UNL     1       1.625   5.483  20.165  0.00  0.00    +0.000 A 
ATOM     25  C   UNL     1       1.335   4.213  20.667  0.00  0.00    +0.000 A 
ATOM     26  C   UNL     1       1.812   3.081  20.015  0.00  0.00    +0.000 A 
ATOM     27  C   UNL     1       2.582   3.220  18.859  0.00  0.00    +0.000 A 
ATOM     28  C   UNL     1       2.877   4.492  18.357  0.00  0.00    +0.000 A 
ATOM     29 CL   UNL     1       3.856   4.580  16.935  0.00  0.00    +0.000 Cl
ENDBRANCH  22  23
ENDBRANCH  20  22
ENDBRANCH  16  18
ENDBRANCH   4  16
TORSDOF 4
ENDMDL
MODEL 9
REMARK VINA RESULT:      -6.9      4.972     10.040
REMARK  Name = 
REMARK  6 active torsions:
REMARK  status: ('A' for Active; 'I' for Inactive)
REMARK    1  A    between atoms: C_1  and  C_2
REMARK    2  A    between atoms: N_4  and  C_5
REMARK    3  A    between atoms: C_5  and  C_6
REMARK    4  A    between atoms: C_5  and  C_7
REMARK    5  A    between atoms: N_9  and  C_10
REMARK    6  A    between atoms: C_10  and  C_11
REMARK                            x       y       z     vdW  Elec       q    Type
REMARK                         _______ _______ _______ _____ _____    ______ ____
ROOT
ATOM      1  C   UNL     1       2.874  13.755  18.559  0.00  0.00    +0.000 C 
ATOM      2  C   UNL     1       1.906  13.021  19.448  0.00  0.00    +0.000 A 
ATOM      3  N   UNL     1       1.690  11.760  19.215  0.00  0.00    +0.000 NA
ATOM      4  N   UNL     1       0.757  11.068  19.995  0.00  0.00    +0.000 N 
ATOM      5  C   UNL     1       0.049  11.629  21.088  0.00  0.00    +0.000 A 
ATOM      6  O   UNL     1      -0.756  10.995  21.767  0.00  0.00    +0.000 OA
ATOM      7  C   UNL     1       0.322  13.044  21.331  0.00  0.00    +0.000 A 
ATOM      8  C   UNL     1       1.222  13.692  20.521  0.00  0.00    +0.000 A 
ATOM      9  S   UNL     1       1.433  15.318  20.914  0.00  0.00    +0.000 S 
ATOM     10  C   UNL     1       0.295  15.226  22.200  0.00  0.00    +0.000 A 
ATOM     11  C   UNL     1      -0.090  16.282  23.051  0.00  0.00    +0.000 A 
ATOM     12  C   UNL     1      -1.036  16.041  24.047  0.00  0.00    +0.000 A 
ATOM     13  C   UNL     1      -1.588  14.777  24.196  0.00  0.00    +0.000 A 
ATOM     14  C   UNL     1      -1.201  13.730  23.349  0.00  0.00    +0.000 A 
ATOM     15  C   UNL     1      -0.239  13.937  22.324  0.00  0.00    +0.000 A 
ENDROOT
BRANCH   4  16
ATOM     16  C   UNL     1       0.454   9.683  19.591  0.00  0.00    +0.000 C 
ATOM     17  C   UNL     1       0.550   9.472  18.074  0.00  0.00    +0.000 C 
BRANCH  16  18
ATOM     18  C   UNL     1       1.369   8.677  20.305  0.00  0.00    +0.000 C 
ATOM     19  O   UNL     1       1.528   8.704  21.527  0.00  0.00    +0.000 OA
ATOM     20  N   UNL     1       1.858   7.652  19.526  0.00  0.00    +0.000 N 
ATOM     21  H   UNL     1       1.739   7.710  18.518  0.00  0.00    +0.000 HD
BRANCH  20  22
ATOM     22  C   UNL     1       2.625   6.561  20.086  0.00  0.00    +0.000 C 
BRANCH  22  23
ATOM     23  C   UNL     1       2.138   5.225  19.589  0.00  0.00    +0.000 A 
ATOM     24  C   UNL     1       1.267   4.476  20.403  0.00  0.00    +0.000 A 
ATOM     25  C   UNL     1       0.800   3.225  19.996  0.00  0.00    +0.000 A 
ATOM     26  C   UNL     1       1.199   2.699  18.771  0.00  0.00    +0.000 A 
ATOM     27  C   UNL     1       2.065   3.424  17.953  0.00  0.00    +0.000 A 
ATOM     28  C   UNL     1       2.537   4.677  18.362  0.00  0.00    +0.000 A 
ATOM     29 CL   UNL     1       3.626   5.503  17.304  0.00  0.00    +0.000 Cl
ENDBRANCH  22  23
ENDBRANCH  20  22
ENDBRANCH  16  18
ENDBRANCH   4  16
TORSDOF 4
ENDMDL
