MODEL 1
REMARK VINA RESULT:      -7.1      0.000      0.000
REMARK  Name = 
REMARK  8 active torsions:
REMARK  status: ('A' for Active; 'I' for Inactive)
REMARK    1  A    between atoms: C_1  and  C_2
REMARK    2  A    between atoms: C_5  and  S_6
REMARK    3  A    between atoms: S_6  and  N_9
REMARK    4  A    between atoms: C_13  and  C_14
REMARK    5  A    between atoms: C_14  and  C_15
REMARK    6  A    between atoms: C_15  and  C_16
REMARK    7  A    between atoms: C_15  and  C_17
REMARK    8  A    between atoms: C_15  and  C_18
REMARK                            x       y       z     vdW  Elec       q    Type
REMARK                         _______ _______ _______ _____ _____    ______ ____
ROOT
ATOM      1  N   UNL     1       5.369   5.972  16.817  0.00  0.00    +0.000 N 
ATOM      2  C   UNL     1       4.767   4.932  17.568  0.00  0.00    +0.000 A 
ATOM      3  N   UNL     1       4.083   3.984  16.973  0.00  0.00    +0.000 NA
ATOM      4  N   UNL     1       3.504   3.123  17.887  0.00  0.00    +0.000 NA
ATOM      5  C   UNL     1       3.711   3.500  19.134  0.00  0.00    +0.000 A 
ATOM      6  S   UNL     1       4.667   4.929  19.273  0.00  0.00    +0.000 S 
ATOM      7  H   UNL     1       4.930   6.002  15.895  0.00  0.00    +0.000 HD
ENDROOT
BRANCH   1   8
ATOM      8  S   UNL     1       7.000   5.645  16.493  0.00  0.00    +0.000 S 
ATOM      9  O   UNL     1       7.371   4.572  17.390  0.00  0.00    +0.000 OA
ATOM     10  O   UNL     1       7.772   6.868  16.418  0.00  0.00    +0.000 OA
BRANCH   8  15
ATOM     11  C   UNL     1       6.893   3.252  10.911  0.00  0.00    +0.000 C 
ATOM     12  C   UNL     1       6.906   3.853  12.287  0.00  0.00    +0.000 A 
ATOM     13  C   UNL     1       7.746   4.935  12.584  0.00  0.00    +0.000 A 
ATOM     14  C   UNL     1       7.756   5.488  13.864  0.00  0.00    +0.000 A 
ATOM     15  C   UNL     1       6.916   4.968  14.852  0.00  0.00    +0.000 A 
ATOM     16  C   UNL     1       6.087   3.877  14.578  0.00  0.00    +0.000 A 
ATOM     17  C   UNL     1       6.081   3.326  13.292  0.00  0.00    +0.000 A 
ENDBRANCH   8  15
ENDBRANCH   1   8
BRANCH   5  18
ATOM     18  C   UNL     1       3.090   2.841  20.333  0.00  0.00    +0.000 C 
BRANCH  18  19
ATOM     19  C   UNL     1       1.590   3.152  20.588  0.00  0.00    +0.000 C 
ATOM     20  C   UNL     1       0.691   2.501  19.523  0.00  0.00    +0.000 C 
ATOM     21  C   UNL     1       1.207   2.568  21.966  0.00  0.00    +0.000 C 
ATOM     22  C   UNL     1       1.317   4.664  20.624  0.00  0.00    +0.000 C 
ENDBRANCH  18  19
ENDBRANCH   5  18
TORSDOF 4
ENDMDL
MODEL 2
REMARK VINA RESULT:      -7.0      1.336      1.711
REMARK  Name = 
REMARK  8 active torsions:
REMARK  status: ('A' for Active; 'I' for Inactive)
REMARK    1  A    between atoms: C_1  and  C_2
REMARK    2  A    between atoms: C_5  and  S_6
REMARK    3  A    between atoms: S_6  and  N_9
REMARK    4  A    between atoms: C_13  and  C_14
REMARK    5  A    between atoms: C_14  and  C_15
REMARK    6  A    between atoms: C_15  and  C_16
REMARK    7  A    between atoms: C_15  and  C_17
REMARK    8  A    between atoms: C_15  and  C_18
REMARK                            x       y       z     vdW  Elec       q    Type
REMARK                         _______ _______ _______ _____ _____    ______ ____
ROOT
ATOM      1  N   UNL     1       6.459   4.768  17.190  0.00  0.00    +0.000 N 
ATOM      2  C   UNL     1       5.292   4.910  17.981  0.00  0.00    +0.000 A 
ATOM      3  N   UNL     1       5.333   5.535  19.133  0.00  0.00    +0.000 NA
ATOM      4  N   UNL     1       4.115   5.483  19.786  0.00  0.00    +0.000 NA
ATOM      5  C   UNL     1       3.227   4.755  19.135  0.00  0.00    +0.000 A 
ATOM      6  S   UNL     1       3.820   4.109  17.650  0.00  0.00    +0.000 S 
ATOM      7  H   UNL     1       7.275   4.933  17.783  0.00  0.00    +0.000 HD
ENDROOT
BRANCH   1   8
ATOM      8  S   UNL     1       6.557   5.972  16.001  0.00  0.00    +0.000 S 
ATOM      9  O   UNL     1       7.891   6.521  16.107  0.00  0.00    +0.000 OA
ATOM     10  O   UNL     1       5.385   6.822  16.022  0.00  0.00    +0.000 OA
BRANCH   8  15
ATOM     11  C   UNL     1       6.478   2.576  10.964  0.00  0.00    +0.000 C 
ATOM     12  C   UNL     1       6.488   3.427  12.201  0.00  0.00    +0.000 A 
ATOM     13  C   UNL     1       7.550   4.306  12.454  0.00  0.00    +0.000 A 
ATOM     14  C   UNL     1       7.556   5.092  13.606  0.00  0.00    +0.000 A 
ATOM     15  C   UNL     1       6.491   5.011  14.507  0.00  0.00    +0.000 A 
ATOM     16  C   UNL     1       5.434   4.126  14.280  0.00  0.00    +0.000 A 
ATOM     17  C   UNL     1       5.434   3.340  13.123  0.00  0.00    +0.000 A 
ENDBRANCH   8  15
ENDBRANCH   1   8
BRANCH   5  18
ATOM     18  C   UNL     1       1.866   4.405  19.667  0.00  0.00    +0.000 C 
BRANCH  18  19
ATOM     19  C   UNL     1       1.624   2.909  20.005  0.00  0.00    +0.000 C 
ATOM     20  C   UNL     1       2.926   2.094  19.922  0.00  0.00    +0.000 C 
ATOM     21  C   UNL     1       1.092   2.825  21.453  0.00  0.00    +0.000 C 
ATOM     22  C   UNL     1       0.573   2.276  19.079  0.00  0.00    +0.000 C 
ENDBRANCH  18  19
ENDBRANCH   5  18
TORSDOF 4
ENDMDL
MODEL 3
REMARK VINA RESULT:      -7.0      1.324      1.996
REMARK  Name = 
REMARK  8 active torsions:
REMARK  status: ('A' for Active; 'I' for Inactive)
REMARK    1  A    between atoms: C_1  and  C_2
REMARK    2  A    between atoms: C_5  and  S_6
REMARK    3  A    between atoms: S_6  and  N_9
REMARK    4  A    between atoms: C_13  and  C_14
REMARK    5  A    between atoms: C_14  and  C_15
REMARK    6  A    between atoms: C_15  and  C_16
REMARK    7  A    between atoms: C_15  and  C_17
REMARK    8  A    between atoms: C_15  and  C_18
REMARK                            x       y       z     vdW  Elec       q    Type
REMARK                         _______ _______ _______ _____ _____    ______ ____
ROOT
ATOM      1  N   UNL     1       6.486   4.789  17.229  0.00  0.00    +0.000 N 
ATOM      2  C   UNL     1       5.296   4.930  17.986  0.00  0.00    +0.000 A 
ATOM      3  N   UNL     1       5.298   5.577  19.126  0.00  0.00    +0.000 NA
ATOM      4  N   UNL     1       4.064   5.520  19.747  0.00  0.00    +0.000 NA
ATOM      5  C   UNL     1       3.204   4.768  19.087  0.00  0.00    +0.000 A 
ATOM      6  S   UNL     1       3.844   4.102  17.631  0.00  0.00    +0.000 S 
ATOM      7  H   UNL     1       7.283   4.976  17.841  0.00  0.00    +0.000 HD
ENDROOT
BRANCH   1   8
ATOM      8  S   UNL     1       6.601   5.971  16.020  0.00  0.00    +0.000 S 
ATOM      9  O   UNL     1       7.907   6.572  16.180  0.00  0.00    +0.000 OA
ATOM     10  O   UNL     1       5.398   6.776  15.963  0.00  0.00    +0.000 OA
BRANCH   8  15
ATOM     11  C   UNL     1       6.591   2.675  10.917  0.00  0.00    +0.000 C 
ATOM     12  C   UNL     1       6.605   3.478  12.186  0.00  0.00    +0.000 A 
ATOM     13  C   UNL     1       5.624   3.279  13.167  0.00  0.00    +0.000 A 
ATOM     14  C   UNL     1       5.639   4.030  14.341  0.00  0.00    +0.000 A 
ATOM     15  C   UNL     1       6.645   4.978  14.546  0.00  0.00    +0.000 A 
ATOM     16  C   UNL     1       7.618   5.203  13.569  0.00  0.00    +0.000 A 
ATOM     17  C   UNL     1       7.598   4.447  12.393  0.00  0.00    +0.000 A 
ENDBRANCH   8  15
ENDBRANCH   1   8
BRANCH   5  18
ATOM     18  C   UNL     1       1.833   4.410  19.588  0.00  0.00    +0.000 C 
BRANCH  18  19
ATOM     19  C   UNL     1       1.601   2.916  19.944  0.00  0.00    +0.000 C 
ATOM     20  C   UNL     1       2.904   2.105  19.856  0.00  0.00    +0.000 C 
ATOM     21  C   UNL     1       1.084   2.845  21.398  0.00  0.00    +0.000 C 
ATOM     22  C   UNL     1       0.542   2.270  19.036  0.00  0.00    +0.000 C 
ENDBRANCH  18  19
ENDBRANCH   5  18
TORSDOF 4
ENDMDL
MODEL 4
REMARK VINA RESULT:      -7.0      0.084      1.414
REMARK  Name = 
REMARK  8 active torsions:
REMARK  status: ('A' for Active; 'I' for Inactive)
REMARK    1  A    between atoms: C_1  and  C_2
REMARK    2  A    between atoms: C_5  and  S_6
REMARK    3  A    between atoms: S_6  and  N_9
REMARK    4  A    between atoms: C_13  and  C_14
REMARK    5  A    between atoms: C_14  and  C_15
REMARK    6  A    between atoms: C_15  and  C_16
REMARK    7  A    between atoms: C_15  and  C_17
REMARK    8  A    between atoms: C_15  and  C_18
REMARK                            x       y       z     vdW  Elec       q    Type
REMARK                         _______ _______ _______ _____ _____    ______ ____
ROOT
ATOM      1  N   UNL     1       5.336   5.905  16.786  0.00  0.00    +0.000 N 
ATOM      2  C   UNL     1       4.771   4.877  17.580  0.00  0.00    +0.000 A 
ATOM      3  N   UNL     1       4.153   3.863  17.025  0.00  0.00    +0.000 NA
ATOM      4  N   UNL     1       3.596   3.024  17.973  0.00  0.00    +0.000 NA
ATOM      5  C   UNL     1       3.751   3.480  19.201  0.00  0.00    +0.000 A 
ATOM      6  S   UNL     1       4.627   4.964  19.281  0.00  0.00    +0.000 S 
ATOM      7  H   UNL     1       4.920   5.861  15.854  0.00  0.00    +0.000 HD
ENDROOT
BRANCH   1   8
ATOM      8  S   UNL     1       6.990   5.649  16.518  0.00  0.00    +0.000 S 
ATOM      9  O   UNL     1       7.381   4.607  17.443  0.00  0.00    +0.000 OA
ATOM     10  O   UNL     1       7.708   6.905  16.446  0.00  0.00    +0.000 OA
BRANCH   8  15
ATOM     11  C   UNL     1       6.803   3.315  10.912  0.00  0.00    +0.000 C 
ATOM     12  C   UNL     1       6.863   3.881  12.302  0.00  0.00    +0.000 A 
ATOM     13  C   UNL     1       6.049   3.364  13.319  0.00  0.00    +0.000 A 
ATOM     14  C   UNL     1       6.107   3.896  14.607  0.00  0.00    +0.000 A 
ATOM     15  C   UNL     1       6.988   4.943  14.887  0.00  0.00    +0.000 A 
ATOM     16  C   UNL     1       7.792   5.484  13.880  0.00  0.00    +0.000 A 
ATOM     17  C   UNL     1       7.730   4.946  12.590  0.00  0.00    +0.000 A 
ENDBRANCH   8  15
ENDBRANCH   1   8
BRANCH   5  18
ATOM     18  C   UNL     1       3.135   2.856  20.421  0.00  0.00    +0.000 C 
BRANCH  18  19
ATOM     19  C   UNL     1       1.625   3.137  20.648  0.00  0.00    +0.000 C 
ATOM     20  C   UNL     1       1.141   2.566  21.992  0.00  0.00    +0.000 C 
ATOM     21  C   UNL     1       1.420   4.668  20.672  0.00  0.00    +0.000 C 
ATOM     22  C   UNL     1       0.759   2.563  19.515  0.00  0.00    +0.000 C 
ENDBRANCH  18  19
ENDBRANCH   5  18
TORSDOF 4
ENDMDL
MODEL 5
REMARK VINA RESULT:      -6.9      1.537      1.716
REMARK  Name = 
REMARK  8 active torsions:
REMARK  status: ('A' for Active; 'I' for Inactive)
REMARK    1  A    between atoms: C_1  and  C_2
REMARK    2  A    between atoms: C_5  and  S_6
REMARK    3  A    between atoms: S_6  and  N_9
REMARK    4  A    between atoms: C_13  and  C_14
REMARK    5  A    between atoms: C_14  and  C_15
REMARK    6  A    between atoms: C_15  and  C_16
REMARK    7  A    between atoms: C_15  and  C_17
REMARK    8  A    between atoms: C_15  and  C_18
REMARK                            x       y       z     vdW  Elec       q    Type
REMARK                         _______ _______ _______ _____ _____    ______ ____
ROOT
ATOM      1  N   UNL     1       7.059   4.981  17.624  0.00  0.00    +0.000 N 
ATOM      2  C   UNL     1       5.888   4.656  18.355  0.00  0.00    +0.000 A 
ATOM      3  N   UNL     1       5.650   5.208  19.520  0.00  0.00    +0.000 NA
ATOM      4  N   UNL     1       4.510   4.690  20.106  0.00  0.00    +0.000 NA
ATOM      5  C   UNL     1       3.977   3.715  19.394  0.00  0.00    +0.000 A 
ATOM      6  S   UNL     1       4.826   3.388  17.929  0.00  0.00    +0.000 S 
ATOM      7  H   UNL     1       7.732   5.407  18.263  0.00  0.00    +0.000 HD
ENDROOT
BRANCH   1   8
ATOM      8  S   UNL     1       6.760   6.183  16.468  0.00  0.00    +0.000 S 
ATOM      9  O   UNL     1       8.010   6.893  16.307  0.00  0.00    +0.000 OA
ATOM     10  O   UNL     1       5.524   6.884  16.752  0.00  0.00    +0.000 OA
BRANCH   8  15
ATOM     11  C   UNL     1       6.001   2.753  11.512  0.00  0.00    +0.000 C 
ATOM     12  C   UNL     1       6.180   3.614  12.730  0.00  0.00    +0.000 A 
ATOM     13  C   UNL     1       7.355   4.356  12.912  0.00  0.00    +0.000 A 
ATOM     14  C   UNL     1       7.517   5.152  14.046  0.00  0.00    +0.000 A 
ATOM     15  C   UNL     1       6.498   5.218  14.999  0.00  0.00    +0.000 A 
ATOM     16  C   UNL     1       5.329   4.469  14.843  0.00  0.00    +0.000 A 
ATOM     17  C   UNL     1       5.172   3.673  13.703  0.00  0.00    +0.000 A 
ENDBRANCH   8  15
ENDBRANCH   1   8
BRANCH   5  18
ATOM     18  C   UNL     1       2.817   2.874  19.844  0.00  0.00    +0.000 C 
BRANCH  18  19
ATOM     19  C   UNL     1       1.416   3.301  19.328  0.00  0.00    +0.000 C 
ATOM     20  C   UNL     1       0.525   2.081  19.038  0.00  0.00    +0.000 C 
ATOM     21  C   UNL     1       0.736   4.144  20.429  0.00  0.00    +0.000 C 
ATOM     22  C   UNL     1       1.513   4.168  18.062  0.00  0.00    +0.000 C 
ENDBRANCH  18  19
ENDBRANCH   5  18
TORSDOF 4
ENDMDL
MODEL 6
REMARK VINA RESULT:      -6.9      1.552      2.032
REMARK  Name = 
REMARK  8 active torsions:
REMARK  status: ('A' for Active; 'I' for Inactive)
REMARK    1  A    between atoms: C_1  and  C_2
REMARK    2  A    between atoms: C_5  and  S_6
REMARK    3  A    between atoms: S_6  and  N_9
REMARK    4  A    between atoms: C_13  and  C_14
REMARK    5  A    between atoms: C_14  and  C_15
REMARK    6  A    between atoms: C_15  and  C_16
REMARK    7  A    between atoms: C_15  and  C_17
REMARK    8  A    between atoms: C_15  and  C_18
REMARK                            x       y       z     vdW  Elec       q    Type
REMARK                         _______ _______ _______ _____ _____    ______ ____
ROOT
ATOM      1  N   UNL     1       7.071   5.110  17.799  0.00  0.00    +0.000 N 
ATOM      2  C   UNL     1       5.871   4.744  18.459  0.00  0.00    +0.000 A 
ATOM      3  N   UNL     1       5.525   5.315  19.587  0.00  0.00    +0.000 NA
ATOM      4  N   UNL     1       4.375   4.753  20.112  0.00  0.00    +0.000 NA
ATOM      5  C   UNL     1       3.945   3.731  19.398  0.00  0.00    +0.000 A 
ATOM      6  S   UNL     1       4.909   3.408  18.004  0.00  0.00    +0.000 S 
ATOM      7  H   UNL     1       7.675   5.591  18.467  0.00  0.00    +0.000 HD
ENDROOT
BRANCH   1   8
ATOM      8  S   UNL     1       6.789   6.261  16.587  0.00  0.00    +0.000 S 
ATOM      9  O   UNL     1       8.033   6.984  16.436  0.00  0.00    +0.000 OA
ATOM     10  O   UNL     1       5.534   6.951  16.804  0.00  0.00    +0.000 OA
BRANCH   8  15
ATOM     11  C   UNL     1       5.972   2.879  11.607  0.00  0.00    +0.000 C 
ATOM     12  C   UNL     1       6.182   3.701  12.846  0.00  0.00    +0.000 A 
ATOM     13  C   UNL     1       5.181   3.789  13.822  0.00  0.00    +0.000 A 
ATOM     14  C   UNL     1       5.380   4.556  14.969  0.00  0.00    +0.000 A 
ATOM     15  C   UNL     1       6.589   5.233  15.151  0.00  0.00    +0.000 A 
ATOM     16  C   UNL     1       7.589   5.173  14.177  0.00  0.00    +0.000 A 
ATOM     17  C   UNL     1       7.384   4.401  13.029  0.00  0.00    +0.000 A 
ENDBRANCH   8  15
ENDBRANCH   1   8
BRANCH   5  18
ATOM     18  C   UNL     1       2.802   2.840  19.796  0.00  0.00    +0.000 C 
BRANCH  18  19
ATOM     19  C   UNL     1       1.389   3.288  19.336  0.00  0.00    +0.000 C 
ATOM     20  C   UNL     1       1.452   4.108  18.036  0.00  0.00    +0.000 C 
ATOM     21  C   UNL     1       0.548   2.020  19.066  0.00  0.00    +0.000 C 
ATOM     22  C   UNL     1       0.668   4.110  20.417  0.00  0.00    +0.000 C 
ENDBRANCH  18  19
ENDBRANCH   5  18
TORSDOF 4
ENDMDL
MODEL 7
REMARK VINA RESULT:      -6.5      0.729      1.115
REMARK  Name = 
REMARK  8 active torsions:
REMARK  status: ('A' for Active; 'I' for Inactive)
REMARK    1  A    between atoms: C_1  and  C_2
REMARK    2  A    between atoms: C_5  and  S_6
REMARK    3  A    between atoms: S_6  and  N_9
REMARK    4  A    between atoms: C_13  and  C_14
REMARK    5  A    between atoms: C_14  and  C_15
REMARK    6  A    between atoms: C_15  and  C_16
REMARK    7  A    between atoms: C_15  and  C_17
REMARK    8  A    between atoms: C_15  and  C_18
REMARK                            x       y       z     vdW  Elec       q    Type
REMARK                         _______ _______ _______ _____ _____    ______ ____
ROOT
ATOM      1  N   UNL     1       5.229   6.532  16.690  0.00  0.00    +0.000 N 
ATOM      2  C   UNL     1       4.332   5.734  17.443  0.00  0.00    +0.000 A 
ATOM      3  N   UNL     1       3.526   4.887  16.849  0.00  0.00    +0.000 NA
ATOM      4  N   UNL     1       2.672   4.278  17.750  0.00  0.00    +0.000 NA
ATOM      5  C   UNL     1       2.816   4.746  18.975  0.00  0.00    +0.000 A 
ATOM      6  S   UNL     1       4.042   5.951  19.113  0.00  0.00    +0.000 S 
ATOM      7  H   UNL     1       4.914   6.545  15.719  0.00  0.00    +0.000 HD
ENDROOT
BRANCH   1   8
ATOM      8  S   UNL     1       6.773   5.837  16.620  0.00  0.00    +0.000 S 
ATOM      9  O   UNL     1       6.776   4.784  17.613  0.00  0.00    +0.000 OA
ATOM     10  O   UNL     1       7.803   6.855  16.596  0.00  0.00    +0.000 OA
BRANCH   8  15
ATOM     11  C   UNL     1       6.878   3.121  11.187  0.00  0.00    +0.000 C 
ATOM     12  C   UNL     1       6.839   3.802  12.525  0.00  0.00    +0.000 A 
ATOM     13  C   UNL     1       7.664   4.904  12.789  0.00  0.00    +0.000 A 
ATOM     14  C   UNL     1       7.625   5.531  14.034  0.00  0.00    +0.000 A 
ATOM     15  C   UNL     1       6.751   5.064  15.020  0.00  0.00    +0.000 A 
ATOM     16  C   UNL     1       5.937   3.955  14.779  0.00  0.00    +0.000 A 
ATOM     17  C   UNL     1       5.980   3.330  13.529  0.00  0.00    +0.000 A 
ENDBRANCH   8  15
ENDBRANCH   1   8
BRANCH   5  18
ATOM     18  C   UNL     1       1.934   4.376  20.133  0.00  0.00    +0.000 C 
BRANCH  18  19
ATOM     19  C   UNL     1       1.954   2.884  20.562  0.00  0.00    +0.000 C 
ATOM     20  C   UNL     1       1.244   1.990  19.531  0.00  0.00    +0.000 C 
ATOM     21  C   UNL     1       3.428   2.433  20.659  0.00  0.00    +0.000 C 
ATOM     22  C   UNL     1       1.306   2.676  21.941  0.00  0.00    +0.000 C 
ENDBRANCH  18  19
ENDBRANCH   5  18
TORSDOF 4
ENDMDL
MODEL 8
REMARK VINA RESULT:      -6.5      3.907      5.005
REMARK  Name = 
REMARK  8 active torsions:
REMARK  status: ('A' for Active; 'I' for Inactive)
REMARK    1  A    between atoms: C_1  and  C_2
REMARK    2  A    between atoms: C_5  and  S_6
REMARK    3  A    between atoms: S_6  and  N_9
REMARK    4  A    between atoms: C_13  and  C_14
REMARK    5  A    between atoms: C_14  and  C_15
REMARK    6  A    between atoms: C_15  and  C_16
REMARK    7  A    between atoms: C_15  and  C_17
REMARK    8  A    between atoms: C_15  and  C_18
REMARK                            x       y       z     vdW  Elec       q    Type
REMARK                         _______ _______ _______ _____ _____    ______ ____
ROOT
ATOM      1  N   UNL     1       2.915   4.902  18.630  0.00  0.00    +0.000 N 
ATOM      2  C   UNL     1       2.593   6.254  18.909  0.00  0.00    +0.000 A 
ATOM      3  N   UNL     1       2.037   6.590  20.048  0.00  0.00    +0.000 NA
ATOM      4  N   UNL     1       1.721   7.936  20.084  0.00  0.00    +0.000 NA
ATOM      5  C   UNL     1       1.981   8.544  18.942  0.00  0.00    +0.000 A 
ATOM      6  S   UNL     1       2.669   7.505  17.749  0.00  0.00    +0.000 S 
ATOM      7  H   UNL     1       2.386   4.304  19.269  0.00  0.00    +0.000 HD
ENDROOT
BRANCH   1   8
ATOM      8  S   UNL     1       4.537   4.561  18.985  0.00  0.00    +0.000 S 
ATOM      9  O   UNL     1       4.565   3.175  19.401  0.00  0.00    +0.000 OA
ATOM     10  O   UNL     1       5.124   5.607  19.797  0.00  0.00    +0.000 OA
BRANCH   8  15
ATOM     11  C   UNL     1       7.227   4.731  13.541  0.00  0.00    +0.000 C 
ATOM     12  C   UNL     1       6.554   4.704  14.883  0.00  0.00    +0.000 A 
ATOM     13  C   UNL     1       7.211   5.193  16.020  0.00  0.00    +0.000 A 
ATOM     14  C   UNL     1       6.582   5.163  17.264  0.00  0.00    +0.000 A 
ATOM     15  C   UNL     1       5.286   4.652  17.376  0.00  0.00    +0.000 A 
ATOM     16  C   UNL     1       4.626   4.142  16.256  0.00  0.00    +0.000 A 
ATOM     17  C   UNL     1       5.261   4.175  15.010  0.00  0.00    +0.000 A 
ENDBRANCH   8  15
ENDBRANCH   1   8
BRANCH   5  18
ATOM     18  C   UNL     1       1.616   9.969  18.638  0.00  0.00    +0.000 C 
BRANCH  18  19
ATOM     19  C   UNL     1       0.132  10.363  18.872  0.00  0.00    +0.000 C 
ATOM     20  C   UNL     1      -0.369   9.885  20.245  0.00  0.00    +0.000 C 
ATOM     21  C   UNL     1       0.034  11.904  18.832  0.00  0.00    +0.000 C 
ATOM     22  C   UNL     1      -0.788   9.803  17.776  0.00  0.00    +0.000 C 
ENDBRANCH  18  19
ENDBRANCH   5  18
TORSDOF 4
ENDMDL
MODEL 9
REMARK VINA RESULT:      -6.5      1.531      2.055
REMARK  Name = 
REMARK  8 active torsions:
REMARK  status: ('A' for Active; 'I' for Inactive)
REMARK    1  A    between atoms: C_1  and  C_2
REMARK    2  A    between atoms: C_5  and  S_6
REMARK    3  A    between atoms: S_6  and  N_9
REMARK    4  A    between atoms: C_13  and  C_14
REMARK    5  A    between atoms: C_14  and  C_15
REMARK    6  A    between atoms: C_15  and  C_16
REMARK    7  A    between atoms: C_15  and  C_17
REMARK    8  A    between atoms: C_15  and  C_18
REMARK                            x       y       z     vdW  Elec       q    Type
REMARK                         _______ _______ _______ _____ _____    ______ ____
ROOT
ATOM      1  N   UNL     1       7.074   4.597  17.193  0.00  0.00    +0.000 N 
ATOM      2  C   UNL     1       6.015   4.452  18.124  0.00  0.00    +0.000 A 
ATOM      3  N   UNL     1       6.051   5.067  19.281  0.00  0.00    +0.000 NA
ATOM      4  N   UNL     1       4.974   4.722  20.076  0.00  0.00    +0.000 NA
ATOM      5  C   UNL     1       4.210   3.803  19.516  0.00  0.00    +0.000 A 
ATOM      6  S   UNL     1       4.748   3.320  17.950  0.00  0.00    +0.000 S 
ATOM      7  H   UNL     1       7.894   4.952  17.687  0.00  0.00    +0.000 HD
ENDROOT
BRANCH   1   8
ATOM      8  S   UNL     1       6.731   5.790  16.039  0.00  0.00    +0.000 S 
ATOM      9  O   UNL     1       7.966   6.519  15.849  0.00  0.00    +0.000 OA
ATOM     10  O   UNL     1       5.490   6.471  16.347  0.00  0.00    +0.000 OA
BRANCH   8  15
ATOM     11  C   UNL     1       5.652   2.590  10.989  0.00  0.00    +0.000 C 
ATOM     12  C   UNL     1       5.927   3.367  12.245  0.00  0.00    +0.000 A 
ATOM     13  C   UNL     1       4.971   3.432  13.267  0.00  0.00    +0.000 A 
ATOM     14  C   UNL     1       5.231   4.157  14.430  0.00  0.00    +0.000 A 
ATOM     15  C   UNL     1       6.455   4.815  14.579  0.00  0.00    +0.000 A 
ATOM     16  C   UNL     1       7.410   4.777  13.561  0.00  0.00    +0.000 A 
ATOM     17  C   UNL     1       7.144   4.048  12.397  0.00  0.00    +0.000 A 
ENDBRANCH   8  15
ENDBRANCH   1   8
BRANCH   5  18
ATOM     18  C   UNL     1       3.050   3.135  20.198  0.00  0.00    +0.000 C 
BRANCH  18  19
ATOM     19  C   UNL     1       1.648   3.741  19.922  0.00  0.00    +0.000 C 
ATOM     20  C   UNL     1       0.531   2.885  20.541  0.00  0.00    +0.000 C 
ATOM     21  C   UNL     1       1.597   5.144  20.568  0.00  0.00    +0.000 C 
ATOM     22  C   UNL     1       1.382   3.906  18.416  0.00  0.00    +0.000 C 
ENDBRANCH  18  19
ENDBRANCH   5  18
TORSDOF 4
ENDMDL
