MODEL 1
REMARK VINA RESULT:      -8.5      0.000      0.000
REMARK  Name = 
REMARK  3 active torsions:
REMARK  status: ('A' for Active; 'I' for Inactive)
REMARK    1  A    between atoms: C_1  and  C_2
REMARK    2  A    between atoms: C_4  and  C_5
REMARK    3  A    between atoms: C_9  and  N_10
REMARK                            x       y       z     vdW  Elec       q    Type
REMARK                         _______ _______ _______ _____ _____    ______ ____
ROOT
ATOM      1  C   UNL     1       1.911  10.876  17.695  0.00  0.00    +0.000 C 
ATOM      2  C   UNL     1       1.935   9.579  18.455  0.00  0.00    +0.000 A 
ATOM      3  C   UNL     1       2.634   8.535  17.825  0.00  0.00    +0.000 A 
ATOM      4  C   UNL     1       2.751   7.304  18.440  0.00  0.00    +0.000 A 
ATOM      5  N   UNL     1       2.171   7.070  19.633  0.00  0.00    +0.000 NA
ATOM      6  C   UNL     1       1.498   8.057  20.249  0.00  0.00    +0.000 A 
ATOM      7  C   UNL     1       0.970   7.712  21.476  0.00  0.00    +0.000 A 
ATOM      8  C   UNL     1       0.251   8.612  22.253  0.00  0.00    +0.000 A 
ATOM      9  C   UNL     1       0.038   9.913  21.810  0.00  0.00    +0.000 A 
ATOM     10  C   UNL     1      -0.698  10.785  22.633  0.00  0.00    +0.000 A 
ATOM     11  C   UNL     1      -0.949  12.097  22.253  0.00  0.00    +0.000 A 
ATOM     12  C   UNL     1      -0.460  12.547  21.042  0.00  0.00    +0.000 A 
ATOM     13  C   UNL     1       0.276  11.683  20.221  0.00  0.00    +0.000 A 
ATOM     14  C   UNL     1       0.560  10.330  20.557  0.00  0.00    +0.000 A 
ATOM     15  C   UNL     1       1.321   9.372  19.739  0.00  0.00    +0.000 A 
ENDROOT
BRANCH   4  16
ATOM     16  C   UNL     1       3.542   6.198  17.867  0.00  0.00    +0.000 A 
ATOM     17  C   UNL     1       2.985   4.918  17.690  0.00  0.00    +0.000 A 
ATOM     18  C   UNL     1       3.739   3.853  17.180  0.00  0.00    +0.000 A 
ATOM     19  C   UNL     1       5.077   4.041  16.844  0.00  0.00    +0.000 A 
ATOM     20  C   UNL     1       5.651   5.305  17.013  0.00  0.00    +0.000 A 
ATOM     21  C   UNL     1       4.892   6.375  17.510  0.00  0.00    +0.000 A 
BRANCH  20  22
ATOM     22  N   UNL     1       7.068   5.513  16.692  0.00  0.00    +0.000 N 
ATOM     23  O   UNL     1       7.456   6.677  16.520  0.00  0.00    +0.000 OA
ATOM     24  O   UNL     1       7.794   4.512  16.611  0.00  0.00    +0.000 OA
ENDBRANCH  20  22
ENDBRANCH   4  16
TORSDOF 2
ENDMDL
MODEL 2
REMARK VINA RESULT:      -8.2      2.104      2.508
REMARK  Name = 
REMARK  3 active torsions:
REMARK  status: ('A' for Active; 'I' for Inactive)
REMARK    1  A    between atoms: C_1  and  C_2
REMARK    2  A    between atoms: C_4  and  C_5
REMARK    3  A    between atoms: C_9  and  N_10
REMARK                            x       y       z     vdW  Elec       q    Type
REMARK                         _______ _______ _______ _____ _____    ______ ____
ROOT
ATOM      1  C   UNL     1      -0.497  10.869  17.744  0.00  0.00    +0.000 C 
ATOM      2  C   UNL     1       0.225   9.923  18.664  0.00  0.00    +0.000 A 
ATOM      3  C   UNL     1       1.063   8.994  18.022  0.00  0.00    +0.000 A 
ATOM      4  C   UNL     1       1.801   8.094  18.764  0.00  0.00    +0.000 A 
ATOM      5  N   UNL     1       1.707   8.063  20.106  0.00  0.00    +0.000 NA
ATOM      6  C   UNL     1       0.910   8.943  20.736  0.00  0.00    +0.000 A 
ATOM      7  C   UNL     1       0.912   8.837  22.112  0.00  0.00    +0.000 A 
ATOM      8  C   UNL     1       0.152   9.672  22.921  0.00  0.00    +0.000 A 
ATOM      9  C   UNL     1      -0.650  10.659  22.359  0.00  0.00    +0.000 A 
ATOM     10  C   UNL     1      -1.403  11.478  23.222  0.00  0.00    +0.000 A 
ATOM     11  C   UNL     1      -2.226  12.482  22.729  0.00  0.00    +0.000 A 
ATOM     12  C   UNL     1      -2.299  12.676  21.363  0.00  0.00    +0.000 A 
ATOM     13  C   UNL     1      -1.549  11.866  20.501  0.00  0.00    +0.000 A 
ATOM     14  C   UNL     1      -0.694  10.821  20.949  0.00  0.00    +0.000 A 
ATOM     15  C   UNL     1       0.115   9.934  20.097  0.00  0.00    +0.000 A 
ENDROOT
BRANCH   4  16
ATOM     16  C   UNL     1       2.760   7.154  18.151  0.00  0.00    +0.000 A 
ATOM     17  C   UNL     1       3.934   7.614  17.525  0.00  0.00    +0.000 A 
ATOM     18  C   UNL     1       4.831   6.733  16.909  0.00  0.00    +0.000 A 
ATOM     19  C   UNL     1       4.570   5.365  16.895  0.00  0.00    +0.000 A 
ATOM     20  C   UNL     1       3.409   4.887  17.510  0.00  0.00    +0.000 A 
ATOM     21  C   UNL     1       2.518   5.767  18.140  0.00  0.00    +0.000 A 
BRANCH  20  22
ATOM     22  N   UNL     1       3.104   3.452  17.479  0.00  0.00    +0.000 N 
ATOM     23  O   UNL     1       1.919   3.116  17.343  0.00  0.00    +0.000 OA
ATOM     24  O   UNL     1       4.050   2.659  17.592  0.00  0.00    +0.000 OA
ENDBRANCH  20  22
ENDBRANCH   4  16
TORSDOF 2
ENDMDL
MODEL 3
REMARK VINA RESULT:      -8.2      2.963      3.451
REMARK  Name = 
REMARK  3 active torsions:
REMARK  status: ('A' for Active; 'I' for Inactive)
REMARK    1  A    between atoms: C_1  and  C_2
REMARK    2  A    between atoms: C_4  and  C_5
REMARK    3  A    between atoms: C_9  and  N_10
REMARK                            x       y       z     vdW  Elec       q    Type
REMARK                         _______ _______ _______ _____ _____    ______ ____
ROOT
ATOM      1  C   UNL     1       1.582  10.678  18.170  0.00  0.00    +0.000 C 
ATOM      2  C   UNL     1       1.360   9.679  19.271  0.00  0.00    +0.000 A 
ATOM      3  C   UNL     1       1.877   8.395  19.020  0.00  0.00    +0.000 A 
ATOM      4  C   UNL     1       1.762   7.401  19.971  0.00  0.00    +0.000 A 
ATOM      5  N   UNL     1       1.124   7.627  21.134  0.00  0.00    +0.000 NA
ATOM      6  C   UNL     1       0.622   8.847  21.389  0.00  0.00    +0.000 A 
ATOM      7  C   UNL     1       0.013   8.972  22.622  0.00  0.00    +0.000 A 
ATOM      8  C   UNL     1      -0.552  10.165  23.052  0.00  0.00    +0.000 A 
ATOM      9  C   UNL     1      -0.522  11.293  22.239  0.00  0.00    +0.000 A 
ATOM     10  C   UNL     1      -1.112  12.477  22.720  0.00  0.00    +0.000 A 
ATOM     11  C   UNL     1      -1.119  13.640  21.961  0.00  0.00    +0.000 A 
ATOM     12  C   UNL     1      -0.531  13.626  20.711  0.00  0.00    +0.000 A 
ATOM     13  C   UNL     1       0.059  12.450  20.229  0.00  0.00    +0.000 A 
ATOM     14  C   UNL     1       0.092  11.230  20.960  0.00  0.00    +0.000 A 
ATOM     15  C   UNL     1       0.691   9.963  20.511  0.00  0.00    +0.000 A 
ENDROOT
BRANCH   4  16
ATOM     16  C   UNL     1       2.359   6.061  19.799  0.00  0.00    +0.000 A 
ATOM     17  C   UNL     1       3.106   5.738  18.651  0.00  0.00    +0.000 A 
ATOM     18  C   UNL     1       3.645   4.459  18.462  0.00  0.00    +0.000 A 
ATOM     19  C   UNL     1       3.439   3.465  19.416  0.00  0.00    +0.000 A 
ATOM     20  C   UNL     1       2.699   3.765  20.563  0.00  0.00    +0.000 A 
ATOM     21  C   UNL     1       2.172   5.050  20.760  0.00  0.00    +0.000 A 
BRANCH  20  22
ATOM     22  N   UNL     1       2.448   2.722  21.565  0.00  0.00    +0.000 N 
ATOM     23  O   UNL     1       1.293   2.599  21.994  0.00  0.00    +0.000 OA
ATOM     24  O   UNL     1       3.408   2.025  21.923  0.00  0.00    +0.000 OA
ENDBRANCH  20  22
ENDBRANCH   4  16
TORSDOF 2
ENDMDL
MODEL 4
REMARK VINA RESULT:      -8.1      3.794      8.037
REMARK  Name = 
REMARK  3 active torsions:
REMARK  status: ('A' for Active; 'I' for Inactive)
REMARK    1  A    between atoms: C_1  and  C_2
REMARK    2  A    between atoms: C_4  and  C_5
REMARK    3  A    between atoms: C_9  and  N_10
REMARK                            x       y       z     vdW  Elec       q    Type
REMARK                         _______ _______ _______ _____ _____    ______ ____
ROOT
ATOM      1  C   UNL     1       1.602   4.364  20.912  0.00  0.00    +0.000 C 
ATOM      2  C   UNL     1       1.760   5.746  20.343  0.00  0.00    +0.000 A 
ATOM      3  C   UNL     1       1.073   6.756  21.038  0.00  0.00    +0.000 A 
ATOM      4  C   UNL     1       1.166   8.072  20.628  0.00  0.00    +0.000 A 
ATOM      5  N   UNL     1       1.884   8.407  19.539  0.00  0.00    +0.000 NA
ATOM      6  C   UNL     1       2.545   7.453  18.862  0.00  0.00    +0.000 A 
ATOM      7  C   UNL     1       3.268   7.914  17.780  0.00  0.00    +0.000 A 
ATOM      8  C   UNL     1       4.018   7.068  16.974  0.00  0.00    +0.000 A 
ATOM      9  C   UNL     1       4.064   5.702  17.236  0.00  0.00    +0.000 A 
ATOM     10  C   UNL     1       4.835   4.886  16.387  0.00  0.00    +0.000 A 
ATOM     11  C   UNL     1       4.925   3.515  16.590  0.00  0.00    +0.000 A 
ATOM     12  C   UNL     1       4.242   2.950  17.650  0.00  0.00    +0.000 A 
ATOM     13  C   UNL     1       3.475   3.759  18.498  0.00  0.00    +0.000 A 
ATOM     14  C   UNL     1       3.344   5.166  18.337  0.00  0.00    +0.000 A 
ATOM     15  C   UNL     1       2.553   6.069  19.188  0.00  0.00    +0.000 A 
ENDROOT
BRANCH   4  16
ATOM     16  C   UNL     1       0.537   9.184  21.368  0.00  0.00    +0.000 A 
ATOM     17  C   UNL     1      -0.277   8.944  22.490  0.00  0.00    +0.000 A 
ATOM     18  C   UNL     1      -0.908   9.990  23.176  0.00  0.00    +0.000 A 
ATOM     19  C   UNL     1      -0.747  11.305  22.747  0.00  0.00    +0.000 A 
ATOM     20  C   UNL     1       0.057  11.565  21.633  0.00  0.00    +0.000 A 
ATOM     21  C   UNL     1       0.700  10.519  20.955  0.00  0.00    +0.000 A 
BRANCH  20  22
ATOM     22  N   UNL     1       0.213  12.942  21.150  0.00  0.00    +0.000 N 
ATOM     23  O   UNL     1      -0.565  13.338  20.272  0.00  0.00    +0.000 OA
ATOM     24  O   UNL     1       1.117  13.628  21.649  0.00  0.00    +0.000 OA
ENDBRANCH  20  22
ENDBRANCH   4  16
TORSDOF 2
ENDMDL
MODEL 5
REMARK VINA RESULT:      -8.1      2.183      2.522
REMARK  Name = 
REMARK  3 active torsions:
REMARK  status: ('A' for Active; 'I' for Inactive)
REMARK    1  A    between atoms: C_1  and  C_2
REMARK    2  A    between atoms: C_4  and  C_5
REMARK    3  A    between atoms: C_9  and  N_10
REMARK                            x       y       z     vdW  Elec       q    Type
REMARK                         _______ _______ _______ _____ _____    ______ ____
ROOT
ATOM      1  C   UNL     1       1.131  10.799  17.861  0.00  0.00    +0.000 C 
ATOM      2  C   UNL     1       1.289   9.693  18.866  0.00  0.00    +0.000 A 
ATOM      3  C   UNL     1       2.012   8.576  18.412  0.00  0.00    +0.000 A 
ATOM      4  C   UNL     1       2.249   7.509  19.255  0.00  0.00    +0.000 A 
ATOM      5  N   UNL     1       1.764   7.500  20.511  0.00  0.00    +0.000 NA
ATOM      6  C   UNL     1       1.069   8.558  20.961  0.00  0.00    +0.000 A 
ATOM      7  C   UNL     1       0.644   8.451  22.270  0.00  0.00    +0.000 A 
ATOM      8  C   UNL     1      -0.080   9.455  22.900  0.00  0.00    +0.000 A 
ATOM      9  C   UNL     1      -0.406  10.623  22.218  0.00  0.00    +0.000 A 
ATOM     10  C   UNL     1      -1.143  11.609  22.898  0.00  0.00    +0.000 A 
ATOM     11  C   UNL     1      -1.504  12.798  22.278  0.00  0.00    +0.000 A 
ATOM     12  C   UNL     1      -1.124  13.010  20.967  0.00  0.00    +0.000 A 
ATOM     13  C   UNL     1      -0.388  12.031  20.286  0.00  0.00    +0.000 A 
ATOM     14  C   UNL     1       0.005  10.795  20.869  0.00  0.00    +0.000 A 
ATOM     15  C   UNL     1       0.773   9.728  20.208  0.00  0.00    +0.000 A 
ENDROOT
BRANCH   4  16
ATOM     16  C   UNL     1       3.073   6.350  18.861  0.00  0.00    +0.000 A 
ATOM     17  C   UNL     1       3.802   6.349  17.657  0.00  0.00    +0.000 A 
ATOM     18  C   UNL     1       4.558   5.240  17.257  0.00  0.00    +0.000 A 
ATOM     19  C   UNL     1       4.593   4.095  18.050  0.00  0.00    +0.000 A 
ATOM     20  C   UNL     1       3.875   4.074  19.248  0.00  0.00    +0.000 A 
ATOM     21  C   UNL     1       3.130   5.190  19.657  0.00  0.00    +0.000 A 
BRANCH  20  22
ATOM     22  N   UNL     1       3.877   2.865  20.081  0.00  0.00    +0.000 N 
ATOM     23  O   UNL     1       4.938   2.235  20.182  0.00  0.00    +0.000 OA
ATOM     24  O   UNL     1       2.815   2.545  20.635  0.00  0.00    +0.000 OA
ENDBRANCH  20  22
ENDBRANCH   4  16
TORSDOF 2
ENDMDL
MODEL 6
REMARK VINA RESULT:      -8.1      3.873      7.777
REMARK  Name = 
REMARK  3 active torsions:
REMARK  status: ('A' for Active; 'I' for Inactive)
REMARK    1  A    between atoms: C_1  and  C_2
REMARK    2  A    between atoms: C_4  and  C_5
REMARK    3  A    between atoms: C_9  and  N_10
REMARK                            x       y       z     vdW  Elec       q    Type
REMARK                         _______ _______ _______ _____ _____    ______ ____
ROOT
ATOM      1  C   UNL     1       3.310   7.481  17.429  0.00  0.00    +0.000 C 
ATOM      2  C   UNL     1       2.597   7.153  18.711  0.00  0.00    +0.000 A 
ATOM      3  C   UNL     1       2.059   8.260  19.390  0.00  0.00    +0.000 A 
ATOM      4  C   UNL     1       1.354   8.082  20.564  0.00  0.00    +0.000 A 
ATOM      5  N   UNL     1       1.200   6.855  21.099  0.00  0.00    +0.000 NA
ATOM      6  C   UNL     1       1.710   5.786  20.463  0.00  0.00    +0.000 A 
ATOM      7  C   UNL     1       1.469   4.579  21.087  0.00  0.00    +0.000 A 
ATOM      8  C   UNL     1       1.916   3.372  20.565  0.00  0.00    +0.000 A 
ATOM      9  C   UNL     1       2.635   3.342  19.374  0.00  0.00    +0.000 A 
ATOM     10  C   UNL     1       3.068   2.095  18.888  0.00  0.00    +0.000 A 
ATOM     11  C   UNL     1       3.791   1.992  17.706  0.00  0.00    +0.000 A 
ATOM     12  C   UNL     1       4.083   3.141  16.999  0.00  0.00    +0.000 A 
ATOM     13  C   UNL     1       3.651   4.385  17.478  0.00  0.00    +0.000 A 
ATOM     14  C   UNL     1       2.913   4.551  18.682  0.00  0.00    +0.000 A 
ATOM     15  C   UNL     1       2.435   5.826  19.240  0.00  0.00    +0.000 A 
ENDROOT
BRANCH   4  16
ATOM     16  C   UNL     1       0.695   9.195  21.275  0.00  0.00    +0.000 A 
ATOM     17  C   UNL     1      -0.153   8.958  22.373  0.00  0.00    +0.000 A 
ATOM     18  C   UNL     1      -0.811  10.004  23.032  0.00  0.00    +0.000 A 
ATOM     19  C   UNL     1      -0.645  11.317  22.598  0.00  0.00    +0.000 A 
ATOM     20  C   UNL     1       0.191  11.574  21.509  0.00  0.00    +0.000 A 
ATOM     21  C   UNL     1       0.862  10.529  20.859  0.00  0.00    +0.000 A 
BRANCH  20  22
ATOM     22  N   UNL     1       0.354  12.949  21.020  0.00  0.00    +0.000 N 
ATOM     23  O   UNL     1       1.222  13.653  21.555  0.00  0.00    +0.000 OA
ATOM     24  O   UNL     1      -0.387  13.325  20.100  0.00  0.00    +0.000 OA
ENDBRANCH  20  22
ENDBRANCH   4  16
TORSDOF 2
ENDMDL
MODEL 7
REMARK VINA RESULT:      -8.1      2.418      3.689
REMARK  Name = 
REMARK  3 active torsions:
REMARK  status: ('A' for Active; 'I' for Inactive)
REMARK    1  A    between atoms: C_1  and  C_2
REMARK    2  A    between atoms: C_4  and  C_5
REMARK    3  A    between atoms: C_9  and  N_10
REMARK                            x       y       z     vdW  Elec       q    Type
REMARK                         _______ _______ _______ _____ _____    ______ ____
ROOT
ATOM      1  C   UNL     1       0.114   9.268  22.684  0.00  0.00    +0.000 C 
ATOM      2  C   UNL     1       0.781   8.755  21.438  0.00  0.00    +0.000 A 
ATOM      3  C   UNL     1       1.063   7.377  21.440  0.00  0.00    +0.000 A 
ATOM      4  C   UNL     1       1.647   6.784  20.338  0.00  0.00    +0.000 A 
ATOM      5  N   UNL     1       1.990   7.515  19.261  0.00  0.00    +0.000 NA
ATOM      6  C   UNL     1       1.730   8.833  19.243  0.00  0.00    +0.000 A 
ATOM      7  C   UNL     1       2.100   9.476  18.079  0.00  0.00    +0.000 A 
ATOM      8  C   UNL     1       1.897  10.836  17.886  0.00  0.00    +0.000 A 
ATOM      9  C   UNL     1       1.304  11.608  18.879  0.00  0.00    +0.000 A 
ATOM     10  C   UNL     1       1.123  12.983  18.636  0.00  0.00    +0.000 A 
ATOM     11  C   UNL     1       0.539  13.813  19.584  0.00  0.00    +0.000 A 
ATOM     12  C   UNL     1       0.127  13.269  20.785  0.00  0.00    +0.000 A 
ATOM     13  C   UNL     1       0.303  11.901  21.030  0.00  0.00    +0.000 A 
ATOM     14  C   UNL     1       0.898  11.005  20.099  0.00  0.00    +0.000 A 
ATOM     15  C   UNL     1       1.114   9.563  20.297  0.00  0.00    +0.000 A 
ENDROOT
BRANCH   4  16
ATOM     16  C   UNL     1       1.888   5.331  20.250  0.00  0.00    +0.000 A 
ATOM     17  C   UNL     1       0.844   4.406  20.438  0.00  0.00    +0.000 A 
ATOM     18  C   UNL     1       1.070   3.024  20.392  0.00  0.00    +0.000 A 
ATOM     19  C   UNL     1       2.354   2.533  20.167  0.00  0.00    +0.000 A 
ATOM     20  C   UNL     1       3.405   3.434  19.979  0.00  0.00    +0.000 A 
ATOM     21  C   UNL     1       3.177   4.817  20.010  0.00  0.00    +0.000 A 
BRANCH  20  22
ATOM     22  N   UNL     1       4.769   2.934  19.770  0.00  0.00    +0.000 N 
ATOM     23  O   UNL     1       5.069   1.844  20.276  0.00  0.00    +0.000 OA
ATOM     24  O   UNL     1       5.542   3.632  19.098  0.00  0.00    +0.000 OA
ENDBRANCH  20  22
ENDBRANCH   4  16
TORSDOF 2
ENDMDL
MODEL 8
REMARK VINA RESULT:      -8.1      1.387      1.802
REMARK  Name = 
REMARK  3 active torsions:
REMARK  status: ('A' for Active; 'I' for Inactive)
REMARK    1  A    between atoms: C_1  and  C_2
REMARK    2  A    between atoms: C_4  and  C_5
REMARK    3  A    between atoms: C_9  and  N_10
REMARK                            x       y       z     vdW  Elec       q    Type
REMARK                         _______ _______ _______ _____ _____    ______ ____
ROOT
ATOM      1  C   UNL     1       0.061  11.202  18.046  0.00  0.00    +0.000 C 
ATOM      2  C   UNL     1       0.491  10.157  19.038  0.00  0.00    +0.000 A 
ATOM      3  C   UNL     1       1.319   9.148  18.515  0.00  0.00    +0.000 A 
ATOM      4  C   UNL     1       1.803   8.150  19.337  0.00  0.00    +0.000 A 
ATOM      5  N   UNL     1       1.466   8.102  20.640  0.00  0.00    +0.000 NA
ATOM      6  C   UNL     1       0.674   9.058  21.155  0.00  0.00    +0.000 A 
ATOM      7  C   UNL     1       0.416   8.923  22.504  0.00  0.00    +0.000 A 
ATOM      8  C   UNL     1      -0.376   9.827  23.202  0.00  0.00    +0.000 A 
ATOM      9  C   UNL     1      -0.945  10.915  22.549  0.00  0.00    +0.000 A 
ATOM     10  C   UNL     1      -1.742  11.800  23.299  0.00  0.00    +0.000 A 
ATOM     11  C   UNL     1      -2.342  12.906  22.712  0.00  0.00    +0.000 A 
ATOM     12  C   UNL     1      -2.144  13.137  21.364  0.00  0.00    +0.000 A 
ATOM     13  C   UNL     1      -1.350  12.260  20.614  0.00  0.00    +0.000 A 
ATOM     14  C   UNL     1      -0.715  11.111  21.161  0.00  0.00    +0.000 A 
ATOM     15  C   UNL     1       0.127  10.151  20.429  0.00  0.00    +0.000 A 
ENDROOT
BRANCH   4  16
ATOM     16  C   UNL     1       2.742   7.114  18.864  0.00  0.00    +0.000 A 
ATOM     17  C   UNL     1       2.783   5.840  19.461  0.00  0.00    +0.000 A 
ATOM     18  C   UNL     1       3.695   4.863  19.043  0.00  0.00    +0.000 A 
ATOM     19  C   UNL     1       4.600   5.141  18.021  0.00  0.00    +0.000 A 
ATOM     20  C   UNL     1       4.577   6.401  17.416  0.00  0.00    +0.000 A 
ATOM     21  C   UNL     1       3.654   7.375  17.824  0.00  0.00    +0.000 A 
BRANCH  20  22
ATOM     22  N   UNL     1       5.543   6.722  16.359  0.00  0.00    +0.000 N 
ATOM     23  O   UNL     1       6.625   7.221  16.696  0.00  0.00    +0.000 OA
ATOM     24  O   UNL     1       5.219   6.474  15.188  0.00  0.00    +0.000 OA
ENDBRANCH  20  22
ENDBRANCH   4  16
TORSDOF 2
ENDMDL
MODEL 9
REMARK VINA RESULT:      -8.0      1.816      2.307
REMARK  Name = 
REMARK  3 active torsions:
REMARK  status: ('A' for Active; 'I' for Inactive)
REMARK    1  A    between atoms: C_1  and  C_2
REMARK    2  A    between atoms: C_4  and  C_5
REMARK    3  A    between atoms: C_9  and  N_10
REMARK                            x       y       z     vdW  Elec       q    Type
REMARK                         _______ _______ _______ _____ _____    ______ ____
ROOT
ATOM      1  C   UNL     1       1.426  10.635  18.247  0.00  0.00    +0.000 C 
ATOM      2  C   UNL     1       1.214   9.679  19.387  0.00  0.00    +0.000 A 
ATOM      3  C   UNL     1       1.742   8.391  19.188  0.00  0.00    +0.000 A 
ATOM      4  C   UNL     1       1.637   7.434  20.177  0.00  0.00    +0.000 A 
ATOM      5  N   UNL     1       0.998   7.701  21.332  0.00  0.00    +0.000 NA
ATOM      6  C   UNL     1       0.486   8.926  21.538  0.00  0.00    +0.000 A 
ATOM      7  C   UNL     1      -0.123   9.094  22.766  0.00  0.00    +0.000 A 
ATOM      8  C   UNL     1      -0.698  10.299  23.150  0.00  0.00    +0.000 A 
ATOM      9  C   UNL     1      -0.679  11.394  22.292  0.00  0.00    +0.000 A 
ATOM     10  C   UNL     1      -1.279  12.591  22.726  0.00  0.00    +0.000 A 
ATOM     11  C   UNL     1      -1.297  13.722  21.921  0.00  0.00    +0.000 A 
ATOM     12  C   UNL     1      -0.711  13.664  20.672  0.00  0.00    +0.000 A 
ATOM     13  C   UNL     1      -0.111  12.475  20.236  0.00  0.00    +0.000 A 
ATOM     14  C   UNL     1      -0.066  11.285  21.015  0.00  0.00    +0.000 A 
ATOM     15  C   UNL     1       0.543  10.007  20.616  0.00  0.00    +0.000 A 
ENDROOT
BRANCH   4  16
ATOM     16  C   UNL     1       2.246   6.094  20.058  0.00  0.00    +0.000 A 
ATOM     17  C   UNL     1       1.637   4.964  20.635  0.00  0.00    +0.000 A 
ATOM     18  C   UNL     1       2.226   3.695  20.559  0.00  0.00    +0.000 A 
ATOM     19  C   UNL     1       3.447   3.528  19.911  0.00  0.00    +0.000 A 
ATOM     20  C   UNL     1       4.069   4.638  19.332  0.00  0.00    +0.000 A 
ATOM     21  C   UNL     1       3.473   5.906  19.395  0.00  0.00    +0.000 A 
BRANCH  20  22
ATOM     22  N   UNL     1       5.370   4.485  18.671  0.00  0.00    +0.000 N 
ATOM     23  O   UNL     1       5.380   4.080  17.501  0.00  0.00    +0.000 OA
ATOM     24  O   UNL     1       6.385   4.771  19.323  0.00  0.00    +0.000 OA
ENDBRANCH  20  22
ENDBRANCH   4  16
TORSDOF 2
ENDMDL
