MODEL 1
REMARK VINA RESULT:      -9.3      0.000      0.000
REMARK  Name = 
REMARK  5 active torsions:
REMARK  status: ('A' for Active; 'I' for Inactive)
REMARK    1  A    between atoms: C_2  and  C_3
REMARK    2  A    between atoms: C_3  and  O_4
REMARK    3  A    between atoms: O_4  and  C_5
REMARK    4  A    between atoms: C_8  and  C_9
REMARK    5  A    between atoms: N_11  and  C_12
REMARK                            x       y       z     vdW  Elec       q    Type
REMARK                         _______ _______ _______ _____ _____    ______ ____
ROOT
ATOM      1  C   UNL     1       0.853  10.098  19.935  0.00  0.00    +0.000 A 
ATOM      2  C   UNL     1       1.437   9.617  18.762  0.00  0.00    +0.000 A 
ATOM      3  C   UNL     1       1.957   8.321  18.718  0.00  0.00    +0.000 A 
ATOM      4  C   UNL     1       1.911   7.506  19.854  0.00  0.00    +0.000 A 
ATOM      5  C   UNL     1       1.363   8.004  21.040  0.00  0.00    +0.000 A 
ATOM      6  C   UNL     1       0.843   9.300  21.079  0.00  0.00    +0.000 A 
ENDROOT
BRANCH   4   7
ATOM      7  C   UNL     1       2.471   6.124  19.772  0.00  0.00    +0.000 C 
ATOM      8  N   UNL     1       3.366   5.865  18.872  0.00  0.00    +0.000 NA
ATOM      9  N   UNL     1       3.905   4.601  18.764  0.00  0.00    +0.000 N 
ATOM     10  C   UNL     1       3.434   3.498  19.479  0.00  0.00    +0.000 C 
ATOM     11  O   UNL     1       3.936   2.370  19.490  0.00  0.00    +0.000 OA
ATOM     12  C   UNL     1       2.164   3.711  20.255  0.00  0.00    +0.000 C 
ATOM     13  C   UNL     1       1.994   5.111  20.772  0.00  0.00    +0.000 C 
BRANCH   9  14
ATOM     14  C   UNL     1       4.982   4.518  17.814  0.00  0.00    +0.000 A 
ATOM     15  C   UNL     1       6.316   4.739  18.184  0.00  0.00    +0.000 A 
ATOM     16  C   UNL     1       7.355   4.654  17.251  0.00  0.00    +0.000 A 
ATOM     17  C   UNL     1       7.077   4.354  15.921  0.00  0.00    +0.000 A 
ATOM     18  C   UNL     1       5.763   4.121  15.529  0.00  0.00    +0.000 A 
ATOM     19  C   UNL     1       4.727   4.187  16.469  0.00  0.00    +0.000 A 
ENDBRANCH   9  14
ENDBRANCH   4   7
BRANCH   1  20
ATOM     20  O   UNL     1       0.271  11.328  20.069  0.00  0.00    +0.000 OA
BRANCH  20  21
ATOM     21  C   UNL     1      -0.326  11.834  18.882  0.00  0.00    +0.000 C 
BRANCH  21  23
ATOM     22  O   UNL     1      -2.368  12.789  19.747  0.00  0.00    +0.000 OA
ATOM     23  C   UNL     1      -1.847  11.974  18.989  0.00  0.00    +0.000 C 
ATOM     24  N   UNL     1      -2.604  11.122  18.180  0.00  0.00    +0.000 N 
ATOM     25  C   UNL     1      -2.073  10.141  17.234  0.00  0.00    +0.000 C 
ATOM     26  C   UNL     1      -2.523  10.472  15.813  0.00  0.00    +0.000 C 
ATOM     27  C   UNL     1      -4.041  10.640  15.735  0.00  0.00    +0.000 C 
ATOM     28  C   UNL     1      -4.551  11.623  16.790  0.00  0.00    +0.000 C 
ATOM     29  C   UNL     1      -4.057  11.245  18.184  0.00  0.00    +0.000 C 
ENDBRANCH  21  23
ENDBRANCH  20  21
ENDBRANCH   1  20
TORSDOF 5
ENDMDL
MODEL 2
REMARK VINA RESULT:      -9.3      0.065      1.267
REMARK  Name = 
REMARK  5 active torsions:
REMARK  status: ('A' for Active; 'I' for Inactive)
REMARK    1  A    between atoms: C_2  and  C_3
REMARK    2  A    between atoms: C_3  and  O_4
REMARK    3  A    between atoms: O_4  and  C_5
REMARK    4  A    between atoms: C_8  and  C_9
REMARK    5  A    between atoms: N_11  and  C_12
REMARK                            x       y       z     vdW  Elec       q    Type
REMARK                         _______ _______ _______ _____ _____    ______ ____
ROOT
ATOM      1  C   UNL     1       0.846  10.116  20.010  0.00  0.00    +0.000 A 
ATOM      2  C   UNL     1       0.815   9.264  21.116  0.00  0.00    +0.000 A 
ATOM      3  C   UNL     1       1.351   7.977  21.023  0.00  0.00    +0.000 A 
ATOM      4  C   UNL     1       1.904   7.530  19.819  0.00  0.00    +0.000 A 
ATOM      5  C   UNL     1       1.896   8.370  18.701  0.00  0.00    +0.000 A 
ATOM      6  C   UNL     1       1.361   9.657  18.798  0.00  0.00    +0.000 A 
ENDROOT
BRANCH   4   7
ATOM      7  C   UNL     1       2.473   6.151  19.756  0.00  0.00    +0.000 C 
ATOM      8  N   UNL     1       3.364   5.884  18.855  0.00  0.00    +0.000 NA
ATOM      9  N   UNL     1       3.911   4.622  18.763  0.00  0.00    +0.000 N 
ATOM     10  C   UNL     1       3.453   3.527  19.499  0.00  0.00    +0.000 C 
ATOM     11  O   UNL     1       3.963   2.403  19.525  0.00  0.00    +0.000 OA
ATOM     12  C   UNL     1       2.187   3.744  20.280  0.00  0.00    +0.000 C 
ATOM     13  C   UNL     1       2.011   5.151  20.776  0.00  0.00    +0.000 C 
BRANCH   9  14
ATOM     14  C   UNL     1       4.982   4.531  17.807  0.00  0.00    +0.000 A 
ATOM     15  C   UNL     1       4.748   4.242  16.456  0.00  0.00    +0.000 A 
ATOM     16  C   UNL     1       5.800   4.157  15.536  0.00  0.00    +0.000 A 
ATOM     17  C   UNL     1       7.112   4.352  15.955  0.00  0.00    +0.000 A 
ATOM     18  C   UNL     1       7.371   4.649  17.289  0.00  0.00    +0.000 A 
ATOM     19  C   UNL     1       6.315   4.753  18.204  0.00  0.00    +0.000 A 
ENDBRANCH   9  14
ENDBRANCH   4   7
BRANCH   1  20
ATOM     20  O   UNL     1       0.396  11.408  20.009  0.00  0.00    +0.000 OA
BRANCH  20  21
ATOM     21  C   UNL     1      -0.243  11.811  18.806  0.00  0.00    +0.000 C 
BRANCH  21  23
ATOM     22  O   UNL     1      -2.258  12.774  19.727  0.00  0.00    +0.000 OA
ATOM     23  C   UNL     1      -1.761  11.958  18.953  0.00  0.00    +0.000 C 
ATOM     24  N   UNL     1      -2.543  11.112  18.163  0.00  0.00    +0.000 N 
ATOM     25  C   UNL     1      -2.042  10.131  17.201  0.00  0.00    +0.000 C 
ATOM     26  C   UNL     1      -2.528  10.468  15.793  0.00  0.00    +0.000 C 
ATOM     27  C   UNL     1      -4.047  10.643  15.756  0.00  0.00    +0.000 C 
ATOM     28  C   UNL     1      -4.524  11.626  16.827  0.00  0.00    +0.000 C 
ATOM     29  C   UNL     1      -3.995  11.242  18.206  0.00  0.00    +0.000 C 
ENDBRANCH  21  23
ENDBRANCH  20  21
ENDBRANCH   1  20
TORSDOF 5
ENDMDL
MODEL 3
REMARK VINA RESULT:      -8.7      0.770      1.040
REMARK  Name = 
REMARK  5 active torsions:
REMARK  status: ('A' for Active; 'I' for Inactive)
REMARK    1  A    between atoms: C_2  and  C_3
REMARK    2  A    between atoms: C_3  and  O_4
REMARK    3  A    between atoms: O_4  and  C_5
REMARK    4  A    between atoms: C_8  and  C_9
REMARK    5  A    between atoms: N_11  and  C_12
REMARK                            x       y       z     vdW  Elec       q    Type
REMARK                         _______ _______ _______ _____ _____    ______ ____
ROOT
ATOM      1  C   UNL     1       0.816  10.414  19.297  0.00  0.00    +0.000 A 
ATOM      2  C   UNL     1       1.451   9.824  18.202  0.00  0.00    +0.000 A 
ATOM      3  C   UNL     1       1.979   8.535  18.309  0.00  0.00    +0.000 A 
ATOM      4  C   UNL     1       1.890   7.836  19.517  0.00  0.00    +0.000 A 
ATOM      5  C   UNL     1       1.290   8.444  20.624  0.00  0.00    +0.000 A 
ATOM      6  C   UNL     1       0.762   9.733  20.513  0.00  0.00    +0.000 A 
ENDROOT
BRANCH   4   7
ATOM      7  C   UNL     1       2.459   6.458  19.596  0.00  0.00    +0.000 C 
ATOM      8  N   UNL     1       3.368   6.108  18.742  0.00  0.00    +0.000 NA
ATOM      9  N   UNL     1       3.916   4.844  18.781  0.00  0.00    +0.000 N 
ATOM     10  C   UNL     1       3.443   3.823  19.608  0.00  0.00    +0.000 C 
ATOM     11  O   UNL     1       3.951   2.707  19.751  0.00  0.00    +0.000 OA
ATOM     12  C   UNL     1       2.161   4.111  20.340  0.00  0.00    +0.000 C 
ATOM     13  C   UNL     1       1.975   5.559  20.696  0.00  0.00    +0.000 C 
BRANCH   9  14
ATOM     14  C   UNL     1       5.006   4.664  17.861  0.00  0.00    +0.000 A 
ATOM     15  C   UNL     1       6.343   4.825  18.253  0.00  0.00    +0.000 A 
ATOM     16  C   UNL     1       7.395   4.647  17.348  0.00  0.00    +0.000 A 
ATOM     17  C   UNL     1       7.128   4.311  16.024  0.00  0.00    +0.000 A 
ATOM     18  C   UNL     1       5.811   4.137  15.611  0.00  0.00    +0.000 A 
ATOM     19  C   UNL     1       4.761   4.297  16.524  0.00  0.00    +0.000 A 
ENDBRANCH   9  14
ENDBRANCH   4   7
BRANCH   1  20
ATOM     20  O   UNL     1       0.223  11.646  19.283  0.00  0.00    +0.000 OA
BRANCH  20  21
ATOM     21  C   UNL     1      -0.952  11.730  18.488  0.00  0.00    +0.000 C 
BRANCH  21  23
ATOM     22  O   UNL     1      -2.068  13.006  20.209  0.00  0.00    +0.000 OA
ATOM     23  C   UNL     1      -2.174  12.214  19.274  0.00  0.00    +0.000 C 
ATOM     24  N   UNL     1      -3.410  11.703  18.871  0.00  0.00    +0.000 N 
ATOM     25  C   UNL     1      -3.635  10.779  17.760  0.00  0.00    +0.000 C 
ATOM     26  C   UNL     1      -4.533  11.421  16.705  0.00  0.00    +0.000 C 
ATOM     27  C   UNL     1      -5.823  11.959  17.325  0.00  0.00    +0.000 C 
ATOM     28  C   UNL     1      -5.533  12.864  18.524  0.00  0.00    +0.000 C 
ATOM     29  C   UNL     1      -4.622  12.170  19.534  0.00  0.00    +0.000 C 
ENDBRANCH  21  23
ENDBRANCH  20  21
ENDBRANCH   1  20
TORSDOF 5
ENDMDL
MODEL 4
REMARK VINA RESULT:      -8.6      2.507      3.538
REMARK  Name = 
REMARK  5 active torsions:
REMARK  status: ('A' for Active; 'I' for Inactive)
REMARK    1  A    between atoms: C_2  and  C_3
REMARK    2  A    between atoms: C_3  and  O_4
REMARK    3  A    between atoms: O_4  and  C_5
REMARK    4  A    between atoms: C_8  and  C_9
REMARK    5  A    between atoms: N_11  and  C_12
REMARK                            x       y       z     vdW  Elec       q    Type
REMARK                         _______ _______ _______ _____ _____    ______ ____
ROOT
ATOM      1  C   UNL     1       0.841  10.002  19.884  0.00  0.00    +0.000 A 
ATOM      2  C   UNL     1       1.442   9.530  18.715  0.00  0.00    +0.000 A 
ATOM      3  C   UNL     1       1.992   8.247  18.679  0.00  0.00    +0.000 A 
ATOM      4  C   UNL     1       1.961   7.435  19.817  0.00  0.00    +0.000 A 
ATOM      5  C   UNL     1       1.396   7.924  20.999  0.00  0.00    +0.000 A 
ATOM      6  C   UNL     1       0.845   9.208  21.031  0.00  0.00    +0.000 A 
ENDROOT
BRANCH   4   7
ATOM      7  C   UNL     1       2.554   6.067  19.743  0.00  0.00    +0.000 C 
ATOM      8  N   UNL     1       3.416   5.809  18.812  0.00  0.00    +0.000 NA
ATOM      9  N   UNL     1       3.983   4.558  18.709  0.00  0.00    +0.000 N 
ATOM     10  C   UNL     1       3.574   3.460  19.469  0.00  0.00    +0.000 C 
ATOM     11  O   UNL     1       4.106   2.346  19.484  0.00  0.00    +0.000 OA
ATOM     12  C   UNL     1       2.333   3.659  20.295  0.00  0.00    +0.000 C 
ATOM     13  C   UNL     1       2.148   5.067  20.786  0.00  0.00    +0.000 C 
BRANCH   9  14
ATOM     14  C   UNL     1       5.020   4.479  17.715  0.00  0.00    +0.000 A 
ATOM     15  C   UNL     1       4.740   4.205  16.369  0.00  0.00    +0.000 A 
ATOM     16  C   UNL     1       5.758   4.132  15.412  0.00  0.00    +0.000 A 
ATOM     17  C   UNL     1       7.085   4.325  15.787  0.00  0.00    +0.000 A 
ATOM     18  C   UNL     1       7.389   4.608  17.114  0.00  0.00    +0.000 A 
ATOM     19  C   UNL     1       6.366   4.699  18.067  0.00  0.00    +0.000 A 
ENDBRANCH   9  14
ENDBRANCH   4   7
BRANCH   1  20
ATOM     20  O   UNL     1       0.230  11.218  20.011  0.00  0.00    +0.000 OA
BRANCH  20  21
ATOM     21  C   UNL     1      -0.670  11.318  21.107  0.00  0.00    +0.000 C 
BRANCH  21  23
ATOM     22  O   UNL     1       0.519  13.314  21.768  0.00  0.00    +0.000 OA
ATOM     23  C   UNL     1      -0.446  12.575  21.953  0.00  0.00    +0.000 C 
ATOM     24  N   UNL     1      -1.397  12.829  22.945  0.00  0.00    +0.000 N 
ATOM     25  C   UNL     1      -2.585  12.022  23.220  0.00  0.00    +0.000 C 
ATOM     26  C   UNL     1      -3.852  12.849  23.012  0.00  0.00    +0.000 C 
ATOM     27  C   UNL     1      -3.800  14.156  23.805  0.00  0.00    +0.000 C 
ATOM     28  C   UNL     1      -2.507  14.927  23.532  0.00  0.00    +0.000 C 
ATOM     29  C   UNL     1      -1.281  14.042  23.745  0.00  0.00    +0.000 C 
ENDBRANCH  21  23
ENDBRANCH  20  21
ENDBRANCH   1  20
TORSDOF 5
ENDMDL
MODEL 5
REMARK VINA RESULT:      -8.6      1.864      2.793
REMARK  Name = 
REMARK  5 active torsions:
REMARK  status: ('A' for Active; 'I' for Inactive)
REMARK    1  A    between atoms: C_2  and  C_3
REMARK    2  A    between atoms: C_3  and  O_4
REMARK    3  A    between atoms: O_4  and  C_5
REMARK    4  A    between atoms: C_8  and  C_9
REMARK    5  A    between atoms: N_11  and  C_12
REMARK                            x       y       z     vdW  Elec       q    Type
REMARK                         _______ _______ _______ _____ _____    ______ ____
ROOT
ATOM      1  C   UNL     1       0.833  10.328  19.337  0.00  0.00    +0.000 A 
ATOM      2  C   UNL     1       1.499   9.766  18.247  0.00  0.00    +0.000 A 
ATOM      3  C   UNL     1       2.036   8.480  18.340  0.00  0.00    +0.000 A 
ATOM      4  C   UNL     1       1.924   7.756  19.532  0.00  0.00    +0.000 A 
ATOM      5  C   UNL     1       1.293   8.337  20.637  0.00  0.00    +0.000 A 
ATOM      6  C   UNL     1       0.756   9.623  20.538  0.00  0.00    +0.000 A 
ENDROOT
BRANCH   4   7
ATOM      7  C   UNL     1       2.504   6.381  19.597  0.00  0.00    +0.000 C 
ATOM      8  N   UNL     1       3.402   6.041  18.728  0.00  0.00    +0.000 NA
ATOM      9  N   UNL     1       3.959   4.781  18.754  0.00  0.00    +0.000 N 
ATOM     10  C   UNL     1       3.506   3.754  19.585  0.00  0.00    +0.000 C 
ATOM     11  O   UNL     1       4.024   2.641  19.715  0.00  0.00    +0.000 OA
ATOM     12  C   UNL     1       2.234   4.030  20.338  0.00  0.00    +0.000 C 
ATOM     13  C   UNL     1       2.044   5.475  20.702  0.00  0.00    +0.000 C 
BRANCH   9  14
ATOM     14  C   UNL     1       5.036   4.611  17.816  0.00  0.00    +0.000 A 
ATOM     15  C   UNL     1       4.807   4.246  16.481  0.00  0.00    +0.000 A 
ATOM     16  C   UNL     1       5.864   4.086  15.578  0.00  0.00    +0.000 A 
ATOM     17  C   UNL     1       7.177   4.280  15.997  0.00  0.00    +0.000 A 
ATOM     18  C   UNL     1       7.431   4.651  17.313  0.00  0.00    +0.000 A 
ATOM     19  C   UNL     1       6.370   4.830  18.210  0.00  0.00    +0.000 A 
ENDBRANCH   9  14
ENDBRANCH   4   7
BRANCH   1  20
ATOM     20  O   UNL     1       0.230  11.555  19.334  0.00  0.00    +0.000 OA
BRANCH  20  21
ATOM     21  C   UNL     1      -0.680  11.771  20.405  0.00  0.00    +0.000 C 
BRANCH  21  23
ATOM     22  O   UNL     1      -2.456  12.034  18.789  0.00  0.00    +0.000 OA
ATOM     23  C   UNL     1      -2.059  12.243  19.934  0.00  0.00    +0.000 C 
ATOM     24  N   UNL     1      -2.834  12.923  20.876  0.00  0.00    +0.000 N 
ATOM     25  C   UNL     1      -2.456  13.195  22.262  0.00  0.00    +0.000 C 
ATOM     26  C   UNL     1      -3.435  12.525  23.223  0.00  0.00    +0.000 C 
ATOM     27  C   UNL     1      -4.881  12.900  22.898  0.00  0.00    +0.000 C 
ATOM     28  C   UNL     1      -5.203  12.661  21.421  0.00  0.00    +0.000 C 
ATOM     29  C   UNL     1      -4.183  13.345  20.514  0.00  0.00    +0.000 C 
ENDBRANCH  21  23
ENDBRANCH  20  21
ENDBRANCH   1  20
TORSDOF 5
ENDMDL
MODEL 6
REMARK VINA RESULT:      -8.5      2.007      2.897
REMARK  Name = 
REMARK  5 active torsions:
REMARK  status: ('A' for Active; 'I' for Inactive)
REMARK    1  A    between atoms: C_2  and  C_3
REMARK    2  A    between atoms: C_3  and  O_4
REMARK    3  A    between atoms: O_4  and  C_5
REMARK    4  A    between atoms: C_8  and  C_9
REMARK    5  A    between atoms: N_11  and  C_12
REMARK                            x       y       z     vdW  Elec       q    Type
REMARK                         _______ _______ _______ _____ _____    ______ ____
ROOT
ATOM      1  C   UNL     1       0.886  10.133  19.981  0.00  0.00    +0.000 A 
ATOM      2  C   UNL     1       0.854   9.281  21.086  0.00  0.00    +0.000 A 
ATOM      3  C   UNL     1       1.377   7.989  20.990  0.00  0.00    +0.000 A 
ATOM      4  C   UNL     1       1.918   7.537  19.783  0.00  0.00    +0.000 A 
ATOM      5  C   UNL     1       1.912   8.377  18.665  0.00  0.00    +0.000 A 
ATOM      6  C   UNL     1       1.390   9.670  18.765  0.00  0.00    +0.000 A 
ENDROOT
BRANCH   4   7
ATOM      7  C   UNL     1       2.474   6.152  19.716  0.00  0.00    +0.000 C 
ATOM      8  N   UNL     1       3.372   5.882  18.823  0.00  0.00    +0.000 NA
ATOM      9  N   UNL     1       3.906   4.616  18.728  0.00  0.00    +0.000 N 
ATOM     10  C   UNL     1       3.429   3.521  19.451  0.00  0.00    +0.000 C 
ATOM     11  O   UNL     1       3.927   2.391  19.475  0.00  0.00    +0.000 OA
ATOM     12  C   UNL     1       2.157   3.745  20.220  0.00  0.00    +0.000 C 
ATOM     13  C   UNL     1       1.990   5.151  20.724  0.00  0.00    +0.000 C 
BRANCH   9  14
ATOM     14  C   UNL     1       4.987   4.520  17.783  0.00  0.00    +0.000 A 
ATOM     15  C   UNL     1       6.321   4.735  18.158  0.00  0.00    +0.000 A 
ATOM     16  C   UNL     1       7.363   4.638  17.229  0.00  0.00    +0.000 A 
ATOM     17  C   UNL     1       7.089   4.331  15.900  0.00  0.00    +0.000 A 
ATOM     18  C   UNL     1       5.775   4.105  15.504  0.00  0.00    +0.000 A 
ATOM     19  C   UNL     1       4.735   4.183  16.439  0.00  0.00    +0.000 A 
ENDBRANCH   9  14
ENDBRANCH   4   7
BRANCH   1  20
ATOM     20  O   UNL     1       0.449  11.429  19.982  0.00  0.00    +0.000 OA
BRANCH  20  21
ATOM     21  C   UNL     1      -0.525  11.725  20.974  0.00  0.00    +0.000 C 
BRANCH  21  23
ATOM     22  O   UNL     1      -2.171  11.943  19.219  0.00  0.00    +0.000 OA
ATOM     23  C   UNL     1      -1.860  12.188  20.383  0.00  0.00    +0.000 C 
ATOM     24  N   UNL     1      -2.699  12.905  21.240  0.00  0.00    +0.000 N 
ATOM     25  C   UNL     1      -2.425  13.222  22.641  0.00  0.00    +0.000 C 
ATOM     26  C   UNL     1      -3.480  12.590  23.547  0.00  0.00    +0.000 C 
ATOM     27  C   UNL     1      -4.894  12.962  23.100  0.00  0.00    +0.000 C 
ATOM     28  C   UNL     1      -5.104  12.674  21.612  0.00  0.00    +0.000 C 
ATOM     29  C   UNL     1      -4.013  13.321  20.763  0.00  0.00    +0.000 C 
ENDBRANCH  21  23
ENDBRANCH  20  21
ENDBRANCH   1  20
TORSDOF 5
ENDMDL
MODEL 7
REMARK VINA RESULT:      -8.5      1.702      9.022
REMARK  Name = 
REMARK  5 active torsions:
REMARK  status: ('A' for Active; 'I' for Inactive)
REMARK    1  A    between atoms: C_2  and  C_3
REMARK    2  A    between atoms: C_3  and  O_4
REMARK    3  A    between atoms: O_4  and  C_5
REMARK    4  A    between atoms: C_8  and  C_9
REMARK    5  A    between atoms: N_11  and  C_12
REMARK                            x       y       z     vdW  Elec       q    Type
REMARK                         _______ _______ _______ _____ _____    ______ ____
ROOT
ATOM      1  C   UNL     1       3.572   6.931  18.145  0.00  0.00    +0.000 A 
ATOM      2  C   UNL     1       3.168   8.007  17.353  0.00  0.00    +0.000 A 
ATOM      3  C   UNL     1       2.206   8.902  17.826  0.00  0.00    +0.000 A 
ATOM      4  C   UNL     1       1.630   8.716  19.087  0.00  0.00    +0.000 A 
ATOM      5  C   UNL     1       2.006   7.614  19.862  0.00  0.00    +0.000 A 
ATOM      6  C   UNL     1       2.970   6.721  19.386  0.00  0.00    +0.000 A 
ENDROOT
BRANCH   4   7
ATOM      7  C   UNL     1       0.609   9.695  19.564  0.00  0.00    +0.000 C 
ATOM      8  N   UNL     1      -0.356  10.029  18.767  0.00  0.00    +0.000 NA
ATOM      9  N   UNL     1      -1.316  10.931  19.171  0.00  0.00    +0.000 N 
ATOM     10  C   UNL     1      -1.245  11.652  20.365  0.00  0.00    +0.000 C 
ATOM     11  O   UNL     1      -2.117  12.399  20.817  0.00  0.00    +0.000 OA
ATOM     12  C   UNL     1       0.047  11.538  21.125  0.00  0.00    +0.000 C 
ATOM     13  C   UNL     1       0.730  10.209  20.969  0.00  0.00    +0.000 C 
BRANCH   9  14
ATOM     14  C   UNL     1      -2.389  11.086  18.226  0.00  0.00    +0.000 A 
ATOM     15  C   UNL     1      -2.242  10.746  16.874  0.00  0.00    +0.000 A 
ATOM     16  C   UNL     1      -3.294  10.900  15.964  0.00  0.00    +0.000 A 
ATOM     17  C   UNL     1      -4.517  11.409  16.390  0.00  0.00    +0.000 A 
ATOM     18  C   UNL     1      -4.693  11.746  17.728  0.00  0.00    +0.000 A 
ATOM     19  C   UNL     1      -3.644  11.572  18.640  0.00  0.00    +0.000 A 
ENDBRANCH   9  14
ENDBRANCH   4   7
BRANCH   1  20
ATOM     20  O   UNL     1       4.540   6.028  17.799  0.00  0.00    +0.000 OA
BRANCH  20  21
ATOM     21  C   UNL     1       4.068   4.704  17.591  0.00  0.00    +0.000 C 
BRANCH  21  23
ATOM     22  O   UNL     1       5.480   3.636  19.234  0.00  0.00    +0.000 OA
ATOM     23  C   UNL     1       4.348   3.774  18.775  0.00  0.00    +0.000 C 
ATOM     24  N   UNL     1       3.246   3.092  19.298  0.00  0.00    +0.000 N 
ATOM     25  C   UNL     1       1.865   3.211  18.834  0.00  0.00    +0.000 C 
ATOM     26  C   UNL     1       0.970   3.742  19.952  0.00  0.00    +0.000 C 
ATOM     27  C   UNL     1       1.119   2.911  21.227  0.00  0.00    +0.000 C 
ATOM     28  C   UNL     1       2.587   2.761  21.629  0.00  0.00    +0.000 C 
ATOM     29  C   UNL     1       3.429   2.239  20.467  0.00  0.00    +0.000 C 
ENDBRANCH  21  23
ENDBRANCH  20  21
ENDBRANCH   1  20
TORSDOF 5
ENDMDL
MODEL 8
REMARK VINA RESULT:      -8.4      2.882      4.395
REMARK  Name = 
REMARK  5 active torsions:
REMARK  status: ('A' for Active; 'I' for Inactive)
REMARK    1  A    between atoms: C_2  and  C_3
REMARK    2  A    between atoms: C_3  and  O_4
REMARK    3  A    between atoms: O_4  and  C_5
REMARK    4  A    between atoms: C_8  and  C_9
REMARK    5  A    between atoms: N_11  and  C_12
REMARK                            x       y       z     vdW  Elec       q    Type
REMARK                         _______ _______ _______ _____ _____    ______ ____
ROOT
ATOM      1  C   UNL     1       0.956  10.244  19.827  0.00  0.00    +0.000 A 
ATOM      2  C   UNL     1       0.899   9.412  20.947  0.00  0.00    +0.000 A 
ATOM      3  C   UNL     1       1.404   8.112  20.880  0.00  0.00    +0.000 A 
ATOM      4  C   UNL     1       1.954   7.630  19.688  0.00  0.00    +0.000 A 
ATOM      5  C   UNL     1       1.973   8.451  18.555  0.00  0.00    +0.000 A 
ATOM      6  C   UNL     1       1.468   9.751  18.626  0.00  0.00    +0.000 A 
ENDROOT
BRANCH   4   7
ATOM      7  C   UNL     1       2.490   6.237  19.652  0.00  0.00    +0.000 C 
ATOM      8  N   UNL     1       3.397   5.939  18.777  0.00  0.00    +0.000 NA
ATOM      9  N   UNL     1       3.915   4.664  18.711  0.00  0.00    +0.000 N 
ATOM     10  C   UNL     1       3.412   3.588  19.446  0.00  0.00    +0.000 C 
ATOM     11  O   UNL     1       3.893   2.452  19.496  0.00  0.00    +0.000 OA
ATOM     12  C   UNL     1       2.132   3.843  20.192  0.00  0.00    +0.000 C 
ATOM     13  C   UNL     1       1.978   5.260  20.669  0.00  0.00    +0.000 C 
BRANCH   9  14
ATOM     14  C   UNL     1       5.008   4.538  17.785  0.00  0.00    +0.000 A 
ATOM     15  C   UNL     1       6.339   4.742  18.175  0.00  0.00    +0.000 A 
ATOM     16  C   UNL     1       7.394   4.614  17.264  0.00  0.00    +0.000 A 
ATOM     17  C   UNL     1       7.135   4.287  15.936  0.00  0.00    +0.000 A 
ATOM     18  C   UNL     1       5.824   4.071  15.525  0.00  0.00    +0.000 A 
ATOM     19  C   UNL     1       4.772   4.180  16.444  0.00  0.00    +0.000 A 
ENDBRANCH   9  14
ENDBRANCH   4   7
BRANCH   1  20
ATOM     20  O   UNL     1       0.537  11.545  19.800  0.00  0.00    +0.000 OA
BRANCH  20  21
ATOM     21  C   UNL     1       1.458  12.452  19.208  0.00  0.00    +0.000 C 
BRANCH  21  23
ATOM     22  O   UNL     1       2.014  13.185  21.442  0.00  0.00    +0.000 OA
ATOM     23  C   UNL     1       2.150  13.357  20.232  0.00  0.00    +0.000 C 
ATOM     24  N   UNL     1       2.938  14.387  19.713  0.00  0.00    +0.000 N 
ATOM     25  C   UNL     1       3.176  14.653  18.295  0.00  0.00    +0.000 C 
ATOM     26  C   UNL     1       4.663  14.525  17.970  0.00  0.00    +0.000 C 
ATOM     27  C   UNL     1       5.514  15.384  18.907  0.00  0.00    +0.000 C 
ATOM     28  C   UNL     1       5.176  15.116  20.375  0.00  0.00    +0.000 C 
ATOM     29  C   UNL     1       3.676  15.248  20.630  0.00  0.00    +0.000 C 
ENDBRANCH  21  23
ENDBRANCH  20  21
ENDBRANCH   1  20
TORSDOF 5
ENDMDL
MODEL 9
REMARK VINA RESULT:      -8.4      2.693      4.225
REMARK  Name = 
REMARK  5 active torsions:
REMARK  status: ('A' for Active; 'I' for Inactive)
REMARK    1  A    between atoms: C_2  and  C_3
REMARK    2  A    between atoms: C_3  and  O_4
REMARK    3  A    between atoms: O_4  and  C_5
REMARK    4  A    between atoms: C_8  and  C_9
REMARK    5  A    between atoms: N_11  and  C_12
REMARK                            x       y       z     vdW  Elec       q    Type
REMARK                         _______ _______ _______ _____ _____    ______ ____
ROOT
ATOM      1  C   UNL     1       0.866  10.104  19.639  0.00  0.00    +0.000 A 
ATOM      2  C   UNL     1       1.496   9.596  18.501  0.00  0.00    +0.000 A 
ATOM      3  C   UNL     1       2.044   8.311  18.519  0.00  0.00    +0.000 A 
ATOM      4  C   UNL     1       1.980   7.535  19.680  0.00  0.00    +0.000 A 
ATOM      5  C   UNL     1       1.386   8.062  20.832  0.00  0.00    +0.000 A 
ATOM      6  C   UNL     1       0.838   9.347  20.809  0.00  0.00    +0.000 A 
ENDROOT
BRANCH   4   7
ATOM      7  C   UNL     1       2.571   6.164  19.664  0.00  0.00    +0.000 C 
ATOM      8  N   UNL     1       3.441   5.869  18.750  0.00  0.00    +0.000 NA
ATOM      9  N   UNL     1       4.006   4.614  18.700  0.00  0.00    +0.000 N 
ATOM     10  C   UNL     1       3.589   3.547  19.499  0.00  0.00    +0.000 C 
ATOM     11  O   UNL     1       4.118   2.434  19.562  0.00  0.00    +0.000 OA
ATOM     12  C   UNL     1       2.342   3.780  20.307  0.00  0.00    +0.000 C 
ATOM     13  C   UNL     1       2.155   5.206  20.742  0.00  0.00    +0.000 C 
BRANCH   9  14
ATOM     14  C   UNL     1       5.052   4.496  17.719  0.00  0.00    +0.000 A 
ATOM     15  C   UNL     1       4.780   4.186  16.379  0.00  0.00    +0.000 A 
ATOM     16  C   UNL     1       5.806   4.075  15.434  0.00  0.00    +0.000 A 
ATOM     17  C   UNL     1       7.131   4.263  15.816  0.00  0.00    +0.000 A 
ATOM     18  C   UNL     1       7.427   4.580  17.137  0.00  0.00    +0.000 A 
ATOM     19  C   UNL     1       6.397   4.710  18.077  0.00  0.00    +0.000 A 
ENDBRANCH   9  14
ENDBRANCH   4   7
BRANCH   1  20
ATOM     20  O   UNL     1       0.255  11.326  19.712  0.00  0.00    +0.000 OA
BRANCH  20  21
ATOM     21  C   UNL     1       1.023  12.405  19.196  0.00  0.00    +0.000 C 
BRANCH  21  23
ATOM     22  O   UNL     1       1.566  12.965  21.483  0.00  0.00    +0.000 OA
ATOM     23  C   UNL     1       1.719  13.221  20.290  0.00  0.00    +0.000 C 
ATOM     24  N   UNL     1       2.531  14.271  19.854  0.00  0.00    +0.000 N 
ATOM     25  C   UNL     1       2.790  14.634  18.462  0.00  0.00    +0.000 C 
ATOM     26  C   UNL     1       4.278  14.502  18.144  0.00  0.00    +0.000 C 
ATOM     27  C   UNL     1       5.133  15.276  19.149  0.00  0.00    +0.000 C 
ATOM     28  C   UNL     1       4.773  14.909  20.590  0.00  0.00    +0.000 C 
ATOM     29  C   UNL     1       3.273  15.050  20.839  0.00  0.00    +0.000 C 
ENDBRANCH  21  23
ENDBRANCH  20  21
ENDBRANCH   1  20
TORSDOF 5
ENDMDL
