MODEL 1
REMARK VINA RESULT:      -7.6      0.000      0.000
REMARK  Name = 
REMARK  4 active torsions:
REMARK  status: ('A' for Active; 'I' for Inactive)
REMARK    1  A    between atoms: C_1  and  C_2
REMARK    2  A    between atoms: C_10  and  O_11
REMARK    3  A    between atoms: C_12  and  C_13
REMARK    4  A    between atoms: C_13  and  N_14
REMARK                            x       y       z     vdW  Elec       q    Type
REMARK                         _______ _______ _______ _____ _____    ______ ____
ROOT
ATOM      1  C   UNL     1       7.599   6.715  17.907  0.00  0.00    +0.000 C 
ATOM      2  C   UNL     1       7.038   5.753  16.902  0.00  0.00    +0.000 A 
ATOM      3  N   UNL     1       7.542   5.921  15.649  0.00  0.00    +0.000 NA
ATOM      4  C   UNL     1       7.138   5.129  14.648  0.00  0.00    +0.000 A 
ATOM      5  C   UNL     1       7.678   5.354  13.389  0.00  0.00    +0.000 A 
ATOM      6  C   UNL     1       7.311   4.595  12.278  0.00  0.00    +0.000 A 
ATOM      7  C   UNL     1       6.380   3.575  12.426  0.00  0.00    +0.000 A 
ATOM      8  C   UNL     1       5.835   3.322  13.685  0.00  0.00    +0.000 A 
ATOM      9  C   UNL     1       6.206   4.095  14.820  0.00  0.00    +0.000 A 
ATOM     10  C   UNL     1       5.715   3.927  16.140  0.00  0.00    +0.000 A 
ATOM     11  C   UNL     1       6.093   4.774  17.204  0.00  0.00    +0.000 A 
ENDROOT
BRANCH  10  12
ATOM     12  O   UNL     1       4.847   2.901  16.445  0.00  0.00    +0.000 OA
ATOM     13  H   UNL     1       5.248   2.048  16.227  0.00  0.00    +0.000 HD
ENDBRANCH  10  12
BRANCH  11  14
ATOM     14  C   UNL     1       5.562   4.475  18.594  0.00  0.00    +0.000 C 
BRANCH  14  15
ATOM     15  N   UNL     1       4.091   4.451  18.822  0.00  0.00    +0.000 NA
ATOM     16  C   UNL     1       3.730   3.348  19.732  0.00  0.00    +0.000 C 
ATOM     17  C   UNL     1       2.283   3.415  20.228  0.00  0.00    +0.000 C 
ATOM     18  C   UNL     1       1.995   4.751  20.892  0.00  0.00    +0.000 C 
ATOM     19  C   UNL     1       2.295   5.875  19.914  0.00  0.00    +0.000 C 
ATOM     20  C   UNL     1       3.721   5.774  19.375  0.00  0.00    +0.000 C 
ENDBRANCH  14  15
ENDBRANCH  11  14
TORSDOF 3
ENDMDL
MODEL 2
REMARK VINA RESULT:      -7.4      0.958      1.360
REMARK  Name = 
REMARK  4 active torsions:
REMARK  status: ('A' for Active; 'I' for Inactive)
REMARK    1  A    between atoms: C_1  and  C_2
REMARK    2  A    between atoms: C_10  and  O_11
REMARK    3  A    between atoms: C_12  and  C_13
REMARK    4  A    between atoms: C_13  and  N_14
REMARK                            x       y       z     vdW  Elec       q    Type
REMARK                         _______ _______ _______ _____ _____    ______ ____
ROOT
ATOM      1  C   UNL     1       7.649   6.738  17.657  0.00  0.00    +0.000 C 
ATOM      2  C   UNL     1       6.950   5.847  16.674  0.00  0.00    +0.000 A 
ATOM      3  N   UNL     1       7.550   5.808  15.453  0.00  0.00    +0.000 NA
ATOM      4  C   UNL     1       7.041   5.049  14.475  0.00  0.00    +0.000 A 
ATOM      5  C   UNL     1       7.690   5.057  13.248  0.00  0.00    +0.000 A 
ATOM      6  C   UNL     1       7.230   4.314  12.161  0.00  0.00    +0.000 A 
ATOM      7  C   UNL     1       6.090   3.533  12.300  0.00  0.00    +0.000 A 
ATOM      8  C   UNL     1       5.429   3.499  13.529  0.00  0.00    +0.000 A 
ATOM      9  C   UNL     1       5.896   4.256  14.640  0.00  0.00    +0.000 A 
ATOM     10  C   UNL     1       5.303   4.299  15.927  0.00  0.00    +0.000 A 
ATOM     11  C   UNL     1       5.795   5.121  16.964  0.00  0.00    +0.000 A 
ENDROOT
BRANCH  10  12
ATOM     12  O   UNL     1       4.213   3.510  16.229  0.00  0.00    +0.000 OA
ATOM     13  H   UNL     1       3.515   3.640  15.572  0.00  0.00    +0.000 HD
ENDBRANCH  10  12
BRANCH  11  14
ATOM     14  C   UNL     1       5.131   5.049  18.326  0.00  0.00    +0.000 C 
BRANCH  14  15
ATOM     15  N   UNL     1       3.725   5.515  18.477  0.00  0.00    +0.000 NA
ATOM     16  C   UNL     1       3.306   5.437  19.888  0.00  0.00    +0.000 C 
ATOM     17  C   UNL     1       1.977   6.142  20.170  0.00  0.00    +0.000 C 
ATOM     18  C   UNL     1       2.023   7.593  19.722  0.00  0.00    +0.000 C 
ATOM     19  C   UNL     1       2.377   7.654  18.245  0.00  0.00    +0.000 C 
ATOM     20  C   UNL     1       3.673   6.900  17.955  0.00  0.00    +0.000 C 
ENDBRANCH  14  15
ENDBRANCH  11  14
TORSDOF 3
ENDMDL
MODEL 3
REMARK VINA RESULT:      -7.1      0.816      1.399
REMARK  Name = 
REMARK  4 active torsions:
REMARK  status: ('A' for Active; 'I' for Inactive)
REMARK    1  A    between atoms: C_1  and  C_2
REMARK    2  A    between atoms: C_10  and  O_11
REMARK    3  A    between atoms: C_12  and  C_13
REMARK    4  A    between atoms: C_13  and  N_14
REMARK                            x       y       z     vdW  Elec       q    Type
REMARK                         _______ _______ _______ _____ _____    ______ ____
ROOT
ATOM      1  C   UNL     1       7.603   6.725  17.841  0.00  0.00    +0.000 C 
ATOM      2  C   UNL     1       7.079   5.735  16.843  0.00  0.00    +0.000 A 
ATOM      3  N   UNL     1       7.545   5.939  15.580  0.00  0.00    +0.000 NA
ATOM      4  C   UNL     1       7.168   5.128  14.584  0.00  0.00    +0.000 A 
ATOM      5  C   UNL     1       7.666   5.390  13.315  0.00  0.00    +0.000 A 
ATOM      6  C   UNL     1       7.321   4.615  12.208  0.00  0.00    +0.000 A 
ATOM      7  C   UNL     1       6.456   3.541  12.369  0.00  0.00    +0.000 A 
ATOM      8  C   UNL     1       5.954   3.250  13.639  0.00  0.00    +0.000 A 
ATOM      9  C   UNL     1       6.303   4.039  14.770  0.00  0.00    +0.000 A 
ATOM     10  C   UNL     1       5.851   3.837  16.098  0.00  0.00    +0.000 A 
ATOM     11  C   UNL     1       6.201   4.700  17.159  0.00  0.00    +0.000 A 
ENDROOT
BRANCH  10  12
ATOM     12  O   UNL     1       5.053   2.759  16.416  0.00  0.00    +0.000 OA
ATOM     13  H   UNL     1       4.139   3.049  16.550  0.00  0.00    +0.000 HD
ENDBRANCH  10  12
BRANCH  11  14
ATOM     14  C   UNL     1       5.718   4.364  18.558  0.00  0.00    +0.000 C 
BRANCH  14  15
ATOM     15  N   UNL     1       4.315   4.681  18.941  0.00  0.00    +0.000 NA
ATOM     16  C   UNL     1       3.652   5.451  17.873  0.00  0.00    +0.000 C 
ATOM     17  C   UNL     1       2.140   5.588  18.067  0.00  0.00    +0.000 C 
ATOM     18  C   UNL     1       1.483   4.225  18.210  0.00  0.00    +0.000 C 
ATOM     19  C   UNL     1       2.122   3.474  19.367  0.00  0.00    +0.000 C 
ATOM     20  C   UNL     1       3.639   3.390  19.201  0.00  0.00    +0.000 C 
ENDBRANCH  14  15
ENDBRANCH  11  14
TORSDOF 3
ENDMDL
MODEL 4
REMARK VINA RESULT:      -6.8      1.502      6.461
REMARK  Name = 
REMARK  4 active torsions:
REMARK  status: ('A' for Active; 'I' for Inactive)
REMARK    1  A    between atoms: C_1  and  C_2
REMARK    2  A    between atoms: C_10  and  O_11
REMARK    3  A    between atoms: C_12  and  C_13
REMARK    4  A    between atoms: C_13  and  N_14
REMARK                            x       y       z     vdW  Elec       q    Type
REMARK                         _______ _______ _______ _____ _____    ______ ____
ROOT
ATOM      1  C   UNL     1       3.104   7.513  17.805  0.00  0.00    +0.000 C 
ATOM      2  C   UNL     1       3.323   6.214  18.521  0.00  0.00    +0.000 A 
ATOM      3  N   UNL     1       2.240   5.797  19.232  0.00  0.00    +0.000 NA
ATOM      4  C   UNL     1       2.286   4.649  19.919  0.00  0.00    +0.000 A 
ATOM      5  C   UNL     1       1.155   4.279  20.634  0.00  0.00    +0.000 A 
ATOM      6  C   UNL     1       1.107   3.110  21.395  0.00  0.00    +0.000 A 
ATOM      7  C   UNL     1       2.219   2.279  21.441  0.00  0.00    +0.000 A 
ATOM      8  C   UNL     1       3.362   2.624  20.718  0.00  0.00    +0.000 A 
ATOM      9  C   UNL     1       3.415   3.816  19.942  0.00  0.00    +0.000 A 
ATOM     10  C   UNL     1       4.520   4.263  19.175  0.00  0.00    +0.000 A 
ATOM     11  C   UNL     1       4.513   5.489  18.475  0.00  0.00    +0.000 A 
ENDROOT
BRANCH  10  12
ATOM     12  O   UNL     1       5.660   3.496  19.066  0.00  0.00    +0.000 OA
ATOM     13  H   UNL     1       6.131   3.712  18.249  0.00  0.00    +0.000 HD
ENDBRANCH  10  12
BRANCH  11  14
ATOM     14  C   UNL     1       5.721   5.850  17.631  0.00  0.00    +0.000 C 
BRANCH  14  15
ATOM     15  N   UNL     1       6.191   4.900  16.586  0.00  0.00    +0.000 NA
ATOM     16  C   UNL     1       5.054   4.422  15.776  0.00  0.00    +0.000 C 
ATOM     17  C   UNL     1       5.478   3.656  14.521  0.00  0.00    +0.000 C 
ATOM     18  C   UNL     1       6.414   4.490  13.662  0.00  0.00    +0.000 C 
ATOM     19  C   UNL     1       7.620   4.907  14.488  0.00  0.00    +0.000 C 
ATOM     20  C   UNL     1       7.194   5.621  15.770  0.00  0.00    +0.000 C 
ENDBRANCH  14  15
ENDBRANCH  11  14
TORSDOF 3
ENDMDL
MODEL 5
REMARK VINA RESULT:      -6.8      1.506      6.372
REMARK  Name = 
REMARK  4 active torsions:
REMARK  status: ('A' for Active; 'I' for Inactive)
REMARK    1  A    between atoms: C_1  and  C_2
REMARK    2  A    between atoms: C_10  and  O_11
REMARK    3  A    between atoms: C_12  and  C_13
REMARK    4  A    between atoms: C_13  and  N_14
REMARK                            x       y       z     vdW  Elec       q    Type
REMARK                         _______ _______ _______ _____ _____    ______ ____
ROOT
ATOM      1  C   UNL     1       3.230   7.652  17.816  0.00  0.00    +0.000 C 
ATOM      2  C   UNL     1       3.431   6.338  18.511  0.00  0.00    +0.000 A 
ATOM      3  N   UNL     1       2.316   5.884  19.146  0.00  0.00    +0.000 NA
ATOM      4  C   UNL     1       2.343   4.719  19.805  0.00  0.00    +0.000 A 
ATOM      5  C   UNL     1       1.180   4.310  20.442  0.00  0.00    +0.000 A 
ATOM      6  C   UNL     1       1.110   3.121  21.169  0.00  0.00    +0.000 A 
ATOM      7  C   UNL     1       2.233   2.309  21.259  0.00  0.00    +0.000 A 
ATOM      8  C   UNL     1       3.409   2.693  20.613  0.00  0.00    +0.000 A 
ATOM      9  C   UNL     1       3.484   3.905  19.872  0.00  0.00    +0.000 A 
ATOM     10  C   UNL     1       4.624   4.391  19.184  0.00  0.00    +0.000 A 
ATOM     11  C   UNL     1       4.635   5.635  18.516  0.00  0.00    +0.000 A 
ENDROOT
BRANCH  10  12
ATOM     12  O   UNL     1       5.783   3.648  19.123  0.00  0.00    +0.000 OA
ATOM     13  H   UNL     1       5.886   3.123  19.929  0.00  0.00    +0.000 HD
ENDBRANCH  10  12
BRANCH  11  14
ATOM     14  C   UNL     1       5.883   6.040  17.754  0.00  0.00    +0.000 C 
BRANCH  14  15
ATOM     15  N   UNL     1       5.932   5.846  16.279  0.00  0.00    +0.000 NA
ATOM     16  C   UNL     1       7.271   5.390  15.864  0.00  0.00    +0.000 C 
ATOM     17  C   UNL     1       7.331   4.914  14.411  0.00  0.00    +0.000 C 
ATOM     18  C   UNL     1       6.307   3.821  14.152  0.00  0.00    +0.000 C 
ATOM     19  C   UNL     1       4.921   4.334  14.508  0.00  0.00    +0.000 C 
ATOM     20  C   UNL     1       4.878   4.863  15.941  0.00  0.00    +0.000 C 
ENDBRANCH  14  15
ENDBRANCH  11  14
TORSDOF 3
ENDMDL
MODEL 6
REMARK VINA RESULT:      -6.6      2.488      6.113
REMARK  Name = 
REMARK  4 active torsions:
REMARK  status: ('A' for Active; 'I' for Inactive)
REMARK    1  A    between atoms: C_1  and  C_2
REMARK    2  A    between atoms: C_10  and  O_11
REMARK    3  A    between atoms: C_12  and  C_13
REMARK    4  A    between atoms: C_13  and  N_14
REMARK                            x       y       z     vdW  Elec       q    Type
REMARK                         _______ _______ _______ _____ _____    ______ ____
ROOT
ATOM      1  C   UNL     1       3.130   7.708  17.819  0.00  0.00    +0.000 C 
ATOM      2  C   UNL     1       3.111   6.241  18.126  0.00  0.00    +0.000 A 
ATOM      3  N   UNL     1       2.194   5.895  19.072  0.00  0.00    +0.000 NA
ATOM      4  C   UNL     1       2.059   4.617  19.444  0.00  0.00    +0.000 A 
ATOM      5  C   UNL     1       1.115   4.325  20.420  0.00  0.00    +0.000 A 
ATOM      6  C   UNL     1       0.909   3.028  20.888  0.00  0.00    +0.000 A 
ATOM      7  C   UNL     1       1.662   1.985  20.365  0.00  0.00    +0.000 A 
ATOM      8  C   UNL     1       2.606   2.253  19.373  0.00  0.00    +0.000 A 
ATOM      9  C   UNL     1       2.820   3.575  18.893  0.00  0.00    +0.000 A 
ATOM     10  C   UNL     1       3.751   3.959  17.895  0.00  0.00    +0.000 A 
ATOM     11  C   UNL     1       3.943   5.305  17.513  0.00  0.00    +0.000 A 
ENDROOT
BRANCH  10  12
ATOM     12  O   UNL     1       4.507   3.016  17.234  0.00  0.00    +0.000 OA
ATOM     13  H   UNL     1       5.320   3.417  16.895  0.00  0.00    +0.000 HD
ENDBRANCH  10  12
BRANCH  11  14
ATOM     14  C   UNL     1       4.917   5.610  16.391  0.00  0.00    +0.000 C 
BRANCH  14  15
ATOM     15  N   UNL     1       6.337   5.914  16.721  0.00  0.00    +0.000 NA
ATOM     16  C   UNL     1       6.500   7.349  17.014  0.00  0.00    +0.000 C 
ATOM     17  C   UNL     1       7.863   7.698  17.618  0.00  0.00    +0.000 C 
ATOM     18  C   UNL     1       8.131   6.878  18.869  0.00  0.00    +0.000 C 
ATOM     19  C   UNL     1       8.039   5.398  18.532  0.00  0.00    +0.000 C 
ATOM     20  C   UNL     1       6.701   5.062  17.876  0.00  0.00    +0.000 C 
ENDBRANCH  14  15
ENDBRANCH  11  14
TORSDOF 3
ENDMDL
MODEL 7
REMARK VINA RESULT:      -6.6      1.259      6.390
REMARK  Name = 
REMARK  4 active torsions:
REMARK  status: ('A' for Active; 'I' for Inactive)
REMARK    1  A    between atoms: C_1  and  C_2
REMARK    2  A    between atoms: C_10  and  O_11
REMARK    3  A    between atoms: C_12  and  C_13
REMARK    4  A    between atoms: C_13  and  N_14
REMARK                            x       y       z     vdW  Elec       q    Type
REMARK                         _______ _______ _______ _____ _____    ______ ____
ROOT
ATOM      1  C   UNL     1       5.506   6.946  17.121  0.00  0.00    +0.000 C 
ATOM      2  C   UNL     1       4.753   5.755  17.635  0.00  0.00    +0.000 A 
ATOM      3  N   UNL     1       3.730   6.079  18.473  0.00  0.00    +0.000 NA
ATOM      4  C   UNL     1       2.964   5.118  19.004  0.00  0.00    +0.000 A 
ATOM      5  C   UNL     1       1.943   5.507  19.860  0.00  0.00    +0.000 A 
ATOM      6  C   UNL     1       1.101   4.583  20.478  0.00  0.00    +0.000 A 
ATOM      7  C   UNL     1       1.276   3.227  20.232  0.00  0.00    +0.000 A 
ATOM      8  C   UNL     1       2.288   2.815  19.364  0.00  0.00    +0.000 A 
ATOM      9  C   UNL     1       3.149   3.754  18.732  0.00  0.00    +0.000 A 
ATOM     10  C   UNL     1       4.206   3.447  17.839  0.00  0.00    +0.000 A 
ATOM     11  C   UNL     1       5.055   4.436  17.297  0.00  0.00    +0.000 A 
ENDROOT
BRANCH  10  12
ATOM     12  O   UNL     1       4.441   2.147  17.444  0.00  0.00    +0.000 OA
ATOM     13  H   UNL     1       5.356   1.899  17.638  0.00  0.00    +0.000 HD
ENDBRANCH  10  12
BRANCH  11  14
ATOM     14  C   UNL     1       6.118   4.014  16.300  0.00  0.00    +0.000 C 
BRANCH  14  15
ATOM     15  N   UNL     1       6.032   4.495  14.894  0.00  0.00    +0.000 NA
ATOM     16  C   UNL     1       7.358   4.927  14.416  0.00  0.00    +0.000 C 
ATOM     17  C   UNL     1       7.409   5.182  12.908  0.00  0.00    +0.000 C 
ATOM     18  C   UNL     1       6.950   3.960  12.131  0.00  0.00    +0.000 C 
ATOM     19  C   UNL     1       5.549   3.575  12.578  0.00  0.00    +0.000 C 
ATOM     20  C   UNL     1       5.485   3.377  14.092  0.00  0.00    +0.000 C 
ENDBRANCH  14  15
ENDBRANCH  11  14
TORSDOF 3
ENDMDL
MODEL 8
REMARK VINA RESULT:      -6.6      2.883      7.172
REMARK  Name = 
REMARK  4 active torsions:
REMARK  status: ('A' for Active; 'I' for Inactive)
REMARK    1  A    between atoms: C_1  and  C_2
REMARK    2  A    between atoms: C_10  and  O_11
REMARK    3  A    between atoms: C_12  and  C_13
REMARK    4  A    between atoms: C_13  and  N_14
REMARK                            x       y       z     vdW  Elec       q    Type
REMARK                         _______ _______ _______ _____ _____    ______ ____
ROOT
ATOM      1  C   UNL     1       2.342   4.560  20.789  0.00  0.00    +0.000 C 
ATOM      2  C   UNL     1       2.201   5.891  20.113  0.00  0.00    +0.000 A 
ATOM      3  N   UNL     1       1.514   6.805  20.851  0.00  0.00    +0.000 NA
ATOM      4  C   UNL     1       1.314   8.042  20.379  0.00  0.00    +0.000 A 
ATOM      5  C   UNL     1       0.598   8.928  21.171  0.00  0.00    +0.000 A 
ATOM      6  C   UNL     1       0.321  10.233  20.762  0.00  0.00    +0.000 A 
ATOM      7  C   UNL     1       0.779  10.672  19.526  0.00  0.00    +0.000 A 
ATOM      8  C   UNL     1       1.513   9.802  18.719  0.00  0.00    +0.000 A 
ATOM      9  C   UNL     1       1.796   8.471  19.133  0.00  0.00    +0.000 A 
ATOM     10  C   UNL     1       2.527   7.506  18.394  0.00  0.00    +0.000 A 
ATOM     11  C   UNL     1       2.717   6.184  18.851  0.00  0.00    +0.000 A 
ENDROOT
BRANCH  10  12
ATOM     12  O   UNL     1       3.107   7.832  17.187  0.00  0.00    +0.000 OA
ATOM     13  H   UNL     1       2.507   8.385  16.667  0.00  0.00    +0.000 HD
ENDBRANCH  10  12
BRANCH  11  14
ATOM     14  C   UNL     1       3.567   5.243  18.019  0.00  0.00    +0.000 C 
BRANCH  14  15
ATOM     15  N   UNL     1       4.986   5.598  17.739  0.00  0.00    +0.000 NA
ATOM     16  C   UNL     1       5.803   5.450  18.957  0.00  0.00    +0.000 C 
ATOM     17  C   UNL     1       7.309   5.536  18.696  0.00  0.00    +0.000 C 
ATOM     18  C   UNL     1       7.741   4.518  17.653  0.00  0.00    +0.000 C 
ATOM     19  C   UNL     1       6.947   4.736  16.375  0.00  0.00    +0.000 C 
ATOM     20  C   UNL     1       5.443   4.709  16.647  0.00  0.00    +0.000 C 
ENDBRANCH  14  15
ENDBRANCH  11  14
TORSDOF 3
ENDMDL
MODEL 9
REMARK VINA RESULT:      -6.5      5.287      7.864
REMARK  Name = 
REMARK  4 active torsions:
REMARK  status: ('A' for Active; 'I' for Inactive)
REMARK    1  A    between atoms: C_1  and  C_2
REMARK    2  A    between atoms: C_10  and  O_11
REMARK    3  A    between atoms: C_12  and  C_13
REMARK    4  A    between atoms: C_13  and  N_14
REMARK                            x       y       z     vdW  Elec       q    Type
REMARK                         _______ _______ _______ _____ _____    ______ ____
ROOT
ATOM      1  C   UNL     1       0.022   8.817  21.756  0.00  0.00    +0.000 C 
ATOM      2  C   UNL     1       0.892   8.577  20.558  0.00  0.00    +0.000 A 
ATOM      3  N   UNL     1       1.600   7.417  20.624  0.00  0.00    +0.000 NA
ATOM      4  C   UNL     1       2.416   7.066  19.622  0.00  0.00    +0.000 A 
ATOM      5  C   UNL     1       3.120   5.877  19.749  0.00  0.00    +0.000 A 
ATOM      6  C   UNL     1       4.008   5.432  18.769  0.00  0.00    +0.000 A 
ATOM      7  C   UNL     1       4.195   6.192  17.621  0.00  0.00    +0.000 A 
ATOM      8  C   UNL     1       3.486   7.383  17.466  0.00  0.00    +0.000 A 
ATOM      9  C   UNL     1       2.581   7.841  18.464  0.00  0.00    +0.000 A 
ATOM     10  C   UNL     1       1.815   9.033  18.411  0.00  0.00    +0.000 A 
ATOM     11  C   UNL     1       0.979   9.446  19.471  0.00  0.00    +0.000 A 
ENDROOT
BRANCH  10  12
ATOM     12  O   UNL     1       1.842   9.841  17.295  0.00  0.00    +0.000 OA
ATOM     13  H   UNL     1       1.294  10.625  17.437  0.00  0.00    +0.000 HD
ENDBRANCH  10  12
BRANCH  11  14
ATOM     14  C   UNL     1       0.151  10.705  19.294  0.00  0.00    +0.000 C 
BRANCH  14  15
ATOM     15  N   UNL     1      -1.325  10.590  19.136  0.00  0.00    +0.000 NA
ATOM     16  C   UNL     1      -1.967  11.903  19.332  0.00  0.00    +0.000 C 
ATOM     17  C   UNL     1      -3.443  11.927  18.927  0.00  0.00    +0.000 C 
ATOM     18  C   UNL     1      -3.622  11.471  17.488  0.00  0.00    +0.000 C 
ATOM     19  C   UNL     1      -3.027  10.082  17.321  0.00  0.00    +0.000 C 
ATOM     20  C   UNL     1      -1.570  10.045  17.781  0.00  0.00    +0.000 C 
ENDBRANCH  14  15
ENDBRANCH  11  14
TORSDOF 3
ENDMDL
