MODEL 1
REMARK VINA RESULT:      -5.8      0.000      0.000
REMARK  Name = 
REMARK  0 active torsions:
REMARK  status: ('A' for Active; 'I' for Inactive)
REMARK                            x       y       z     vdW  Elec       q    Type
REMARK                         _______ _______ _______ _____ _____    ______ ____
ROOT
ATOM      1  N   UNL     1       6.995   4.276  18.268  0.00  0.00    +0.000 N 
ATOM      2  C   UNL     1       5.664   4.464  18.560  0.00  0.00    +0.000 C 
ATOM      3  N   UNL     1       5.113   3.583  19.334  0.00  0.00    +0.000 NA
ATOM      4  C   UNL     1       3.772   3.667  19.744  0.00  0.00    +0.000 A 
ATOM      5  C   UNL     1       3.310   2.635  20.575  0.00  0.00    +0.000 A 
ATOM      6  C   UNL     1       2.009   2.633  21.088  0.00  0.00    +0.000 A 
ATOM      7  C   UNL     1       1.143   3.669  20.767  0.00  0.00    +0.000 A 
ATOM      8  C   UNL     1       1.585   4.702  19.940  0.00  0.00    +0.000 A 
ATOM      9  C   UNL     1       2.896   4.710  19.429  0.00  0.00    +0.000 A 
ATOM     10  S   UNL     1       3.357   6.111  18.444  0.00  0.00    +0.000 S 
ATOM     11  C   UNL     1       5.001   5.657  17.906  0.00  0.00    +0.000 C 
ATOM     12  H   UNL     1       7.336   3.345  18.480  0.00  0.00    +0.000 HD
ATOM     13  H   UNL     1       7.383   4.700  17.435  0.00  0.00    +0.000 HD
ENDROOT
TORSDOF 0
ENDMDL
MODEL 2
REMARK VINA RESULT:      -5.5      1.721      1.764
REMARK  Name = 
REMARK  0 active torsions:
REMARK  status: ('A' for Active; 'I' for Inactive)
REMARK                            x       y       z     vdW  Elec       q    Type
REMARK                         _______ _______ _______ _____ _____    ______ ____
ROOT
ATOM      1  N   UNL     1       5.818   3.534  16.140  0.00  0.00    +0.000 N 
ATOM      2  C   UNL     1       4.931   3.904  17.124  0.00  0.00    +0.000 C 
ATOM      3  N   UNL     1       3.875   3.165  17.258  0.00  0.00    +0.000 NA
ATOM      4  C   UNL     1       2.902   3.403  18.243  0.00  0.00    +0.000 A 
ATOM      5  C   UNL     1       1.808   2.524  18.261  0.00  0.00    +0.000 A 
ATOM      6  C   UNL     1       0.800   2.629  19.224  0.00  0.00    +0.000 A 
ATOM      7  C   UNL     1       0.870   3.628  20.186  0.00  0.00    +0.000 A 
ATOM      8  C   UNL     1       1.949   4.511  20.180  0.00  0.00    +0.000 A 
ATOM      9  C   UNL     1       2.969   4.403  19.217  0.00  0.00    +0.000 A 
ATOM     10  S   UNL     1       4.319   5.544  19.357  0.00  0.00    +0.000 S 
ATOM     11  C   UNL     1       5.282   5.155  17.901  0.00  0.00    +0.000 C 
ATOM     12  H   UNL     1       5.436   2.880  15.466  0.00  0.00    +0.000 HD
ATOM     13  H   UNL     1       6.453   4.225  15.762  0.00  0.00    +0.000 HD
ENDROOT
TORSDOF 0
ENDMDL
MODEL 3
REMARK VINA RESULT:      -5.5      2.165      2.755
REMARK  Name = 
REMARK  0 active torsions:
REMARK  status: ('A' for Active; 'I' for Inactive)
REMARK                            x       y       z     vdW  Elec       q    Type
REMARK                         _______ _______ _______ _____ _____    ______ ____
ROOT
ATOM      1  N   UNL     1       8.213   5.652  19.796  0.00  0.00    +0.000 N 
ATOM      2  C   UNL     1       7.135   5.240  19.046  0.00  0.00    +0.000 C 
ATOM      3  N   UNL     1       5.968   5.361  19.596  0.00  0.00    +0.000 NA
ATOM      4  C   UNL     1       4.779   5.014  18.935  0.00  0.00    +0.000 A 
ATOM      5  C   UNL     1       3.590   5.191  19.660  0.00  0.00    +0.000 A 
ATOM      6  C   UNL     1       2.340   4.927  19.092  0.00  0.00    +0.000 A 
ATOM      7  C   UNL     1       2.262   4.471  17.784  0.00  0.00    +0.000 A 
ATOM      8  C   UNL     1       3.434   4.287  17.050  0.00  0.00    +0.000 A 
ATOM      9  C   UNL     1       4.693   4.559  17.615  0.00  0.00    +0.000 A 
ATOM     10  S   UNL     1       6.101   4.348  16.559  0.00  0.00    +0.000 S 
ATOM     11  C   UNL     1       7.456   4.658  17.686  0.00  0.00    +0.000 C 
ATOM     12  H   UNL     1       8.007   5.771  20.782  0.00  0.00    +0.000 HD
ATOM     13  H   UNL     1       9.131   5.283  19.587  0.00  0.00    +0.000 HD
ENDROOT
TORSDOF 0
ENDMDL
MODEL 4
REMARK VINA RESULT:      -5.5      1.499      1.517
REMARK  Name = 
REMARK  0 active torsions:
REMARK  status: ('A' for Active; 'I' for Inactive)
REMARK                            x       y       z     vdW  Elec       q    Type
REMARK                         _______ _______ _______ _____ _____    ______ ____
ROOT
ATOM      1  N   UNL     1       7.525   5.132  19.370  0.00  0.00    +0.000 N 
ATOM      2  C   UNL     1       6.242   5.029  18.885  0.00  0.00    +0.000 C 
ATOM      3  N   UNL     1       5.553   4.006  19.285  0.00  0.00    +0.000 NA
ATOM      4  C   UNL     1       4.220   3.792  18.900  0.00  0.00    +0.000 A 
ATOM      5  C   UNL     1       3.605   2.636  19.405  0.00  0.00    +0.000 A 
ATOM      6  C   UNL     1       2.266   2.339  19.132  0.00  0.00    +0.000 A 
ATOM      7  C   UNL     1       1.521   3.199  18.337  0.00  0.00    +0.000 A 
ATOM      8  C   UNL     1       2.117   4.351  17.825  0.00  0.00    +0.000 A 
ATOM      9  C   UNL     1       3.462   4.656  18.104  0.00  0.00    +0.000 A 
ATOM     10  S   UNL     1       4.083   6.182  17.450  0.00  0.00    +0.000 S 
ATOM     11  C   UNL     1       5.810   6.104  17.912  0.00  0.00    +0.000 C 
ATOM     12  H   UNL     1       7.879   4.276  19.784  0.00  0.00    +0.000 HD
ATOM     13  H   UNL     1       8.205   5.678  18.857  0.00  0.00    +0.000 HD
ENDROOT
TORSDOF 0
ENDMDL
MODEL 5
REMARK VINA RESULT:      -5.4      1.900      2.691
REMARK  Name = 
REMARK  0 active torsions:
REMARK  status: ('A' for Active; 'I' for Inactive)
REMARK                            x       y       z     vdW  Elec       q    Type
REMARK                         _______ _______ _______ _____ _____    ______ ____
ROOT
ATOM      1  N   UNL     1       8.450   5.392  20.065  0.00  0.00    +0.000 N 
ATOM      2  C   UNL     1       7.315   5.595  19.315  0.00  0.00    +0.000 C 
ATOM      3  N   UNL     1       6.218   5.084  19.777  0.00  0.00    +0.000 NA
ATOM      4  C   UNL     1       4.979   5.241  19.134  0.00  0.00    +0.000 A 
ATOM      5  C   UNL     1       3.878   4.623  19.747  0.00  0.00    +0.000 A 
ATOM      6  C   UNL     1       2.585   4.749  19.230  0.00  0.00    +0.000 A 
ATOM      7  C   UNL     1       2.376   5.495  18.079  0.00  0.00    +0.000 A 
ATOM      8  C   UNL     1       3.459   6.114  17.456  0.00  0.00    +0.000 A 
ATOM      9  C   UNL     1       4.760   5.996  17.978  0.00  0.00    +0.000 A 
ATOM     10  S   UNL     1       6.041   6.884  17.132  0.00  0.00    +0.000 S 
ATOM     11  C   UNL     1       7.502   6.358  18.021  0.00  0.00    +0.000 C 
ATOM     12  H   UNL     1       8.358   4.660  20.762  0.00  0.00    +0.000 HD
ATOM     13  H   UNL     1       9.356   5.453  19.619  0.00  0.00    +0.000 HD
ENDROOT
TORSDOF 0
ENDMDL
MODEL 6
REMARK VINA RESULT:      -5.4      2.031      3.802
REMARK  Name = 
REMARK  0 active torsions:
REMARK  status: ('A' for Active; 'I' for Inactive)
REMARK                            x       y       z     vdW  Elec       q    Type
REMARK                         _______ _______ _______ _____ _____    ______ ____
ROOT
ATOM      1  N   UNL     1       3.939   0.866  18.265  0.00  0.00    +0.000 N 
ATOM      2  C   UNL     1       3.506   2.162  18.424  0.00  0.00    +0.000 C 
ATOM      3  N   UNL     1       4.205   3.081  17.835  0.00  0.00    +0.000 NA
ATOM      4  C   UNL     1       3.861   4.442  17.882  0.00  0.00    +0.000 A 
ATOM      5  C   UNL     1       4.718   5.323  17.204  0.00  0.00    +0.000 A 
ATOM      6  C   UNL     1       4.455   6.695  17.137  0.00  0.00    +0.000 A 
ATOM      7  C   UNL     1       3.325   7.208  17.759  0.00  0.00    +0.000 A 
ATOM      8  C   UNL     1       2.465   6.347  18.439  0.00  0.00    +0.000 A 
ATOM      9  C   UNL     1       2.722   4.965  18.501  0.00  0.00    +0.000 A 
ATOM     10  S   UNL     1       1.519   3.969  19.338  0.00  0.00    +0.000 S 
ATOM     11  C   UNL     1       2.288   2.354  19.302  0.00  0.00    +0.000 C 
ATOM     12  H   UNL     1       4.889   0.789  17.919  0.00  0.00    +0.000 HD
ATOM     13  H   UNL     1       3.668   0.167  18.945  0.00  0.00    +0.000 HD
ENDROOT
TORSDOF 0
ENDMDL
MODEL 7
REMARK VINA RESULT:      -5.4      1.674      3.569
REMARK  Name = 
REMARK  0 active torsions:
REMARK  status: ('A' for Active; 'I' for Inactive)
REMARK                            x       y       z     vdW  Elec       q    Type
REMARK                         _______ _______ _______ _____ _____    ______ ____
ROOT
ATOM      1  N   UNL     1       4.932   1.687  19.853  0.00  0.00    +0.000 N 
ATOM      2  C   UNL     1       4.259   2.883  19.751  0.00  0.00    +0.000 C 
ATOM      3  N   UNL     1       4.722   3.736  18.893  0.00  0.00    +0.000 NA
ATOM      4  C   UNL     1       4.116   4.981  18.659  0.00  0.00    +0.000 A 
ATOM      5  C   UNL     1       4.736   5.805  17.706  0.00  0.00    +0.000 A 
ATOM      6  C   UNL     1       4.200   7.047  17.351  0.00  0.00    +0.000 A 
ATOM      7  C   UNL     1       3.031   7.487  17.955  0.00  0.00    +0.000 A 
ATOM      8  C   UNL     1       2.404   6.683  18.907  0.00  0.00    +0.000 A 
ATOM      9  C   UNL     1       2.936   5.430  19.260  0.00  0.00    +0.000 A 
ATOM     10  S   UNL     1       2.011   4.474  20.432  0.00  0.00    +0.000 S 
ATOM     11  C   UNL     1       3.084   3.066  20.688  0.00  0.00    +0.000 C 
ATOM     12  H   UNL     1       5.855   1.697  19.432  0.00  0.00    +0.000 HD
ATOM     13  H   UNL     1       4.849   1.143  20.701  0.00  0.00    +0.000 HD
ENDROOT
TORSDOF 0
ENDMDL
MODEL 8
REMARK VINA RESULT:      -5.4      2.003      4.527
REMARK  Name = 
REMARK  0 active torsions:
REMARK  status: ('A' for Active; 'I' for Inactive)
REMARK                            x       y       z     vdW  Elec       q    Type
REMARK                         _______ _______ _______ _____ _____    ______ ____
ROOT
ATOM      1  N   UNL     1       4.354   2.243  19.967  0.00  0.00    +0.000 N 
ATOM      2  C   UNL     1       4.616   3.392  19.258  0.00  0.00    +0.000 C 
ATOM      3  N   UNL     1       5.756   3.965  19.487  0.00  0.00    +0.000 NA
ATOM      4  C   UNL     1       6.171   5.123  18.811  0.00  0.00    +0.000 A 
ATOM      5  C   UNL     1       7.427   5.636  19.171  0.00  0.00    +0.000 A 
ATOM      6  C   UNL     1       7.971   6.757  18.534  0.00  0.00    +0.000 A 
ATOM      7  C   UNL     1       7.255   7.388  17.526  0.00  0.00    +0.000 A 
ATOM      8  C   UNL     1       6.005   6.893  17.158  0.00  0.00    +0.000 A 
ATOM      9  C   UNL     1       5.458   5.761  17.791  0.00  0.00    +0.000 A 
ATOM     10  S   UNL     1       3.892   5.191  17.187  0.00  0.00    +0.000 S 
ATOM     11  C   UNL     1       3.519   3.864  18.328  0.00  0.00    +0.000 C 
ATOM     12  H   UNL     1       4.962   2.104  20.767  0.00  0.00    +0.000 HD
ATOM     13  H   UNL     1       3.394   1.949  20.097  0.00  0.00    +0.000 HD
ENDROOT
TORSDOF 0
ENDMDL
MODEL 9
REMARK VINA RESULT:      -5.4      1.918      2.121
REMARK  Name = 
REMARK  0 active torsions:
REMARK  status: ('A' for Active; 'I' for Inactive)
REMARK                            x       y       z     vdW  Elec       q    Type
REMARK                         _______ _______ _______ _____ _____    ______ ____
ROOT
ATOM      1  N   UNL     1       7.704   5.225  19.048  0.00  0.00    +0.000 N 
ATOM      2  C   UNL     1       6.570   4.702  18.472  0.00  0.00    +0.000 C 
ATOM      3  N   UNL     1       5.679   4.222  19.282  0.00  0.00    +0.000 NA
ATOM      4  C   UNL     1       4.459   3.688  18.836  0.00  0.00    +0.000 A 
ATOM      5  C   UNL     1       3.597   3.197  19.829  0.00  0.00    +0.000 A 
ATOM      6  C   UNL     1       2.334   2.685  19.514  0.00  0.00    +0.000 A 
ATOM      7  C   UNL     1       1.916   2.653  18.191  0.00  0.00    +0.000 A 
ATOM      8  C   UNL     1       2.762   3.134  17.192  0.00  0.00    +0.000 A 
ATOM      9  C   UNL     1       4.030   3.656  17.506  0.00  0.00    +0.000 A 
ATOM     10  S   UNL     1       4.983   4.298  16.155  0.00  0.00    +0.000 S 
ATOM     11  C   UNL     1       6.525   4.716  16.959  0.00  0.00    +0.000 C 
ATOM     12  H   UNL     1       7.835   4.957  20.017  0.00  0.00    +0.000 HD
ATOM     13  H   UNL     1       8.551   5.294  18.499  0.00  0.00    +0.000 HD
ENDROOT
TORSDOF 0
ENDMDL
