MODEL 1
REMARK VINA RESULT:      -8.5      0.000      0.000
REMARK  Name = 
REMARK  4 active torsions:
REMARK  status: ('A' for Active; 'I' for Inactive)
REMARK    1  A    between atoms: C_1  and  C_2
REMARK    2  A    between atoms: C_2  and  N_3
REMARK    3  A    between atoms: C_14  and  C_15
REMARK    4  A    between atoms: C_16  and  C_17
REMARK                            x       y       z     vdW  Elec       q    Type
REMARK                         _______ _______ _______ _____ _____    ______ ____
ROOT
ATOM      1  N   UNL     1       2.847   3.215  18.349  0.00  0.00    +0.000 NA
ATOM      2  C   UNL     1       3.398   3.498  19.696  0.00  0.00    +0.000 C 
ATOM      3  C   UNL     1       4.886   3.913  19.628  0.00  0.00    +0.000 C 
ATOM      4  C   UNL     1       5.095   4.968  18.587  0.00  0.00    +0.000 A 
ATOM      5  C   UNL     1       4.141   5.181  17.611  0.00  0.00    +0.000 A 
ATOM      6  S   UNL     1       4.575   6.428  16.536  0.00  0.00    +0.000 S 
ATOM      7  C   UNL     1       6.033   6.705  17.368  0.00  0.00    +0.000 A 
ATOM      8  C   UNL     1       6.212   5.845  18.426  0.00  0.00    +0.000 A 
ATOM      9  C   UNL     1       7.421   5.936  19.213  0.00  0.00    +0.000 C 
ATOM     10  O   UNL     1       7.683   5.198  20.154  0.00  0.00    +0.000 OA
ATOM     11  N   UNL     1       8.293   6.924  18.845  0.00  0.00    +0.000 N 
ATOM     12  C   UNL     1       8.171   7.792  17.711  0.00  0.00    +0.000 C 
ATOM     13  N   UNL     1       6.912   7.667  17.034  0.00  0.00    +0.000 N 
ATOM     14  C   UNL     1       2.840   4.442  17.513  0.00  0.00    +0.000 C 
ATOM     15  H   UNL     1       9.142   6.949  19.387  0.00  0.00    +0.000 HD
ATOM     16  H   UNL     1       6.791   8.207  16.185  0.00  0.00    +0.000 HD
ENDROOT
BRANCH   1  18
ATOM     17  C   UNL     1       0.876   2.812  19.823  0.00  0.00    +0.000 C 
ATOM     18  C   UNL     1       1.512   2.610  18.452  0.00  0.00    +0.000 C 
ENDBRANCH   1  18
BRANCH  12  19
ATOM     19  C   UNL     1       8.283   9.194  18.220  0.00  0.00    +0.000 C 
ATOM     20  C   UNL     1       9.262   9.644  19.019  0.00  0.00    +0.000 C 
BRANCH  20  21
ATOM     21  C   UNL     1       9.275  10.987  19.490  0.00  0.00    +0.000 A 
ATOM     22  C   UNL     1       9.516  11.450  20.779  0.00  0.00    +0.000 A 
ATOM     23  C   UNL     1       9.408  12.861  20.766  0.00  0.00    +0.000 A 
ATOM     24  C   UNL     1       9.107  13.200  19.472  0.00  0.00    +0.000 A 
ATOM     25  O   UNL     1       9.025  12.090  18.700  0.00  0.00    +0.000 OA
ENDBRANCH  20  21
ENDBRANCH  12  19
TORSDOF 3
ENDMDL
MODEL 2
REMARK VINA RESULT:      -7.6      1.027      1.214
REMARK  Name = 
REMARK  4 active torsions:
REMARK  status: ('A' for Active; 'I' for Inactive)
REMARK    1  A    between atoms: C_1  and  C_2
REMARK    2  A    between atoms: C_2  and  N_3
REMARK    3  A    between atoms: C_14  and  C_15
REMARK    4  A    between atoms: C_16  and  C_17
REMARK                            x       y       z     vdW  Elec       q    Type
REMARK                         _______ _______ _______ _____ _____    ______ ____
ROOT
ATOM      1  N   UNL     1       2.292   3.616  19.205  0.00  0.00    +0.000 NA
ATOM      2  C   UNL     1       3.366   3.587  20.229  0.00  0.00    +0.000 C 
ATOM      3  C   UNL     1       4.752   3.882  19.610  0.00  0.00    +0.000 C 
ATOM      4  C   UNL     1       4.697   5.096  18.737  0.00  0.00    +0.000 A 
ATOM      5  C   UNL     1       3.481   5.573  18.285  0.00  0.00    +0.000 A 
ATOM      6  S   UNL     1       3.645   6.963  17.316  0.00  0.00    +0.000 S 
ATOM      7  C   UNL     1       5.337   6.950  17.500  0.00  0.00    +0.000 A 
ATOM      8  C   UNL     1       5.781   5.891  18.255  0.00  0.00    +0.000 A 
ATOM      9  C   UNL     1       7.200   5.726  18.475  0.00  0.00    +0.000 C 
ATOM     10  O   UNL     1       7.693   4.801  19.108  0.00  0.00    +0.000 OA
ATOM     11  N   UNL     1       8.000   6.690  17.923  0.00  0.00    +0.000 N 
ATOM     12  C   UNL     1       7.579   7.768  17.077  0.00  0.00    +0.000 C 
ATOM     13  N   UNL     1       6.152   7.882  16.972  0.00  0.00    +0.000 N 
ATOM     14  C   UNL     1       2.149   4.978  18.631  0.00  0.00    +0.000 C 
ATOM     15  H   UNL     1       8.986   6.539  18.063  0.00  0.00    +0.000 HD
ATOM     16  H   UNL     1       5.793   8.584  16.335  0.00  0.00    +0.000 HD
ENDROOT
BRANCH   1  18
ATOM     17  C   UNL     1       1.161   2.673  21.218  0.00  0.00    +0.000 C 
ATOM     18  C   UNL     1       1.030   3.117  19.765  0.00  0.00    +0.000 C 
ENDBRANCH   1  18
BRANCH  12  19
ATOM     19  C   UNL     1       8.097   9.031  17.687  0.00  0.00    +0.000 C 
ATOM     20  C   UNL     1       8.845   9.095  18.799  0.00  0.00    +0.000 C 
BRANCH  20  21
ATOM     21  C   UNL     1       9.268  10.343  19.336  0.00  0.00    +0.000 A 
ATOM     22  C   UNL     1       9.635  11.499  18.656  0.00  0.00    +0.000 A 
ATOM     23  C   UNL     1       9.994  12.477  19.614  0.00  0.00    +0.000 A 
ATOM     24  C   UNL     1       9.830  11.879  20.836  0.00  0.00    +0.000 A 
ATOM     25  O   UNL     1       9.397  10.604  20.685  0.00  0.00    +0.000 OA
ENDBRANCH  20  21
ENDBRANCH  12  19
TORSDOF 3
ENDMDL
MODEL 3
REMARK VINA RESULT:      -7.4      5.897      7.649
REMARK  Name = 
REMARK  4 active torsions:
REMARK  status: ('A' for Active; 'I' for Inactive)
REMARK    1  A    between atoms: C_1  and  C_2
REMARK    2  A    between atoms: C_2  and  N_3
REMARK    3  A    between atoms: C_14  and  C_15
REMARK    4  A    between atoms: C_16  and  C_17
REMARK                            x       y       z     vdW  Elec       q    Type
REMARK                         _______ _______ _______ _____ _____    ______ ____
ROOT
ATOM      1  N   UNL     1       3.961   3.534  19.831  0.00  0.00    +0.000 NA
ATOM      2  C   UNL     1       2.626   3.609  20.473  0.00  0.00    +0.000 C 
ATOM      3  C   UNL     1       2.274   5.056  20.890  0.00  0.00    +0.000 C 
ATOM      4  C   UNL     1       2.526   6.010  19.765  0.00  0.00    +0.000 A 
ATOM      5  C   UNL     1       3.330   5.637  18.705  0.00  0.00    +0.000 A 
ATOM      6  S   UNL     1       3.479   6.866  17.536  0.00  0.00    +0.000 S 
ATOM      7  C   UNL     1       2.463   7.902  18.425  0.00  0.00    +0.000 A 
ATOM      8  C   UNL     1       2.042   7.344  19.609  0.00  0.00    +0.000 A 
ATOM      9  C   UNL     1       1.196   8.116  20.491  0.00  0.00    +0.000 C 
ATOM     10  O   UNL     1       0.794   7.718  21.576  0.00  0.00    +0.000 OA
ATOM     11  N   UNL     1       0.850   9.360  20.039  0.00  0.00    +0.000 N 
ATOM     12  C   UNL     1       1.323   9.998  18.845  0.00  0.00    +0.000 C 
ATOM     13  N   UNL     1       2.103   9.129  18.010  0.00  0.00    +0.000 N 
ATOM     14  C   UNL     1       3.976   4.292  18.554  0.00  0.00    +0.000 C 
ATOM     15  H   UNL     1       0.285   9.892  20.683  0.00  0.00    +0.000 HD
ATOM     16  H   UNL     1       2.521   9.541  17.184  0.00  0.00    +0.000 HD
ENDROOT
BRANCH   1  18
ATOM     17  C   UNL     1       3.630   1.448  18.505  0.00  0.00    +0.000 C 
ATOM     18  C   UNL     1       4.371   2.136  19.648  0.00  0.00    +0.000 C 
ENDBRANCH   1  18
BRANCH  12  19
ATOM     19  C   UNL     1       0.117  10.422  18.069  0.00  0.00    +0.000 C 
ATOM     20  C   UNL     1      -1.152  10.161  18.420  0.00  0.00    +0.000 C 
BRANCH  20  21
ATOM     21  C   UNL     1      -2.244  10.569  17.604  0.00  0.00    +0.000 A 
ATOM     22  C   UNL     1      -2.471  10.294  16.260  0.00  0.00    +0.000 A 
ATOM     23  C   UNL     1      -3.681  10.924  15.881  0.00  0.00    +0.000 A 
ATOM     24  C   UNL     1      -4.141  11.555  17.007  0.00  0.00    +0.000 A 
ATOM     25  O   UNL     1      -3.292  11.351  18.044  0.00  0.00    +0.000 OA
ENDBRANCH  20  21
ENDBRANCH  12  19
TORSDOF 3
ENDMDL
MODEL 4
REMARK VINA RESULT:      -7.0      6.313      8.019
REMARK  Name = 
REMARK  4 active torsions:
REMARK  status: ('A' for Active; 'I' for Inactive)
REMARK    1  A    between atoms: C_1  and  C_2
REMARK    2  A    between atoms: C_2  and  N_3
REMARK    3  A    between atoms: C_14  and  C_15
REMARK    4  A    between atoms: C_16  and  C_17
REMARK                            x       y       z     vdW  Elec       q    Type
REMARK                         _______ _______ _______ _____ _____    ______ ____
ROOT
ATOM      1  N   UNL     1       4.020   4.506  19.485  0.00  0.00    +0.000 NA
ATOM      2  C   UNL     1       2.724   4.432  20.202  0.00  0.00    +0.000 C 
ATOM      3  C   UNL     1       2.280   5.819  20.722  0.00  0.00    +0.000 C 
ATOM      4  C   UNL     1       2.387   6.850  19.643  0.00  0.00    +0.000 A 
ATOM      5  C   UNL     1       3.154   6.605  18.521  0.00  0.00    +0.000 A 
ATOM      6  S   UNL     1       3.132   7.904  17.420  0.00  0.00    +0.000 S 
ATOM      7  C   UNL     1       2.089   8.800  18.423  0.00  0.00    +0.000 A 
ATOM      8  C   UNL     1       1.786   8.146  19.593  0.00  0.00    +0.000 A 
ATOM      9  C   UNL     1       0.934   8.794  20.564  0.00  0.00    +0.000 C 
ATOM     10  O   UNL     1       0.631   8.304  21.645  0.00  0.00    +0.000 OA
ATOM     11  N   UNL     1       0.462  10.027  20.206  0.00  0.00    +0.000 N 
ATOM     12  C   UNL     1       0.809  10.766  19.028  0.00  0.00    +0.000 C 
ATOM     13  N   UNL     1       1.606  10.013  18.102  0.00  0.00    +0.000 N 
ATOM     14  C   UNL     1       3.897   5.330  18.256  0.00  0.00    +0.000 C 
ATOM     15  H   UNL     1      -0.105  10.473  20.910  0.00  0.00    +0.000 HD
ATOM     16  H   UNL     1       1.939  10.504  17.279  0.00  0.00    +0.000 HD
ENDROOT
BRANCH   1  18
ATOM     17  C   UNL     1       4.271   2.174  20.333  0.00  0.00    +0.000 C 
ATOM     18  C   UNL     1       4.531   3.159  19.197  0.00  0.00    +0.000 C 
ENDBRANCH   1  18
BRANCH  12  19
ATOM     19  C   UNL     1      -0.472  11.128  18.345  0.00  0.00    +0.000 C 
ATOM     20  C   UNL     1      -1.418  10.252  17.977  0.00  0.00    +0.000 C 
BRANCH  20  21
ATOM     21  C   UNL     1      -2.594  10.675  17.296  0.00  0.00    +0.000 A 
ATOM     22  C   UNL     1      -3.764  11.201  17.834  0.00  0.00    +0.000 A 
ATOM     23  C   UNL     1      -4.659  11.460  16.769  0.00  0.00    +0.000 A 
ATOM     24  C   UNL     1      -4.000  11.082  15.628  0.00  0.00    +0.000 A 
ATOM     25  O   UNL     1      -2.766  10.611  15.929  0.00  0.00    +0.000 OA
ENDBRANCH  20  21
ENDBRANCH  12  19
TORSDOF 3
ENDMDL
MODEL 5
REMARK VINA RESULT:      -6.9      1.351      1.530
REMARK  Name = 
REMARK  4 active torsions:
REMARK  status: ('A' for Active; 'I' for Inactive)
REMARK    1  A    between atoms: C_1  and  C_2
REMARK    2  A    between atoms: C_2  and  N_3
REMARK    3  A    between atoms: C_14  and  C_15
REMARK    4  A    between atoms: C_16  and  C_17
REMARK                            x       y       z     vdW  Elec       q    Type
REMARK                         _______ _______ _______ _____ _____    ______ ____
ROOT
ATOM      1  N   UNL     1       2.095   3.703  19.594  0.00  0.00    +0.000 NA
ATOM      2  C   UNL     1       3.356   3.330  20.280  0.00  0.00    +0.000 C 
ATOM      3  C   UNL     1       4.581   3.496  19.351  0.00  0.00    +0.000 C 
ATOM      4  C   UNL     1       4.560   4.832  18.677  0.00  0.00    +0.000 A 
ATOM      5  C   UNL     1       3.391   5.567  18.628  0.00  0.00    +0.000 A 
ATOM      6  S   UNL     1       3.590   7.054  17.823  0.00  0.00    +0.000 S 
ATOM      7  C   UNL     1       5.238   6.738  17.543  0.00  0.00    +0.000 A 
ATOM      8  C   UNL     1       5.631   5.509  18.019  0.00  0.00    +0.000 A 
ATOM      9  C   UNL     1       6.999   5.083  17.828  0.00  0.00    +0.000 C 
ATOM     10  O   UNL     1       7.436   3.998  18.190  0.00  0.00    +0.000 OA
ATOM     11  N   UNL     1       7.817   5.983  17.201  0.00  0.00    +0.000 N 
ATOM     12  C   UNL     1       7.427   7.241  16.633  0.00  0.00    +0.000 C 
ATOM     13  N   UNL     1       6.069   7.600  16.930  0.00  0.00    +0.000 N 
ATOM     14  C   UNL     1       2.091   5.146  19.246  0.00  0.00    +0.000 C 
ATOM     15  H   UNL     1       8.757   5.654  17.051  0.00  0.00    +0.000 HD
ATOM     16  H   UNL     1       5.714   8.447  16.502  0.00  0.00    +0.000 HD
ENDROOT
BRANCH   1  18
ATOM     17  C   UNL     1       1.322   2.669  21.728  0.00  0.00    +0.000 C 
ATOM     18  C   UNL     1       0.932   3.328  20.409  0.00  0.00    +0.000 C 
ENDBRANCH   1  18
BRANCH  12  19
ATOM     19  C   UNL     1       8.319   8.284  17.228  0.00  0.00    +0.000 C 
ATOM     20  C   UNL     1       7.986   9.087  18.250  0.00  0.00    +0.000 C 
BRANCH  20  21
ATOM     21  C   UNL     1       8.882  10.081  18.732  0.00  0.00    +0.000 A 
ATOM     22  C   UNL     1       9.204  10.390  20.049  0.00  0.00    +0.000 A 
ATOM     23  C   UNL     1      10.130  11.461  20.035  0.00  0.00    +0.000 A 
ATOM     24  C   UNL     1      10.333  11.760  18.713  0.00  0.00    +0.000 A 
ATOM     25  O   UNL     1       9.594  10.943  17.925  0.00  0.00    +0.000 OA
ENDBRANCH  20  21
ENDBRANCH  12  19
TORSDOF 3
ENDMDL
MODEL 6
REMARK VINA RESULT:      -6.8      7.351      9.851
REMARK  Name = 
REMARK  4 active torsions:
REMARK  status: ('A' for Active; 'I' for Inactive)
REMARK    1  A    between atoms: C_1  and  C_2
REMARK    2  A    between atoms: C_2  and  N_3
REMARK    3  A    between atoms: C_14  and  C_15
REMARK    4  A    between atoms: C_16  and  C_17
REMARK                            x       y       z     vdW  Elec       q    Type
REMARK                         _______ _______ _______ _____ _____    ______ ____
ROOT
ATOM      1  N   UNL     1      -2.241  12.781  22.386  0.00  0.00    +0.000 NA
ATOM      2  C   UNL     1      -2.584  12.455  20.980  0.00  0.00    +0.000 C 
ATOM      3  C   UNL     1      -1.353  11.945  20.196  0.00  0.00    +0.000 C 
ATOM      4  C   UNL     1      -0.633  10.884  20.969  0.00  0.00    +0.000 A 
ATOM      5  C   UNL     1      -0.858  10.739  22.325  0.00  0.00    +0.000 A 
ATOM      6  S   UNL     1       0.055   9.473  23.005  0.00  0.00    +0.000 S 
ATOM      7  C   UNL     1       0.749   9.098  21.497  0.00  0.00    +0.000 A 
ATOM      8  C   UNL     1       0.326   9.939  20.494  0.00  0.00    +0.000 A 
ATOM      9  C   UNL     1       0.852   9.766  19.159  0.00  0.00    +0.000 C 
ATOM     10  O   UNL     1       0.558  10.480  18.209  0.00  0.00    +0.000 OA
ATOM     11  N   UNL     1       1.727   8.726  18.999  0.00  0.00    +0.000 N 
ATOM     12  C   UNL     1       2.240   7.873  20.031  0.00  0.00    +0.000 C 
ATOM     13  N   UNL     1       1.611   8.084  21.304  0.00  0.00    +0.000 N 
ATOM     14  C   UNL     1      -1.825  11.561  23.123  0.00  0.00    +0.000 C 
ATOM     15  H   UNL     1       2.104   8.642  18.068  0.00  0.00    +0.000 HD
ATOM     16  H   UNL     1       1.976   7.557  22.089  0.00  0.00    +0.000 HD
ENDROOT
BRANCH   1  18
ATOM     17  C   UNL     1      -3.963  12.657  24.186  0.00  0.00    +0.000 C 
ATOM     18  C   UNL     1      -3.358  13.470  23.045  0.00  0.00    +0.000 C 
ENDBRANCH   1  18
BRANCH  12  19
ATOM     19  C   UNL     1       1.968   6.464  19.610  0.00  0.00    +0.000 C 
ATOM     20  C   UNL     1       1.943   5.408  20.437  0.00  0.00    +0.000 C 
BRANCH  20  21
ATOM     21  C   UNL     1       1.713   4.091  19.949  0.00  0.00    +0.000 A 
ATOM     22  C   UNL     1       1.173   3.702  18.728  0.00  0.00    +0.000 A 
ATOM     23  C   UNL     1       1.127   2.287  18.699  0.00  0.00    +0.000 A 
ATOM     24  C   UNL     1       1.639   1.873  19.901  0.00  0.00    +0.000 A 
ATOM     25  O   UNL     1       1.993   2.941  20.657  0.00  0.00    +0.000 OA
ENDBRANCH  20  21
ENDBRANCH  12  19
TORSDOF 3
ENDMDL
MODEL 7
REMARK VINA RESULT:      -6.8      4.939      6.770
REMARK  Name = 
REMARK  4 active torsions:
REMARK  status: ('A' for Active; 'I' for Inactive)
REMARK    1  A    between atoms: C_1  and  C_2
REMARK    2  A    between atoms: C_2  and  N_3
REMARK    3  A    between atoms: C_14  and  C_15
REMARK    4  A    between atoms: C_16  and  C_17
REMARK                            x       y       z     vdW  Elec       q    Type
REMARK                         _______ _______ _______ _____ _____    ______ ____
ROOT
ATOM      1  N   UNL     1       6.765   4.386  14.763  0.00  0.00    +0.000 NA
ATOM      2  C   UNL     1       5.367   4.499  14.282  0.00  0.00    +0.000 C 
ATOM      3  C   UNL     1       4.357   4.002  15.342  0.00  0.00    +0.000 C 
ATOM      4  C   UNL     1       4.652   4.604  16.680  0.00  0.00    +0.000 A 
ATOM      5  C   UNL     1       5.886   5.173  16.929  0.00  0.00    +0.000 A 
ATOM      6  S   UNL     1       6.007   5.803  18.507  0.00  0.00    +0.000 S 
ATOM      7  C   UNL     1       4.412   5.333  18.869  0.00  0.00    +0.000 A 
ATOM      8  C   UNL     1       3.802   4.677  17.826  0.00  0.00    +0.000 A 
ATOM      9  C   UNL     1       2.452   4.188  17.993  0.00  0.00    +0.000 C 
ATOM     10  O   UNL     1       1.837   3.570  17.134  0.00  0.00    +0.000 OA
ATOM     11  N   UNL     1       1.870   4.461  19.200  0.00  0.00    +0.000 N 
ATOM     12  C   UNL     1       2.496   5.081  20.331  0.00  0.00    +0.000 C 
ATOM     13  N   UNL     1       3.809   5.585  20.044  0.00  0.00    +0.000 N 
ATOM     14  C   UNL     1       6.996   5.278  15.927  0.00  0.00    +0.000 C 
ATOM     15  H   UNL     1       0.940   4.084  19.306  0.00  0.00    +0.000 HD
ATOM     16  H   UNL     1       4.330   5.976  20.821  0.00  0.00    +0.000 HD
ENDROOT
BRANCH   1  18
ATOM     17  C   UNL     1       7.159   4.256  12.303  0.00  0.00    +0.000 C 
ATOM     18  C   UNL     1       7.711   4.649  13.670  0.00  0.00    +0.000 C 
ENDBRANCH   1  18
BRANCH  12  19
ATOM     19  C   UNL     1       1.635   6.238  20.727  0.00  0.00    +0.000 C 
ATOM     20  C   UNL     1       1.889   7.521  20.429  0.00  0.00    +0.000 C 
BRANCH  20  21
ATOM     21  C   UNL     1       1.036   8.568  20.877  0.00  0.00    +0.000 A 
ATOM     22  C   UNL     1       0.710   8.920  22.182  0.00  0.00    +0.000 A 
ATOM     23  C   UNL     1      -0.183  10.017  22.131  0.00  0.00    +0.000 A 
ATOM     24  C   UNL     1      -0.364  10.288  20.800  0.00  0.00    +0.000 A 
ATOM     25  O   UNL     1       0.359   9.431  20.040  0.00  0.00    +0.000 OA
ENDBRANCH  20  21
ENDBRANCH  12  19
TORSDOF 3
ENDMDL
MODEL 8
REMARK VINA RESULT:      -6.7      9.438     10.835
REMARK  Name = 
REMARK  4 active torsions:
REMARK  status: ('A' for Active; 'I' for Inactive)
REMARK    1  A    between atoms: C_1  and  C_2
REMARK    2  A    between atoms: C_2  and  N_3
REMARK    3  A    between atoms: C_14  and  C_15
REMARK    4  A    between atoms: C_16  and  C_17
REMARK                            x       y       z     vdW  Elec       q    Type
REMARK                         _______ _______ _______ _____ _____    ______ ____
ROOT
ATOM      1  N   UNL     1       2.391   8.058  18.979  0.00  0.00    +0.000 NA
ATOM      2  C   UNL     1       1.772   7.394  20.152  0.00  0.00    +0.000 C 
ATOM      3  C   UNL     1       1.378   8.416  21.244  0.00  0.00    +0.000 C 
ATOM      4  C   UNL     1       0.620   9.562  20.651  0.00  0.00    +0.000 A 
ATOM      5  C   UNL     1       0.667   9.796  19.291  0.00  0.00    +0.000 A 
ATOM      6  S   UNL     1      -0.269  11.141  18.828  0.00  0.00    +0.000 S 
ATOM      7  C   UNL     1      -0.757  11.416  20.435  0.00  0.00    +0.000 A 
ATOM      8  C   UNL     1      -0.194  10.527  21.320  0.00  0.00    +0.000 A 
ATOM      9  C   UNL     1      -0.488  10.652  22.729  0.00  0.00    +0.000 C 
ATOM     10  O   UNL     1      -0.014   9.927  23.595  0.00  0.00    +0.000 OA
ATOM     11  N   UNL     1      -1.356  11.655  23.065  0.00  0.00    +0.000 N 
ATOM     12  C   UNL     1      -1.908  12.639  22.181  0.00  0.00    +0.000 C 
ATOM     13  N   UNL     1      -1.608  12.391  20.800  0.00  0.00    +0.000 N 
ATOM     14  C   UNL     1       1.415   8.950  18.303  0.00  0.00    +0.000 C 
ATOM     15  H   UNL     1      -1.523  11.743  24.055  0.00  0.00    +0.000 HD
ATOM     16  H   UNL     1      -1.915  13.089  20.131  0.00  0.00    +0.000 HD
ENDROOT
BRANCH   1  18
ATOM     17  C   UNL     1       2.245   5.716  18.134  0.00  0.00    +0.000 C 
ATOM     18  C   UNL     1       2.958   7.063  18.060  0.00  0.00    +0.000 C 
ENDBRANCH   1  18
BRANCH  12  19
ATOM     19  C   UNL     1      -3.394  12.590  22.345  0.00  0.00    +0.000 C 
ATOM     20  C   UNL     1      -4.281  13.018  21.434  0.00  0.00    +0.000 C 
BRANCH  20  21
ATOM     21  C   UNL     1      -5.681  12.971  21.684  0.00  0.00    +0.000 A 
ATOM     22  C   UNL     1      -6.638  13.948  21.436  0.00  0.00    +0.000 A 
ATOM     23  C   UNL     1      -7.893  13.452  21.864  0.00  0.00    +0.000 A 
ATOM     24  C   UNL     1      -7.649  12.195  22.354  0.00  0.00    +0.000 A 
ATOM     25  O   UNL     1      -6.332  11.895  22.252  0.00  0.00    +0.000 OA
ENDBRANCH  20  21
ENDBRANCH  12  19
TORSDOF 3
ENDMDL
MODEL 9
REMARK VINA RESULT:      -6.6      6.911      8.476
REMARK  Name = 
REMARK  4 active torsions:
REMARK  status: ('A' for Active; 'I' for Inactive)
REMARK    1  A    between atoms: C_1  and  C_2
REMARK    2  A    between atoms: C_2  and  N_3
REMARK    3  A    between atoms: C_14  and  C_15
REMARK    4  A    between atoms: C_16  and  C_17
REMARK                            x       y       z     vdW  Elec       q    Type
REMARK                         _______ _______ _______ _____ _____    ______ ____
ROOT
ATOM      1  N   UNL     1       3.748   5.062  19.204  0.00  0.00    +0.000 NA
ATOM      2  C   UNL     1       2.601   4.832  20.116  0.00  0.00    +0.000 C 
ATOM      3  C   UNL     1       2.178   6.131  20.840  0.00  0.00    +0.000 C 
ATOM      4  C   UNL     1       2.040   7.261  19.868  0.00  0.00    +0.000 A 
ATOM      5  C   UNL     1       2.614   7.173  18.614  0.00  0.00    +0.000 A 
ATOM      6  S   UNL     1       2.331   8.560  17.669  0.00  0.00    +0.000 S 
ATOM      7  C   UNL     1       1.429   9.286  18.917  0.00  0.00    +0.000 A 
ATOM      8  C   UNL     1       1.369   8.509  20.049  0.00  0.00    +0.000 A 
ATOM      9  C   UNL     1       0.664   9.005  21.209  0.00  0.00    +0.000 C 
ATOM     10  O   UNL     1       0.579   8.400  22.270  0.00  0.00    +0.000 OA
ATOM     11  N   UNL     1       0.069  10.228  21.061  0.00  0.00    +0.000 N 
ATOM     12  C   UNL     1       0.167  11.093  19.921  0.00  0.00    +0.000 C 
ATOM     13  N   UNL     1       0.832  10.486  18.804  0.00  0.00    +0.000 N 
ATOM     14  C   UNL     1       3.369   5.982  18.102  0.00  0.00    +0.000 C 
ATOM     15  H   UNL     1      -0.391  10.568  21.890  0.00  0.00    +0.000 HD
ATOM     16  H   UNL     1       0.991  11.070  17.991  0.00  0.00    +0.000 HD
ENDROOT
BRANCH   1  18
ATOM     17  C   UNL     1       4.113   2.646  19.702  0.00  0.00    +0.000 C 
ATOM     18  C   UNL     1       4.274   3.787  18.702  0.00  0.00    +0.000 C 
ENDBRANCH   1  18
BRANCH  12  19
ATOM     19  C   UNL     1      -1.231  11.423  19.502  0.00  0.00    +0.000 C 
ATOM     20  C   UNL     1      -1.824  10.967  18.388  0.00  0.00    +0.000 C 
BRANCH  20  21
ATOM     21  C   UNL     1      -3.148  11.359  18.041  0.00  0.00    +0.000 A 
ATOM     22  C   UNL     1      -3.792  11.243  16.815  0.00  0.00    +0.000 A 
ATOM     23  C   UNL     1      -5.093  11.782  16.949  0.00  0.00    +0.000 A 
ATOM     24  C   UNL     1      -5.189  12.204  18.249  0.00  0.00    +0.000 A 
ATOM     25  O   UNL     1      -4.034  11.957  18.913  0.00  0.00    +0.000 OA
ENDBRANCH  20  21
ENDBRANCH  12  19
TORSDOF 3
ENDMDL
