MODEL 1
REMARK VINA RESULT:      -8.8      0.000      0.000
REMARK  Name = 
REMARK  2 active torsions:
REMARK  status: ('A' for Active; 'I' for Inactive)
REMARK    1  A    between atoms: C_9  and  N_10
REMARK    2  A    between atoms: N_18  and  C_19
REMARK                            x       y       z     vdW  Elec       q    Type
REMARK                         _______ _______ _______ _____ _____    ______ ____
ROOT
ATOM      1  O   UNL     1       4.843   2.815  18.120  0.00  0.00    +0.000 OA
ATOM      2  C   UNL     1       4.658   4.029  18.042  0.00  0.00    +0.000 C 
ATOM      3  C   UNL     1       3.667   4.632  18.951  0.00  0.00    +0.000 A 
ATOM      4  C   UNL     1       3.156   3.872  20.011  0.00  0.00    +0.000 A 
ATOM      5  C   UNL     1       2.201   4.416  20.862  0.00  0.00    +0.000 A 
ATOM      6  C   UNL     1       1.742   5.714  20.645  0.00  0.00    +0.000 A 
ATOM      7  C   UNL     1       2.237   6.485  19.583  0.00  0.00    +0.000 A 
ATOM      8  C   UNL     1       1.764   7.783  19.348  0.00  0.00    +0.000 A 
ATOM      9  C   UNL     1       2.271   8.535  18.282  0.00  0.00    +0.000 A 
ATOM     10  C   UNL     1       3.266   8.011  17.450  0.00  0.00    +0.000 A 
ATOM     11  C   UNL     1       3.746   6.714  17.683  0.00  0.00    +0.000 A 
ATOM     12  C   UNL     1       3.230   5.940  18.729  0.00  0.00    +0.000 A 
ATOM     13  C   UNL     1       4.833   6.167  16.831  0.00  0.00    +0.000 C 
ATOM     14  O   UNL     1       5.281   6.879  15.937  0.00  0.00    +0.000 OA
ATOM     15  N   UNL     1       5.260   4.871  17.106  0.00  0.00    +0.000 N 
ENDROOT
BRANCH  15  16
ATOM     16  C   UNL     1       6.419   4.385  16.376  0.00  0.00    +0.000 C 
ATOM     17  N   UNL     1       5.970   3.742  15.114  0.00  0.00    +0.000 NA
ATOM     18  C   UNL     1       6.592   4.472  14.243  0.00  0.00    +0.000 C 
ATOM     19  N   UNL     1       7.458   5.437  14.662  0.00  0.00    +0.000 N 
ATOM     20  N   UNL     1       7.349   5.499  16.075  0.00  0.00    +0.000 NA
ATOM     21  H   UNL     1       7.446   6.311  14.136  0.00  0.00    +0.000 HD
ATOM     22  H   UNL     1       6.852   6.352  16.337  0.00  0.00    +0.000 HD
ENDBRANCH  15  16
BRANCH   9  23
ATOM     23  N   UNL     1       1.753   9.888  18.042  0.00  0.00    +0.000 N 
ATOM     24  O   UNL     1       2.562  10.753  17.671  0.00  0.00    +0.000 OA
ATOM     25  O   UNL     1       0.549  10.088  18.237  0.00  0.00    +0.000 OA
ENDBRANCH   9  23
TORSDOF 2
ENDMDL
MODEL 2
REMARK VINA RESULT:      -8.7      2.883      5.942
REMARK  Name = 
REMARK  2 active torsions:
REMARK  status: ('A' for Active; 'I' for Inactive)
REMARK    1  A    between atoms: C_9  and  N_10
REMARK    2  A    between atoms: N_18  and  C_19
REMARK                            x       y       z     vdW  Elec       q    Type
REMARK                         _______ _______ _______ _____ _____    ______ ____
ROOT
ATOM      1  O   UNL     1       1.163   5.011  19.776  0.00  0.00    +0.000 OA
ATOM      2  C   UNL     1       2.167   4.737  19.120  0.00  0.00    +0.000 C 
ATOM      3  C   UNL     1       2.827   5.832  18.386  0.00  0.00    +0.000 A 
ATOM      4  C   UNL     1       2.448   7.156  18.642  0.00  0.00    +0.000 A 
ATOM      5  C   UNL     1       3.041   8.199  17.940  0.00  0.00    +0.000 A 
ATOM      6  C   UNL     1       4.001   7.920  16.968  0.00  0.00    +0.000 A 
ATOM      7  C   UNL     1       4.385   6.598  16.695  0.00  0.00    +0.000 A 
ATOM      8  C   UNL     1       5.335   6.311  15.705  0.00  0.00    +0.000 A 
ATOM      9  C   UNL     1       5.702   4.985  15.446  0.00  0.00    +0.000 A 
ATOM     10  C   UNL     1       5.145   3.934  16.181  0.00  0.00    +0.000 A 
ATOM     11  C   UNL     1       4.196   4.217  17.176  0.00  0.00    +0.000 A 
ATOM     12  C   UNL     1       3.799   5.536  17.428  0.00  0.00    +0.000 A 
ATOM     13  C   UNL     1       3.632   3.111  17.990  0.00  0.00    +0.000 C 
ATOM     14  O   UNL     1       4.018   1.969  17.762  0.00  0.00    +0.000 OA
ATOM     15  N   UNL     1       2.689   3.454  18.956  0.00  0.00    +0.000 N 
ENDROOT
BRANCH  15  16
ATOM     16  C   UNL     1       2.244   2.400  19.852  0.00  0.00    +0.000 C 
ATOM     17  N   UNL     1       3.086   2.409  21.076  0.00  0.00    +0.000 NA
ATOM     18  C   UNL     1       2.182   2.611  21.982  0.00  0.00    +0.000 C 
ATOM     19  N   UNL     1       0.866   2.649  21.631  0.00  0.00    +0.000 N 
ATOM     20  N   UNL     1       0.820   2.591  20.213  0.00  0.00    +0.000 NA
ATOM     21  H   UNL     1       0.293   3.347  22.106  0.00  0.00    +0.000 HD
ATOM     22  H   UNL     1       0.563   3.509  19.847  0.00  0.00    +0.000 HD
ENDBRANCH  15  16
BRANCH   9  23
ATOM     23  N   UNL     1       6.689   4.701  14.395  0.00  0.00    +0.000 N 
ATOM     24  O   UNL     1       6.421   3.797  13.588  0.00  0.00    +0.000 OA
ATOM     25  O   UNL     1       7.730   5.367  14.386  0.00  0.00    +0.000 OA
ENDBRANCH   9  23
TORSDOF 2
ENDMDL
MODEL 3
REMARK VINA RESULT:      -8.4      1.394      1.702
REMARK  Name = 
REMARK  2 active torsions:
REMARK  status: ('A' for Active; 'I' for Inactive)
REMARK    1  A    between atoms: C_9  and  N_10
REMARK    2  A    between atoms: N_18  and  C_19
REMARK                            x       y       z     vdW  Elec       q    Type
REMARK                         _______ _______ _______ _____ _____    ______ ____
ROOT
ATOM      1  O   UNL     1       4.074   1.856  17.408  0.00  0.00    +0.000 OA
ATOM      2  C   UNL     1       3.985   3.019  17.800  0.00  0.00    +0.000 C 
ATOM      3  C   UNL     1       3.059   3.300  18.911  0.00  0.00    +0.000 A 
ATOM      4  C   UNL     1       2.504   2.233  19.630  0.00  0.00    +0.000 A 
ATOM      5  C   UNL     1       1.608   2.479  20.664  0.00  0.00    +0.000 A 
ATOM      6  C   UNL     1       1.251   3.791  20.970  0.00  0.00    +0.000 A 
ATOM      7  C   UNL     1       1.792   4.871  20.255  0.00  0.00    +0.000 A 
ATOM      8  C   UNL     1       1.420   6.190  20.546  0.00  0.00    +0.000 A 
ATOM      9  C   UNL     1       1.970   7.253  19.818  0.00  0.00    +0.000 A 
ATOM     10  C   UNL     1       2.907   7.016  18.808  0.00  0.00    +0.000 A 
ATOM     11  C   UNL     1       3.286   5.697  18.516  0.00  0.00    +0.000 A 
ATOM     12  C   UNL     1       2.724   4.622  19.217  0.00  0.00    +0.000 A 
ATOM     13  C   UNL     1       4.313   5.439  17.475  0.00  0.00    +0.000 C 
ATOM     14  O   UNL     1       4.803   6.403  16.895  0.00  0.00    +0.000 OA
ATOM     15  N   UNL     1       4.640   4.109  17.223  0.00  0.00    +0.000 N 
ENDROOT
BRANCH  15  16
ATOM     16  C   UNL     1       5.745   3.857  16.315  0.00  0.00    +0.000 C 
ATOM     17  N   UNL     1       5.343   4.235  14.936  0.00  0.00    +0.000 NA
ATOM     18  C   UNL     1       6.234   5.136  14.669  0.00  0.00    +0.000 C 
ATOM     19  N   UNL     1       7.233   5.387  15.561  0.00  0.00    +0.000 N 
ATOM     20  N   UNL     1       6.942   4.629  16.725  0.00  0.00    +0.000 NA
ATOM     21  H   UNL     1       7.500   6.365  15.674  0.00  0.00    +0.000 HD
ATOM     22  H   UNL     1       6.625   5.257  17.465  0.00  0.00    +0.000 HD
ENDBRANCH  15  16
BRANCH   9  23
ATOM     23  N   UNL     1       1.558   8.629  20.127  0.00  0.00    +0.000 N 
ATOM     24  O   UNL     1       1.386   9.403  19.172  0.00  0.00    +0.000 OA
ATOM     25  O   UNL     1       1.423   8.937  21.316  0.00  0.00    +0.000 OA
ENDBRANCH   9  23
TORSDOF 2
ENDMDL
MODEL 4
REMARK VINA RESULT:      -8.3      2.222      4.070
REMARK  Name = 
REMARK  2 active torsions:
REMARK  status: ('A' for Active; 'I' for Inactive)
REMARK    1  A    between atoms: C_9  and  N_10
REMARK    2  A    between atoms: N_18  and  C_19
REMARK                            x       y       z     vdW  Elec       q    Type
REMARK                         _______ _______ _______ _____ _____    ______ ____
ROOT
ATOM      1  O   UNL     1       5.932   7.241  16.172  0.00  0.00    +0.000 OA
ATOM      2  C   UNL     1       5.334   6.373  16.807  0.00  0.00    +0.000 C 
ATOM      3  C   UNL     1       4.109   6.769  17.525  0.00  0.00    +0.000 A 
ATOM      4  C   UNL     1       3.543   8.025  17.277  0.00  0.00    +0.000 A 
ATOM      5  C   UNL     1       2.403   8.425  17.965  0.00  0.00    +0.000 A 
ATOM      6  C   UNL     1       1.837   7.577  18.915  0.00  0.00    +0.000 A 
ATOM      7  C   UNL     1       2.397   6.318  19.182  0.00  0.00    +0.000 A 
ATOM      8  C   UNL     1       1.844   5.470  20.150  0.00  0.00    +0.000 A 
ATOM      9  C   UNL     1       2.420   4.220  20.402  0.00  0.00    +0.000 A 
ATOM     10  C   UNL     1       3.538   3.791  19.680  0.00  0.00    +0.000 A 
ATOM     11  C   UNL     1       4.093   4.634  18.706  0.00  0.00    +0.000 A 
ATOM     12  C   UNL     1       3.545   5.900  18.462  0.00  0.00    +0.000 A 
ATOM     13  C   UNL     1       5.254   4.170  17.905  0.00  0.00    +0.000 C 
ATOM     14  O   UNL     1       5.697   3.047  18.126  0.00  0.00    +0.000 OA
ATOM     15  N   UNL     1       5.766   5.055  16.960  0.00  0.00    +0.000 N 
ENDROOT
BRANCH  15  16
ATOM     16  C   UNL     1       6.804   4.554  16.074  0.00  0.00    +0.000 C 
ATOM     17  N   UNL     1       6.177   3.765  14.983  0.00  0.00    +0.000 NA
ATOM     18  C   UNL     1       6.581   4.431  13.949  0.00  0.00    +0.000 C 
ATOM     19  N   UNL     1       7.444   5.474  14.108  0.00  0.00    +0.000 N 
ATOM     20  N   UNL     1       7.588   5.674  15.506  0.00  0.00    +0.000 NA
ATOM     21  H   UNL     1       7.279   6.288  13.516  0.00  0.00    +0.000 HD
ATOM     22  H   UNL     1       7.092   6.525  15.777  0.00  0.00    +0.000 HD
ENDBRANCH  15  16
BRANCH   9  23
ATOM     23  N   UNL     1       1.835   3.349  21.432  0.00  0.00    +0.000 N 
ATOM     24  O   UNL     1       0.692   2.910  21.229  0.00  0.00    +0.000 OA
ATOM     25  O   UNL     1       2.508   3.119  22.442  0.00  0.00    +0.000 OA
ENDBRANCH   9  23
TORSDOF 2
ENDMDL
MODEL 5
REMARK VINA RESULT:      -8.2      3.320      6.130
REMARK  Name = 
REMARK  2 active torsions:
REMARK  status: ('A' for Active; 'I' for Inactive)
REMARK    1  A    between atoms: C_9  and  N_10
REMARK    2  A    between atoms: N_18  and  C_19
REMARK                            x       y       z     vdW  Elec       q    Type
REMARK                         _______ _______ _______ _____ _____    ______ ____
ROOT
ATOM      1  O   UNL     1       3.533   5.028  20.316  0.00  0.00    +0.000 OA
ATOM      2  C   UNL     1       3.839   4.588  19.209  0.00  0.00    +0.000 C 
ATOM      3  C   UNL     1       5.191   4.886  18.702  0.00  0.00    +0.000 A 
ATOM      4  C   UNL     1       6.143   5.438  19.568  0.00  0.00    +0.000 A 
ATOM      5  C   UNL     1       7.414   5.750  19.100  0.00  0.00    +0.000 A 
ATOM      6  C   UNL     1       7.731   5.527  17.761  0.00  0.00    +0.000 A 
ATOM      7  C   UNL     1       6.786   4.982  16.878  0.00  0.00    +0.000 A 
ATOM      8  C   UNL     1       7.092   4.775  15.527  0.00  0.00    +0.000 A 
ATOM      9  C   UNL     1       6.134   4.232  14.663  0.00  0.00    +0.000 A 
ATOM     10  C   UNL     1       4.869   3.872  15.137  0.00  0.00    +0.000 A 
ATOM     11  C   UNL     1       4.558   4.074  16.491  0.00  0.00    +0.000 A 
ATOM     12  C   UNL     1       5.497   4.641  17.361  0.00  0.00    +0.000 A 
ATOM     13  C   UNL     1       3.232   3.654  17.012  0.00  0.00    +0.000 C 
ATOM     14  O   UNL     1       2.440   3.139  16.229  0.00  0.00    +0.000 OA
ATOM     15  N   UNL     1       2.980   3.888  18.361  0.00  0.00    +0.000 N 
ENDROOT
BRANCH  15  16
ATOM     16  C   UNL     1       1.747   3.349  18.909  0.00  0.00    +0.000 C 
ATOM     17  N   UNL     1       2.043   2.084  19.630  0.00  0.00    +0.000 NA
ATOM     18  C   UNL     1       1.626   2.388  20.818  0.00  0.00    +0.000 C 
ATOM     19  N   UNL     1       1.011   3.584  21.037  0.00  0.00    +0.000 N 
ATOM     20  N   UNL     1       1.115   4.323  19.829  0.00  0.00    +0.000 NA
ATOM     21  H   UNL     1       1.240   4.054  21.913  0.00  0.00    +0.000 HD
ATOM     22  H   UNL     1       1.800   5.071  19.950  0.00  0.00    +0.000 HD
ENDBRANCH  15  16
BRANCH   9  23
ATOM     23  N   UNL     1       6.468   4.036  13.246  0.00  0.00    +0.000 N 
ATOM     24  O   UNL     1       7.411   4.697  12.783  0.00  0.00    +0.000 OA
ATOM     25  O   UNL     1       5.783   3.237  12.598  0.00  0.00    +0.000 OA
ENDBRANCH   9  23
TORSDOF 2
ENDMDL
MODEL 6
REMARK VINA RESULT:      -8.0      1.617      2.208
REMARK  Name = 
REMARK  2 active torsions:
REMARK  status: ('A' for Active; 'I' for Inactive)
REMARK    1  A    between atoms: C_9  and  N_10
REMARK    2  A    between atoms: N_18  and  C_19
REMARK                            x       y       z     vdW  Elec       q    Type
REMARK                         _______ _______ _______ _____ _____    ______ ____
ROOT
ATOM      1  O   UNL     1       4.176   3.156  16.767  0.00  0.00    +0.000 OA
ATOM      2  C   UNL     1       3.951   4.175  17.418  0.00  0.00    +0.000 C 
ATOM      3  C   UNL     1       3.134   4.044  18.638  0.00  0.00    +0.000 A 
ATOM      4  C   UNL     1       2.849   2.768  19.139  0.00  0.00    +0.000 A 
ATOM      5  C   UNL     1       2.057   2.625  20.273  0.00  0.00    +0.000 A 
ATOM      6  C   UNL     1       1.536   3.756  20.899  0.00  0.00    +0.000 A 
ATOM      7  C   UNL     1       1.806   5.042  20.404  0.00  0.00    +0.000 A 
ATOM      8  C   UNL     1       1.268   6.181  21.017  0.00  0.00    +0.000 A 
ATOM      9  C   UNL     1       1.548   7.453  20.506  0.00  0.00    +0.000 A 
ATOM     10  C   UNL     1       2.382   7.608  19.394  0.00  0.00    +0.000 A 
ATOM     11  C   UNL     1       2.927   6.471  18.779  0.00  0.00    +0.000 A 
ATOM     12  C   UNL     1       2.634   5.189  19.262  0.00  0.00    +0.000 A 
ATOM     13  C   UNL     1       3.847   6.628  17.624  0.00  0.00    +0.000 C 
ATOM     14  O   UNL     1       4.104   7.764  17.239  0.00  0.00    +0.000 OA
ATOM     15  N   UNL     1       4.349   5.462  17.051  0.00  0.00    +0.000 N 
ENDROOT
BRANCH  15  16
ATOM     16  C   UNL     1       5.361   5.611  16.020  0.00  0.00    +0.000 C 
ATOM     17  N   UNL     1       6.706   5.433  16.624  0.00  0.00    +0.000 NA
ATOM     18  C   UNL     1       7.143   4.427  15.935  0.00  0.00    +0.000 C 
ATOM     19  N   UNL     1       6.397   3.934  14.907  0.00  0.00    +0.000 N 
ATOM     20  N   UNL     1       5.154   4.619  14.939  0.00  0.00    +0.000 NA
ATOM     21  H   UNL     1       6.388   2.919  14.804  0.00  0.00    +0.000 HD
ATOM     22  H   UNL     1       4.429   3.986  15.281  0.00  0.00    +0.000 HD
ENDBRANCH  15  16
BRANCH   9  23
ATOM     23  N   UNL     1       0.964   8.636  21.153  0.00  0.00    +0.000 N 
ATOM     24  O   UNL     1       0.075   9.245  20.537  0.00  0.00    +0.000 OA
ATOM     25  O   UNL     1       1.402   8.963  22.261  0.00  0.00    +0.000 OA
ENDBRANCH   9  23
TORSDOF 2
ENDMDL
MODEL 7
REMARK VINA RESULT:      -8.0      2.528      4.105
REMARK  Name = 
REMARK  2 active torsions:
REMARK  status: ('A' for Active; 'I' for Inactive)
REMARK    1  A    between atoms: C_9  and  N_10
REMARK    2  A    between atoms: N_18  and  C_19
REMARK                            x       y       z     vdW  Elec       q    Type
REMARK                         _______ _______ _______ _____ _____    ______ ____
ROOT
ATOM      1  O   UNL     1       6.254   6.918  16.130  0.00  0.00    +0.000 OA
ATOM      2  C   UNL     1       5.435   6.065  16.469  0.00  0.00    +0.000 C 
ATOM      3  C   UNL     1       4.228   6.518  17.184  0.00  0.00    +0.000 A 
ATOM      4  C   UNL     1       3.938   7.887  17.242  0.00  0.00    +0.000 A 
ATOM      5  C   UNL     1       2.818   8.333  17.935  0.00  0.00    +0.000 A 
ATOM      6  C   UNL     1       1.997   7.414  18.586  0.00  0.00    +0.000 A 
ATOM      7  C   UNL     1       2.279   6.040  18.544  0.00  0.00    +0.000 A 
ATOM      8  C   UNL     1       1.468   5.114  19.213  0.00  0.00    +0.000 A 
ATOM      9  C   UNL     1       1.768   3.748  19.160  0.00  0.00    +0.000 A 
ATOM     10  C   UNL     1       2.865   3.287  18.426  0.00  0.00    +0.000 A 
ATOM     11  C   UNL     1       3.678   4.210  17.750  0.00  0.00    +0.000 A 
ATOM     12  C   UNL     1       3.406   5.582  17.816  0.00  0.00    +0.000 A 
ATOM     13  C   UNL     1       4.820   3.725  16.933  0.00  0.00    +0.000 C 
ATOM     14  O   UNL     1       5.018   2.515  16.876  0.00  0.00    +0.000 OA
ATOM     15  N   UNL     1       5.595   4.689  16.294  0.00  0.00    +0.000 N 
ENDROOT
BRANCH  15  16
ATOM     16  C   UNL     1       6.619   4.217  15.378  0.00  0.00    +0.000 C 
ATOM     17  N   UNL     1       6.004   3.945  14.054  0.00  0.00    +0.000 NA
ATOM     18  C   UNL     1       6.686   4.753  13.306  0.00  0.00    +0.000 C 
ATOM     19  N   UNL     1       7.718   5.464  13.841  0.00  0.00    +0.000 N 
ATOM     20  N   UNL     1       7.698   5.223  15.240  0.00  0.00    +0.000 NA
ATOM     21  H   UNL     1       7.818   6.426  13.516  0.00  0.00    +0.000 HD
ATOM     22  H   UNL     1       7.359   6.058  15.720  0.00  0.00    +0.000 HD
ENDBRANCH  15  16
BRANCH   9  23
ATOM     23  N   UNL     1       0.915   2.793  19.880  0.00  0.00    +0.000 N 
ATOM     24  O   UNL     1       0.143   2.093  19.205  0.00  0.00    +0.000 OA
ATOM     25  O   UNL     1       1.006   2.753  21.111  0.00  0.00    +0.000 OA
ENDBRANCH   9  23
TORSDOF 2
ENDMDL
MODEL 8
REMARK VINA RESULT:      -7.9      3.391      6.721
REMARK  Name = 
REMARK  2 active torsions:
REMARK  status: ('A' for Active; 'I' for Inactive)
REMARK    1  A    between atoms: C_9  and  N_10
REMARK    2  A    between atoms: N_18  and  C_19
REMARK                            x       y       z     vdW  Elec       q    Type
REMARK                         _______ _______ _______ _____ _____    ______ ____
ROOT
ATOM      1  O   UNL     1       2.522   9.099  17.163  0.00  0.00    +0.000 OA
ATOM      2  C   UNL     1       2.502   8.320  18.116  0.00  0.00    +0.000 C 
ATOM      3  C   UNL     1       3.239   7.050  17.981  0.00  0.00    +0.000 A 
ATOM      4  C   UNL     1       4.114   6.876  16.901  0.00  0.00    +0.000 A 
ATOM      5  C   UNL     1       4.796   5.675  16.743  0.00  0.00    +0.000 A 
ATOM      6  C   UNL     1       4.592   4.640  17.654  0.00  0.00    +0.000 A 
ATOM      7  C   UNL     1       3.712   4.796  18.737  0.00  0.00    +0.000 A 
ATOM      8  C   UNL     1       3.488   3.752  19.644  0.00  0.00    +0.000 A 
ATOM      9  C   UNL     1       2.605   3.928  20.715  0.00  0.00    +0.000 A 
ATOM     10  C   UNL     1       1.952   5.150  20.907  0.00  0.00    +0.000 A 
ATOM     11  C   UNL     1       2.175   6.200  20.004  0.00  0.00    +0.000 A 
ATOM     12  C   UNL     1       3.035   6.030  18.912  0.00  0.00    +0.000 A 
ATOM     13  C   UNL     1       1.519   7.513  20.226  0.00  0.00    +0.000 C 
ATOM     14  O   UNL     1       0.790   7.638  21.205  0.00  0.00    +0.000 OA
ATOM     15  N   UNL     1       1.773   8.513  19.290  0.00  0.00    +0.000 N 
ENDROOT
BRANCH  15  16
ATOM     16  C   UNL     1       1.255   9.840  19.579  0.00  0.00    +0.000 C 
ATOM     17  N   UNL     1      -0.011  10.045  18.829  0.00  0.00    +0.000 NA
ATOM     18  C   UNL     1      -0.831  10.267  19.807  0.00  0.00    +0.000 C 
ATOM     19  N   UNL     1      -0.359  10.348  21.083  0.00  0.00    +0.000 N 
ATOM     20  N   UNL     1       1.017  10.001  21.032  0.00  0.00    +0.000 NA
ATOM     21  H   UNL     1      -0.940   9.922  21.806  0.00  0.00    +0.000 HD
ATOM     22  H   UNL     1       1.144   9.072  21.437  0.00  0.00    +0.000 HD
ENDBRANCH  15  16
BRANCH   9  23
ATOM     23  N   UNL     1       2.371   2.818  21.648  0.00  0.00    +0.000 N 
ATOM     24  O   UNL     1       3.335   2.084  21.919  0.00  0.00    +0.000 OA
ATOM     25  O   UNL     1       1.229   2.672  22.096  0.00  0.00    +0.000 OA
ENDBRANCH   9  23
TORSDOF 2
ENDMDL
MODEL 9
REMARK VINA RESULT:      -7.9      1.596      2.111
REMARK  Name = 
REMARK  2 active torsions:
REMARK  status: ('A' for Active; 'I' for Inactive)
REMARK    1  A    between atoms: C_9  and  N_10
REMARK    2  A    between atoms: N_18  and  C_19
REMARK                            x       y       z     vdW  Elec       q    Type
REMARK                         _______ _______ _______ _____ _____    ______ ____
ROOT
ATOM      1  O   UNL     1       4.002   2.572  17.094  0.00  0.00    +0.000 OA
ATOM      2  C   UNL     1       3.850   3.667  17.634  0.00  0.00    +0.000 C 
ATOM      3  C   UNL     1       3.029   3.721  18.857  0.00  0.00    +0.000 A 
ATOM      4  C   UNL     1       2.657   2.527  19.487  0.00  0.00    +0.000 A 
ATOM      5  C   UNL     1       1.860   2.559  20.626  0.00  0.00    +0.000 A 
ATOM      6  C   UNL     1       1.420   3.783  21.127  0.00  0.00    +0.000 A 
ATOM      7  C   UNL     1       1.778   4.988  20.502  0.00  0.00    +0.000 A 
ATOM      8  C   UNL     1       1.321   6.219  20.990  0.00  0.00    +0.000 A 
ATOM      9  C   UNL     1       1.688   7.409  20.350  0.00  0.00    +0.000 A 
ATOM     10  C   UNL     1       2.528   7.388  19.232  0.00  0.00    +0.000 A 
ATOM     11  C   UNL     1       2.991   6.158  18.742  0.00  0.00    +0.000 A 
ATOM     12  C   UNL     1       2.610   4.957  19.355  0.00  0.00    +0.000 A 
ATOM     13  C   UNL     1       3.918   6.129  17.582  0.00  0.00    +0.000 C 
ATOM     14  O   UNL     1       4.251   7.198  17.081  0.00  0.00    +0.000 OA
ATOM     15  N   UNL     1       4.335   4.877  17.136  0.00  0.00    +0.000 N 
ENDROOT
BRANCH  15  16
ATOM     16  C   UNL     1       5.353   4.847  16.100  0.00  0.00    +0.000 C 
ATOM     17  N   UNL     1       6.057   6.155  16.067  0.00  0.00    +0.000 NA
ATOM     18  C   UNL     1       7.273   5.774  16.305  0.00  0.00    +0.000 C 
ATOM     19  N   UNL     1       7.560   4.446  16.403  0.00  0.00    +0.000 N 
ATOM     20  N   UNL     1       6.322   3.755  16.353  0.00  0.00    +0.000 NA
ATOM     21  H   UNL     1       8.233   4.183  17.124  0.00  0.00    +0.000 HD
ATOM     22  H   UNL     1       6.098   3.398  17.283  0.00  0.00    +0.000 HD
ENDBRANCH  15  16
BRANCH   9  23
ATOM     23  N   UNL     1       1.189   8.691  20.867  0.00  0.00    +0.000 N 
ATOM     24  O   UNL     1       1.157   8.838  22.099  0.00  0.00    +0.000 OA
ATOM     25  O   UNL     1       0.817   9.537  20.047  0.00  0.00    +0.000 OA
ENDBRANCH   9  23
TORSDOF 2
ENDMDL
