MODEL 1
REMARK VINA RESULT:      -7.6      0.000      0.000
REMARK  Name = 
REMARK  6 active torsions:
REMARK  status: ('A' for Active; 'I' for Inactive)
REMARK    1  A    between atoms: C_1  and  C_2
REMARK    2  A    between atoms: C_4  and  C_5
REMARK    3  A    between atoms: C_6  and  N_7
REMARK    4  A    between atoms: C_15  and  C_16
REMARK    5  A    between atoms: C_16  and  N_17
REMARK    6  A    between atoms: C_23  and  C_24
REMARK                            x       y       z     vdW  Elec       q    Type
REMARK                         _______ _______ _______ _____ _____    ______ ____
ROOT
ATOM      1  N   UNL     1       3.891   5.856  17.969  0.00  0.00    +0.000 N 
ATOM      2  C   UNL     1       3.483   5.033  19.110  0.00  0.00    +0.000 A 
ATOM      3  N   UNL     1       3.905   3.813  19.486  0.00  0.00    +0.000 NA
ATOM      4  C   UNL     1       3.237   3.246  20.525  0.00  0.00    +0.000 A 
ATOM      5  C   UNL     1       2.214   3.864  21.252  0.00  0.00    +0.000 A 
ATOM      6  C   UNL     1       1.841   5.160  20.920  0.00  0.00    +0.000 A 
ATOM      7  C   UNL     1       2.491   5.709  19.837  0.00  0.00    +0.000 A 
ATOM      8  N   UNL     1       2.338   6.928  19.208  0.00  0.00    +0.000 N 
ATOM      9  C   UNL     1       1.615   8.078  19.364  0.00  0.00    +0.000 A 
ATOM     10  C   UNL     1       1.978   8.818  18.241  0.00  0.00    +0.000 A 
ATOM     11  C   UNL     1       1.515  10.191  17.908  0.00  0.00    +0.000 C 
ATOM     12  N   UNL     1       2.920   8.149  17.452  0.00  0.00    +0.000 NA
ATOM     13  C   UNL     1       3.152   7.016  18.090  0.00  0.00    +0.000 A 
ENDROOT
BRANCH   1  19
ATOM     14  C   UNL     1       7.703   4.519  13.742  0.00  0.00    +0.000 C 
ATOM     15  C   UNL     1       6.718   4.844  14.829  0.00  0.00    +0.000 A 
ATOM     16  C   UNL     1       5.625   4.024  15.108  0.00  0.00    +0.000 A 
ATOM     17  C   UNL     1       4.685   4.329  16.131  0.00  0.00    +0.000 A 
ATOM     18  C   UNL     1       3.514   3.390  16.241  0.00  0.00    +0.000 C 
ATOM     19  C   UNL     1       4.850   5.474  16.962  0.00  0.00    +0.000 A 
ATOM     20  C   UNL     1       6.004   6.269  16.680  0.00  0.00    +0.000 A 
ATOM     21 CL   UNL     1       6.554   7.568  17.699  0.00  0.00    +0.000 Cl
ATOM     22  C   UNL     1       6.887   5.977  15.618  0.00  0.00    +0.000 A 
ENDBRANCH   1  19
BRANCH   9  23
ATOM     23  C   UNL     1       0.705   8.441  20.499  0.00  0.00    +0.000 C 
BRANCH  23  24
ATOM     24  N   UNL     1       1.259   9.513  21.334  0.00  0.00    +0.000 NA
ATOM     25  C   UNL     1       1.223   9.204  22.781  0.00  0.00    +0.000 C 
ATOM     26  C   UNL     1      -0.035   9.645  23.560  0.00  0.00    +0.000 C 
ATOM     27  O   UNL     1      -0.410  10.996  23.284  0.00  0.00    +0.000 OA
ATOM     28  C   UNL     1      -0.589  11.195  21.882  0.00  0.00    +0.000 C 
ATOM     29  C   UNL     1       0.702  10.865  21.116  0.00  0.00    +0.000 C 
ENDBRANCH  23  24
ENDBRANCH   9  23
TORSDOF 3
ENDMDL
MODEL 2
REMARK VINA RESULT:      -7.0      1.093      1.676
REMARK  Name = 
REMARK  6 active torsions:
REMARK  status: ('A' for Active; 'I' for Inactive)
REMARK    1  A    between atoms: C_1  and  C_2
REMARK    2  A    between atoms: C_4  and  C_5
REMARK    3  A    between atoms: C_6  and  N_7
REMARK    4  A    between atoms: C_15  and  C_16
REMARK    5  A    between atoms: C_16  and  N_17
REMARK    6  A    between atoms: C_23  and  C_24
REMARK                            x       y       z     vdW  Elec       q    Type
REMARK                         _______ _______ _______ _____ _____    ______ ____
ROOT
ATOM      1  N   UNL     1       3.821   5.855  17.971  0.00  0.00    +0.000 N 
ATOM      2  C   UNL     1       3.472   4.994  19.105  0.00  0.00    +0.000 A 
ATOM      3  N   UNL     1       3.926   3.771  19.428  0.00  0.00    +0.000 NA
ATOM      4  C   UNL     1       3.311   3.165  20.477  0.00  0.00    +0.000 A 
ATOM      5  C   UNL     1       2.312   3.747  21.264  0.00  0.00    +0.000 A 
ATOM      6  C   UNL     1       1.907   5.047  20.985  0.00  0.00    +0.000 A 
ATOM      7  C   UNL     1       2.504   5.635  19.892  0.00  0.00    +0.000 A 
ATOM      8  N   UNL     1       2.308   6.870  19.305  0.00  0.00    +0.000 N 
ATOM      9  C   UNL     1       1.577   8.004  19.525  0.00  0.00    +0.000 A 
ATOM     10  C   UNL     1       1.881   8.780  18.409  0.00  0.00    +0.000 A 
ATOM     11  C   UNL     1       1.387  10.156  18.135  0.00  0.00    +0.000 C 
ATOM     12  N   UNL     1       2.798   8.148  17.562  0.00  0.00    +0.000 NA
ATOM     13  C   UNL     1       3.072   7.001  18.157  0.00  0.00    +0.000 A 
ENDROOT
BRANCH   1  19
ATOM     14  C   UNL     1       7.618   4.260  13.822  0.00  0.00    +0.000 C 
ATOM     15  C   UNL     1       6.649   4.687  14.887  0.00  0.00    +0.000 A 
ATOM     16  C   UNL     1       6.842   5.843  15.644  0.00  0.00    +0.000 A 
ATOM     17  C   UNL     1       5.932   6.251  16.658  0.00  0.00    +0.000 A 
ATOM     18  C   UNL     1       6.335   7.469  17.444  0.00  0.00    +0.000 C 
ATOM     19  C   UNL     1       4.740   5.515  16.914  0.00  0.00    +0.000 A 
ATOM     20  C   UNL     1       4.549   4.361  16.091  0.00  0.00    +0.000 A 
ATOM     21 CL   UNL     1       3.070   3.445  16.042  0.00  0.00    +0.000 Cl
ATOM     22  C   UNL     1       5.499   3.945  15.133  0.00  0.00    +0.000 A 
ENDBRANCH   1  19
BRANCH   9  23
ATOM     23  C   UNL     1       0.712   8.322  20.708  0.00  0.00    +0.000 C 
BRANCH  23  24
ATOM     24  N   UNL     1       1.231   9.450  21.488  0.00  0.00    +0.000 NA
ATOM     25  C   UNL     1       1.193   9.216  22.949  0.00  0.00    +0.000 C 
ATOM     26  C   UNL     1      -0.082   9.664  23.697  0.00  0.00    +0.000 C 
ATOM     27  O   UNL     1      -0.491  10.988  23.349  0.00  0.00    +0.000 OA
ATOM     28  C   UNL     1      -0.664  11.108  21.936  0.00  0.00    +0.000 C 
ATOM     29  C   UNL     1       0.640  10.774  21.197  0.00  0.00    +0.000 C 
ENDBRANCH  23  24
ENDBRANCH   9  23
TORSDOF 3
ENDMDL
MODEL 3
REMARK VINA RESULT:      -6.7      4.063      7.185
REMARK  Name = 
REMARK  6 active torsions:
REMARK  status: ('A' for Active; 'I' for Inactive)
REMARK    1  A    between atoms: C_1  and  C_2
REMARK    2  A    between atoms: C_4  and  C_5
REMARK    3  A    between atoms: C_6  and  N_7
REMARK    4  A    between atoms: C_15  and  C_16
REMARK    5  A    between atoms: C_16  and  N_17
REMARK    6  A    between atoms: C_23  and  C_24
REMARK                            x       y       z     vdW  Elec       q    Type
REMARK                         _______ _______ _______ _____ _____    ______ ____
ROOT
ATOM      1  N   UNL     1      -0.294  10.500  19.830  0.00  0.00    +0.000 N 
ATOM      2  C   UNL     1      -1.537  10.570  19.058  0.00  0.00    +0.000 A 
ATOM      3  N   UNL     1      -2.113   9.648  18.267  0.00  0.00    +0.000 NA
ATOM      4  C   UNL     1      -3.207  10.057  17.573  0.00  0.00    +0.000 A 
ATOM      5  C   UNL     1      -3.796  11.322  17.681  0.00  0.00    +0.000 A 
ATOM      6  C   UNL     1      -3.253  12.244  18.566  0.00  0.00    +0.000 A 
ATOM      7  C   UNL     1      -2.119  11.836  19.231  0.00  0.00    +0.000 A 
ATOM      8  N   UNL     1      -1.301  12.499  20.125  0.00  0.00    +0.000 N 
ATOM      9  C   UNL     1      -1.253  13.704  20.770  0.00  0.00    +0.000 A 
ATOM     10  C   UNL     1      -0.039  13.633  21.450  0.00  0.00    +0.000 A 
ATOM     11  C   UNL     1       0.519  14.671  22.357  0.00  0.00    +0.000 C 
ATOM     12  N   UNL     1       0.606  12.407  21.251  0.00  0.00    +0.000 NA
ATOM     13  C   UNL     1      -0.209  11.720  20.471  0.00  0.00    +0.000 A 
ENDROOT
BRANCH   1  19
ATOM     14  C   UNL     1       3.242   5.844  19.740  0.00  0.00    +0.000 C 
ATOM     15  C   UNL     1       2.332   7.039  19.781  0.00  0.00    +0.000 A 
ATOM     16  C   UNL     1       1.478   7.282  20.857  0.00  0.00    +0.000 A 
ATOM     17  C   UNL     1       0.610   8.408  20.901  0.00  0.00    +0.000 A 
ATOM     18  C   UNL     1      -0.313   8.473  22.088  0.00  0.00    +0.000 C 
ATOM     19  C   UNL     1       0.611   9.377  19.858  0.00  0.00    +0.000 A 
ATOM     20  C   UNL     1       1.530   9.123  18.792  0.00  0.00    +0.000 A 
ATOM     21 CL   UNL     1       1.891  10.271  17.536  0.00  0.00    +0.000 Cl
ATOM     22  C   UNL     1       2.336   7.965  18.744  0.00  0.00    +0.000 A 
ENDBRANCH   1  19
BRANCH   9  23
ATOM     23  C   UNL     1      -2.289  14.788  20.765  0.00  0.00    +0.000 C 
BRANCH  23  24
ATOM     24  N   UNL     1      -3.094  14.792  21.990  0.00  0.00    +0.000 NA
ATOM     25  C   UNL     1      -3.568  13.446  22.384  0.00  0.00    +0.000 C 
ATOM     26  C   UNL     1      -4.938  12.997  21.832  0.00  0.00    +0.000 C 
ATOM     27  O   UNL     1      -5.950  13.994  21.987  0.00  0.00    +0.000 OA
ATOM     28  C   UNL     1      -5.543  15.225  21.388  0.00  0.00    +0.000 C 
ATOM     29  C   UNL     1      -4.236  15.732  22.019  0.00  0.00    +0.000 C 
ENDBRANCH  23  24
ENDBRANCH   9  23
TORSDOF 3
ENDMDL
MODEL 4
REMARK VINA RESULT:      -6.7      4.073      7.256
REMARK  Name = 
REMARK  6 active torsions:
REMARK  status: ('A' for Active; 'I' for Inactive)
REMARK    1  A    between atoms: C_1  and  C_2
REMARK    2  A    between atoms: C_4  and  C_5
REMARK    3  A    between atoms: C_6  and  N_7
REMARK    4  A    between atoms: C_15  and  C_16
REMARK    5  A    between atoms: C_16  and  N_17
REMARK    6  A    between atoms: C_23  and  C_24
REMARK                            x       y       z     vdW  Elec       q    Type
REMARK                         _______ _______ _______ _____ _____    ______ ____
ROOT
ATOM      1  N   UNL     1      -0.391  10.456  19.855  0.00  0.00    +0.000 N 
ATOM      2  C   UNL     1      -1.590  10.528  19.016  0.00  0.00    +0.000 A 
ATOM      3  N   UNL     1      -2.096   9.624  18.159  0.00  0.00    +0.000 NA
ATOM      4  C   UNL     1      -3.159  10.035  17.419  0.00  0.00    +0.000 A 
ATOM      5  C   UNL     1      -3.787  11.280  17.541  0.00  0.00    +0.000 A 
ATOM      6  C   UNL     1      -3.319  12.179  18.492  0.00  0.00    +0.000 A 
ATOM      7  C   UNL     1      -2.213  11.771  19.204  0.00  0.00    +0.000 A 
ATOM      8  N   UNL     1      -1.465  12.417  20.169  0.00  0.00    +0.000 N 
ATOM      9  C   UNL     1      -1.485  13.596  20.861  0.00  0.00    +0.000 A 
ATOM     10  C   UNL     1      -0.310  13.528  21.606  0.00  0.00    +0.000 A 
ATOM     11  C   UNL     1       0.169  14.542  22.584  0.00  0.00    +0.000 C 
ATOM     12  N   UNL     1       0.377  12.327  21.398  0.00  0.00    +0.000 NA
ATOM     13  C   UNL     1      -0.374  11.652  20.547  0.00  0.00    +0.000 A 
ENDROOT
BRANCH   1  19
ATOM     14  C   UNL     1       3.254   5.885  19.799  0.00  0.00    +0.000 C 
ATOM     15  C   UNL     1       2.316   7.059  19.832  0.00  0.00    +0.000 A 
ATOM     16  C   UNL     1       1.454   7.287  20.904  0.00  0.00    +0.000 A 
ATOM     17  C   UNL     1       0.558   8.392  20.940  0.00  0.00    +0.000 A 
ATOM     18  C   UNL     1      -0.369   8.442  22.124  0.00  0.00    +0.000 C 
ATOM     19  C   UNL     1       0.540   9.356  19.892  0.00  0.00    +0.000 A 
ATOM     20  C   UNL     1       1.468   9.118  18.830  0.00  0.00    +0.000 A 
ATOM     21 CL   UNL     1       1.806  10.268  17.568  0.00  0.00    +0.000 Cl
ATOM     22  C   UNL     1       2.302   7.980  18.790  0.00  0.00    +0.000 A 
ENDBRANCH   1  19
BRANCH   9  23
ATOM     23  C   UNL     1      -2.547  14.654  20.839  0.00  0.00    +0.000 C 
BRANCH  23  24
ATOM     24  N   UNL     1      -3.805  14.193  21.435  0.00  0.00    +0.000 NA
ATOM     25  C   UNL     1      -4.803  15.272  21.604  0.00  0.00    +0.000 C 
ATOM     26  C   UNL     1      -4.787  16.036  22.946  0.00  0.00    +0.000 C 
ATOM     27  O   UNL     1      -4.733  15.166  24.077  0.00  0.00    +0.000 OA
ATOM     28  C   UNL     1      -3.613  14.284  23.984  0.00  0.00    +0.000 C 
ATOM     29  C   UNL     1      -3.690  13.440  22.703  0.00  0.00    +0.000 C 
ENDBRANCH  23  24
ENDBRANCH   9  23
TORSDOF 3
ENDMDL
MODEL 5
REMARK VINA RESULT:      -6.6      4.115      7.175
REMARK  Name = 
REMARK  6 active torsions:
REMARK  status: ('A' for Active; 'I' for Inactive)
REMARK    1  A    between atoms: C_1  and  C_2
REMARK    2  A    between atoms: C_4  and  C_5
REMARK    3  A    between atoms: C_6  and  N_7
REMARK    4  A    between atoms: C_15  and  C_16
REMARK    5  A    between atoms: C_16  and  N_17
REMARK    6  A    between atoms: C_23  and  C_24
REMARK                            x       y       z     vdW  Elec       q    Type
REMARK                         _______ _______ _______ _____ _____    ______ ____
ROOT
ATOM      1  N   UNL     1       0.536  10.245  19.618  0.00  0.00    +0.000 N 
ATOM      2  C   UNL     1      -0.575  10.512  18.702  0.00  0.00    +0.000 A 
ATOM      3  N   UNL     1      -1.305   9.659  17.963  0.00  0.00    +0.000 NA
ATOM      4  C   UNL     1      -2.191  10.225  17.101  0.00  0.00    +0.000 A 
ATOM      5  C   UNL     1      -2.434  11.599  16.990  0.00  0.00    +0.000 A 
ATOM      6  C   UNL     1      -1.743  12.474  17.820  0.00  0.00    +0.000 A 
ATOM      7  C   UNL     1      -0.815  11.894  18.656  0.00  0.00    +0.000 A 
ATOM      8  N   UNL     1       0.070  12.453  19.557  0.00  0.00    +0.000 N 
ATOM      9  C   UNL     1       0.380  13.687  20.057  0.00  0.00    +0.000 A 
ATOM     10  C   UNL     1       1.471  13.414  20.879  0.00  0.00    +0.000 A 
ATOM     11  C   UNL     1       2.206  14.398  21.718  0.00  0.00    +0.000 C 
ATOM     12  N   UNL     1       1.785  12.051  20.902  0.00  0.00    +0.000 NA
ATOM     13  C   UNL     1       0.886  11.484  20.118  0.00  0.00    +0.000 A 
ENDROOT
BRANCH   1  19
ATOM     14  C   UNL     1       2.704   4.887  20.501  0.00  0.00    +0.000 C 
ATOM     15  C   UNL     1       2.145   6.266  20.293  0.00  0.00    +0.000 A 
ATOM     16  C   UNL     1       1.361   6.901  21.256  0.00  0.00    +0.000 A 
ATOM     17  C   UNL     1       0.823   8.203  21.064  0.00  0.00    +0.000 A 
ATOM     18  C   UNL     1      -0.076   8.706  22.160  0.00  0.00    +0.000 C 
ATOM     19  C   UNL     1       1.108   8.948  19.884  0.00  0.00    +0.000 A 
ATOM     20  C   UNL     1       1.951   8.287  18.936  0.00  0.00    +0.000 A 
ATOM     21 CL   UNL     1       2.636   9.072  17.542  0.00  0.00    +0.000 Cl
ATOM     22  C   UNL     1       2.421   6.970  19.125  0.00  0.00    +0.000 A 
ENDBRANCH   1  19
BRANCH   9  23
ATOM     23  C   UNL     1      -0.330  14.983  19.804  0.00  0.00    +0.000 C 
BRANCH  23  24
ATOM     24  N   UNL     1       0.109  15.624  18.560  0.00  0.00    +0.000 NA
ATOM     25  C   UNL     1       1.579  15.755  18.457  0.00  0.00    +0.000 C 
ATOM     26  C   UNL     1       2.206  17.056  19.005  0.00  0.00    +0.000 C 
ATOM     27  O   UNL     1       1.525  18.229  18.557  0.00  0.00    +0.000 OA
ATOM     28  C   UNL     1       0.136  18.161  18.882  0.00  0.00    +0.000 C 
ATOM     29  C   UNL     1      -0.514  16.926  18.240  0.00  0.00    +0.000 C 
ENDBRANCH  23  24
ENDBRANCH   9  23
TORSDOF 3
ENDMDL
MODEL 6
REMARK VINA RESULT:      -6.6      3.469      7.948
REMARK  Name = 
REMARK  6 active torsions:
REMARK  status: ('A' for Active; 'I' for Inactive)
REMARK    1  A    between atoms: C_1  and  C_2
REMARK    2  A    between atoms: C_4  and  C_5
REMARK    3  A    between atoms: C_6  and  N_7
REMARK    4  A    between atoms: C_15  and  C_16
REMARK    5  A    between atoms: C_16  and  N_17
REMARK    6  A    between atoms: C_23  and  C_24
REMARK                            x       y       z     vdW  Elec       q    Type
REMARK                         _______ _______ _______ _____ _____    ______ ____
ROOT
ATOM      1  N   UNL     1       0.747  11.329  19.849  0.00  0.00    +0.000 N 
ATOM      2  C   UNL     1       0.186  10.762  21.078  0.00  0.00    +0.000 A 
ATOM      3  N   UNL     1      -0.558  11.345  22.033  0.00  0.00    +0.000 NA
ATOM      4  C   UNL     1      -0.820  10.586  23.130  0.00  0.00    +0.000 A 
ATOM      5  C   UNL     1      -0.434   9.250  23.290  0.00  0.00    +0.000 A 
ATOM      6  C   UNL     1       0.257   8.621  22.262  0.00  0.00    +0.000 A 
ATOM      7  C   UNL     1       0.557   9.411  21.175  0.00  0.00    +0.000 A 
ATOM      8  N   UNL     1       1.265   9.139  20.021  0.00  0.00    +0.000 N 
ATOM      9  C   UNL     1       1.878   8.072  19.424  0.00  0.00    +0.000 A 
ATOM     10  C   UNL     1       2.448   8.648  18.291  0.00  0.00    +0.000 A 
ATOM     11  C   UNL     1       3.218   7.935  17.237  0.00  0.00    +0.000 C 
ATOM     12  N   UNL     1       2.155  10.012  18.189  0.00  0.00    +0.000 NA
ATOM     13  C   UNL     1       1.397  10.274  19.238  0.00  0.00    +0.000 A 
ENDROOT
BRANCH   1  19
ATOM     14  C   UNL     1       0.188  16.967  18.405  0.00  0.00    +0.000 C 
ATOM     15  C   UNL     1       0.323  15.514  18.760  0.00  0.00    +0.000 A 
ATOM     16  C   UNL     1      -0.515  14.538  18.220  0.00  0.00    +0.000 A 
ATOM     17  C   UNL     1      -0.398  13.161  18.556  0.00  0.00    +0.000 A 
ATOM     18  C   UNL     1      -1.439  12.253  17.958  0.00  0.00    +0.000 C 
ATOM     19  C   UNL     1       0.628  12.704  19.431  0.00  0.00    +0.000 A 
ATOM     20  C   UNL     1       1.498  13.722  19.932  0.00  0.00    +0.000 A 
ATOM     21 CL   UNL     1       2.961  13.392  20.814  0.00  0.00    +0.000 Cl
ATOM     22  C   UNL     1       1.321  15.090  19.631  0.00  0.00    +0.000 A 
ENDBRANCH   1  19
BRANCH   9  23
ATOM     23  C   UNL     1       1.875   6.642  19.875  0.00  0.00    +0.000 C 
BRANCH  23  24
ATOM     24  N   UNL     1       2.622   5.770  18.963  0.00  0.00    +0.000 NA
ATOM     25  C   UNL     1       1.751   4.897  18.144  0.00  0.00    +0.000 C 
ATOM     26  C   UNL     1       1.408   3.508  18.725  0.00  0.00    +0.000 C 
ATOM     27  O   UNL     1       2.556   2.817  19.220  0.00  0.00    +0.000 OA
ATOM     28  C   UNL     1       3.247   3.611  20.185  0.00  0.00    +0.000 C 
ATOM     29  C   UNL     1       3.691   4.949  19.573  0.00  0.00    +0.000 C 
ENDBRANCH  23  24
ENDBRANCH   9  23
TORSDOF 3
ENDMDL
MODEL 7
REMARK VINA RESULT:      -6.6      8.017     10.279
REMARK  Name = 
REMARK  6 active torsions:
REMARK  status: ('A' for Active; 'I' for Inactive)
REMARK    1  A    between atoms: C_1  and  C_2
REMARK    2  A    between atoms: C_4  and  C_5
REMARK    3  A    between atoms: C_6  and  N_7
REMARK    4  A    between atoms: C_15  and  C_16
REMARK    5  A    between atoms: C_16  and  N_17
REMARK    6  A    between atoms: C_23  and  C_24
REMARK                            x       y       z     vdW  Elec       q    Type
REMARK                         _______ _______ _______ _____ _____    ______ ____
ROOT
ATOM      1  N   UNL     1      -4.040  12.208  19.486  0.00  0.00    +0.000 N 
ATOM      2  C   UNL     1      -5.304  11.995  20.195  0.00  0.00    +0.000 A 
ATOM      3  N   UNL     1      -6.359  11.230  19.864  0.00  0.00    +0.000 NA
ATOM      4  C   UNL     1      -7.451  11.341  20.665  0.00  0.00    +0.000 A 
ATOM      5  C   UNL     1      -7.518  12.125  21.821  0.00  0.00    +0.000 A 
ATOM      6  C   UNL     1      -6.396  12.846  22.213  0.00  0.00    +0.000 A 
ATOM      7  C   UNL     1      -5.311  12.763  21.370  0.00  0.00    +0.000 A 
ATOM      8  N   UNL     1      -4.075  13.377  21.417  0.00  0.00    +0.000 N 
ATOM      9  C   UNL     1      -3.374  14.205  22.249  0.00  0.00    +0.000 A 
ATOM     10  C   UNL     1      -2.204  14.437  21.529  0.00  0.00    +0.000 A 
ATOM     11  C   UNL     1      -1.045  15.254  21.976  0.00  0.00    +0.000 C 
ATOM     12  N   UNL     1      -2.185  13.738  20.316  0.00  0.00    +0.000 NA
ATOM     13  C   UNL     1      -3.323  13.067  20.296  0.00  0.00    +0.000 A 
ENDROOT
BRANCH   1  19
ATOM     14  C   UNL     1      -2.818   9.705  14.345  0.00  0.00    +0.000 C 
ATOM     15  C   UNL     1      -3.114  10.348  15.671  0.00  0.00    +0.000 A 
ATOM     16  C   UNL     1      -2.242  10.246  16.754  0.00  0.00    +0.000 A 
ATOM     17  C   UNL     1      -2.518  10.847  18.014  0.00  0.00    +0.000 A 
ATOM     18  C   UNL     1      -1.519  10.563  19.104  0.00  0.00    +0.000 C 
ATOM     19  C   UNL     1      -3.688  11.633  18.211  0.00  0.00    +0.000 A 
ATOM     20  C   UNL     1      -4.539  11.755  17.068  0.00  0.00    +0.000 A 
ATOM     21 CL   UNL     1      -5.888  12.850  16.983  0.00  0.00    +0.000 Cl
ATOM     22  C   UNL     1      -4.272  11.098  15.848  0.00  0.00    +0.000 A 
ENDBRANCH   1  19
BRANCH   9  23
ATOM     23  C   UNL     1      -3.772  14.686  23.612  0.00  0.00    +0.000 C 
BRANCH  23  24
ATOM     24  N   UNL     1      -4.729  15.795  23.554  0.00  0.00    +0.000 NA
ATOM     25  C   UNL     1      -4.471  16.732  22.438  0.00  0.00    +0.000 C 
ATOM     26  C   UNL     1      -3.544  17.932  22.731  0.00  0.00    +0.000 C 
ATOM     27  O   UNL     1      -3.886  18.611  23.941  0.00  0.00    +0.000 OA
ATOM     28  C   UNL     1      -3.902  17.703  25.043  0.00  0.00    +0.000 C 
ATOM     29  C   UNL     1      -4.910  16.569  24.801  0.00  0.00    +0.000 C 
ENDBRANCH  23  24
ENDBRANCH   9  23
TORSDOF 3
ENDMDL
MODEL 8
REMARK VINA RESULT:      -6.5      5.093      8.828
REMARK  Name = 
REMARK  6 active torsions:
REMARK  status: ('A' for Active; 'I' for Inactive)
REMARK    1  A    between atoms: C_1  and  C_2
REMARK    2  A    between atoms: C_4  and  C_5
REMARK    3  A    between atoms: C_6  and  N_7
REMARK    4  A    between atoms: C_15  and  C_16
REMARK    5  A    between atoms: C_16  and  N_17
REMARK    6  A    between atoms: C_23  and  C_24
REMARK                            x       y       z     vdW  Elec       q    Type
REMARK                         _______ _______ _______ _____ _____    ______ ____
ROOT
ATOM      1  N   UNL     1      -0.169  12.203  21.516  0.00  0.00    +0.000 N 
ATOM      2  C   UNL     1       0.625  13.425  21.662  0.00  0.00    +0.000 A 
ATOM      3  N   UNL     1       1.920  13.650  21.377  0.00  0.00    +0.000 NA
ATOM      4  C   UNL     1       2.410  14.861  21.749  0.00  0.00    +0.000 A 
ATOM      5  C   UNL     1       1.655  15.887  22.328  0.00  0.00    +0.000 A 
ATOM      6  C   UNL     1       0.296  15.686  22.539  0.00  0.00    +0.000 A 
ATOM      7  C   UNL     1      -0.181  14.439  22.202  0.00  0.00    +0.000 A 
ATOM      8  N   UNL     1      -1.440  13.884  22.324  0.00  0.00    +0.000 N 
ATOM      9  C   UNL     1      -2.692  14.265  22.720  0.00  0.00    +0.000 A 
ATOM     10  C   UNL     1      -3.412  13.076  22.625  0.00  0.00    +0.000 A 
ATOM     11  C   UNL     1      -4.863  12.903  22.904  0.00  0.00    +0.000 C 
ATOM     12  N   UNL     1      -2.625  12.020  22.150  0.00  0.00    +0.000 NA
ATOM     13  C   UNL     1      -1.437  12.555  21.936  0.00  0.00    +0.000 A 
ENDROOT
BRANCH   1  19
ATOM     14  C   UNL     1       2.067   7.096  19.752  0.00  0.00    +0.000 C 
ATOM     15  C   UNL     1       1.487   8.412  20.187  0.00  0.00    +0.000 A 
ATOM     16  C   UNL     1       1.264   9.457  19.290  0.00  0.00    +0.000 A 
ATOM     17  C   UNL     1       0.722  10.707  19.696  0.00  0.00    +0.000 A 
ATOM     18  C   UNL     1       0.632  11.758  18.623  0.00  0.00    +0.000 C 
ATOM     19  C   UNL     1       0.328  10.933  21.046  0.00  0.00    +0.000 A 
ATOM     20  C   UNL     1       0.527   9.827  21.931  0.00  0.00    +0.000 A 
ATOM     21 CL   UNL     1      -0.092   9.769  23.556  0.00  0.00    +0.000 Cl
ATOM     22  C   UNL     1       1.125   8.619  21.514  0.00  0.00    +0.000 A 
ENDBRANCH   1  19
BRANCH   9  23
ATOM     23  C   UNL     1      -3.155  15.638  23.105  0.00  0.00    +0.000 C 
BRANCH  23  24
ATOM     24  N   UNL     1      -3.441  15.747  24.539  0.00  0.00    +0.000 NA
ATOM     25  C   UNL     1      -3.556  17.145  25.008  0.00  0.00    +0.000 C 
ATOM     26  C   UNL     1      -2.263  17.823  25.512  0.00  0.00    +0.000 C 
ATOM     27  O   UNL     1      -1.530  17.003  26.425  0.00  0.00    +0.000 OA
ATOM     28  C   UNL     1      -1.240  15.732  25.842  0.00  0.00    +0.000 C 
ATOM     29  C   UNL     1      -2.535  15.007  25.444  0.00  0.00    +0.000 C 
ENDBRANCH  23  24
ENDBRANCH   9  23
TORSDOF 3
ENDMDL
MODEL 9
REMARK VINA RESULT:      -6.5      6.970      9.228
REMARK  Name = 
REMARK  6 active torsions:
REMARK  status: ('A' for Active; 'I' for Inactive)
REMARK    1  A    between atoms: C_1  and  C_2
REMARK    2  A    between atoms: C_4  and  C_5
REMARK    3  A    between atoms: C_6  and  N_7
REMARK    4  A    between atoms: C_15  and  C_16
REMARK    5  A    between atoms: C_16  and  N_17
REMARK    6  A    between atoms: C_23  and  C_24
REMARK                            x       y       z     vdW  Elec       q    Type
REMARK                         _______ _______ _______ _____ _____    ______ ____
ROOT
ATOM      1  N   UNL     1      -0.002  13.713  21.242  0.00  0.00    +0.000 N 
ATOM      2  C   UNL     1      -0.042  12.349  21.775  0.00  0.00    +0.000 A 
ATOM      3  N   UNL     1       0.802  11.322  21.575  0.00  0.00    +0.000 NA
ATOM      4  C   UNL     1       0.424  10.128  22.105  0.00  0.00    +0.000 A 
ATOM      5  C   UNL     1      -0.720   9.925  22.884  0.00  0.00    +0.000 A 
ATOM      6  C   UNL     1      -1.544  11.008  23.166  0.00  0.00    +0.000 A 
ATOM      7  C   UNL     1      -1.178  12.202  22.586  0.00  0.00    +0.000 A 
ATOM      8  N   UNL     1      -1.781  13.444  22.606  0.00  0.00    +0.000 N 
ATOM      9  C   UNL     1      -2.859  14.050  23.190  0.00  0.00    +0.000 A 
ATOM     10  C   UNL     1      -2.830  15.324  22.626  0.00  0.00    +0.000 A 
ATOM     11  C   UNL     1      -3.765  16.439  22.932  0.00  0.00    +0.000 C 
ATOM     12  N   UNL     1      -1.746  15.491  21.758  0.00  0.00    +0.000 NA
ATOM     13  C   UNL     1      -1.100  14.340  21.799  0.00  0.00    +0.000 A 
ENDROOT
BRANCH   1  19
ATOM     14  C   UNL     1       4.103  15.541  17.502  0.00  0.00    +0.000 C 
ATOM     15  C   UNL     1       3.052  15.086  18.474  0.00  0.00    +0.000 A 
ATOM     16  C   UNL     1       3.041  15.507  19.804  0.00  0.00    +0.000 A 
ATOM     17  C   UNL     1       2.053  15.076  20.731  0.00  0.00    +0.000 A 
ATOM     18  C   UNL     1       2.238  15.549  22.148  0.00  0.00    +0.000 C 
ATOM     19  C   UNL     1       0.986  14.225  20.325  0.00  0.00    +0.000 A 
ATOM     20  C   UNL     1       1.001  13.847  18.946  0.00  0.00    +0.000 A 
ATOM     21 CL   UNL     1      -0.313  13.022  18.157  0.00  0.00    +0.000 Cl
ATOM     22  C   UNL     1       2.028  14.240  18.061  0.00  0.00    +0.000 A 
ENDBRANCH   1  19
BRANCH   9  23
ATOM     23  C   UNL     1      -3.789  13.475  24.216  0.00  0.00    +0.000 C 
BRANCH  23  24
ATOM     24  N   UNL     1      -4.733  12.516  23.635  0.00  0.00    +0.000 NA
ATOM     25  C   UNL     1      -5.106  12.835  22.239  0.00  0.00    +0.000 C 
ATOM     26  C   UNL     1      -6.345  13.734  22.034  0.00  0.00    +0.000 C 
ATOM     27  O   UNL     1      -7.467  13.315  22.813  0.00  0.00    +0.000 OA
ATOM     28  C   UNL     1      -7.122  13.239  24.196  0.00  0.00    +0.000 C 
ATOM     29  C   UNL     1      -5.962  12.255  24.415  0.00  0.00    +0.000 C 
ENDBRANCH  23  24
ENDBRANCH   9  23
TORSDOF 3
ENDMDL
