MODEL 1
REMARK VINA RESULT:      -8.2      0.000      0.000
REMARK  Name = 
REMARK  7 active torsions:
REMARK  status: ('A' for Active; 'I' for Inactive)
REMARK    1  A    between atoms: C_1  and  O_2
REMARK    2  A    between atoms: O_2  and  C_3
REMARK    3  A    between atoms: C_6  and  N_7
REMARK    4  A    between atoms: N_7  and  C_8
REMARK    5  A    between atoms: C_8  and  C_9
REMARK    6  A    between atoms: C_12  and  C_13
REMARK    7  A    between atoms: C_19  and  C_21
REMARK                            x       y       z     vdW  Elec       q    Type
REMARK                         _______ _______ _______ _____ _____    ______ ____
ROOT
ATOM      1  C   UNL     1       3.551   3.540  19.816  0.00  0.00    +0.000 A 
ATOM      2  C   UNL     1       4.661   3.027  19.131  0.00  0.00    +0.000 A 
ATOM      3  C   UNL     1       5.412   3.828  18.268  0.00  0.00    +0.000 A 
ATOM      4  C   UNL     1       5.072   5.165  18.034  0.00  0.00    +0.000 A 
ATOM      5  C   UNL     1       3.917   5.663  18.684  0.00  0.00    +0.000 A 
ATOM      6  S   UNL     1       3.168   7.205  18.561  0.00  0.00    +0.000 S 
ATOM      7  C   UNL     1       2.073   6.810  19.809  0.00  0.00    +0.000 A 
ATOM      8  N   UNL     1       1.238   7.741  20.399  0.00  0.00    +0.000 N 
ATOM      9  C   UNL     1       1.186   9.076  20.064  0.00  0.00    +0.000 C 
ATOM     10  O   UNL     1       1.763   9.586  19.105  0.00  0.00    +0.000 OA
ATOM     11  N   UNL     1       2.117   5.567  20.214  0.00  0.00    +0.000 NA
ATOM     12  C   UNL     1       3.170   4.890  19.586  0.00  0.00    +0.000 A 
ATOM     13  H   UNL     1       0.723   7.356  21.175  0.00  0.00    +0.000 HD
ENDROOT
BRANCH   9  14
ATOM     14  C   UNL     1       0.400  10.018  20.930  0.00  0.00    +0.000 A 
ATOM     15  C   UNL     1       0.072  11.339  20.597  0.00  0.00    +0.000 A 
ATOM     16  C   UNL     1      -0.656  12.128  21.503  0.00  0.00    +0.000 A 
ATOM     17  C   UNL     1      -1.056  11.602  22.729  0.00  0.00    +0.000 A 
ATOM     18  F   UNL     1      -1.744  12.365  23.588  0.00  0.00    +0.000 F 
ATOM     19  C   UNL     1      -0.749  10.298  23.076  0.00  0.00    +0.000 A 
ATOM     20  C   UNL     1      -0.026   9.511  22.178  0.00  0.00    +0.000 A 
ENDBRANCH   9  14
BRANCH   4  21
ATOM     21  N   UNL     1       5.859   5.932  17.128  0.00  0.00    +0.000 N 
ATOM     22  C   UNL     1       7.088   6.501  17.423  0.00  0.00    +0.000 C 
ATOM     23  C   UNL     1       7.636   6.447  18.826  0.00  0.00    +0.000 C 
ATOM     24  O   UNL     1       7.770   7.046  16.543  0.00  0.00    +0.000 OA
BRANCH  21  25
ATOM     25  C   UNL     1       5.326   6.110  15.771  0.00  0.00    +0.000 C 
BRANCH  25  26
ATOM     26  C   UNL     1       5.811   5.082  14.740  0.00  0.00    +0.000 C 
ATOM     27  N   UNL     1       7.075   5.242  14.250  0.00  0.00    +0.000 N 
ATOM     28  O   UNL     1       5.075   4.221  14.263  0.00  0.00    +0.000 OA
ATOM     29  H   UNL     1       7.563   6.126  14.392  0.00  0.00    +0.000 HD
ATOM     30  H   UNL     1       7.323   4.697  13.433  0.00  0.00    +0.000 HD
ENDBRANCH  25  26
ENDBRANCH  21  25
ENDBRANCH   4  21
BRANCH   1  32
ATOM     31  C   UNL     1       1.624   2.179  20.085  0.00  0.00    +0.000 C 
ATOM     32  O   UNL     1       2.774   2.785  20.664  0.00  0.00    +0.000 OA
ENDBRANCH   1  32
TORSDOF 5
ENDMDL
MODEL 2
REMARK VINA RESULT:      -8.2      2.093      2.490
REMARK  Name = 
REMARK  7 active torsions:
REMARK  status: ('A' for Active; 'I' for Inactive)
REMARK    1  A    between atoms: C_1  and  O_2
REMARK    2  A    between atoms: O_2  and  C_3
REMARK    3  A    between atoms: C_6  and  N_7
REMARK    4  A    between atoms: N_7  and  C_8
REMARK    5  A    between atoms: C_8  and  C_9
REMARK    6  A    between atoms: C_12  and  C_13
REMARK    7  A    between atoms: C_19  and  C_21
REMARK                            x       y       z     vdW  Elec       q    Type
REMARK                         _______ _______ _______ _____ _____    ______ ____
ROOT
ATOM      1  C   UNL     1       2.822   3.987  20.520  0.00  0.00    +0.000 A 
ATOM      2  C   UNL     1       3.780   2.995  20.268  0.00  0.00    +0.000 A 
ATOM      3  C   UNL     1       4.753   3.163  19.280  0.00  0.00    +0.000 A 
ATOM      4  C   UNL     1       4.794   4.314  18.486  0.00  0.00    +0.000 A 
ATOM      5  C   UNL     1       3.790   5.288  18.704  0.00  0.00    +0.000 A 
ATOM      6  S   UNL     1       3.487   6.759  17.869  0.00  0.00    +0.000 S 
ATOM      7  C   UNL     1       2.278   7.188  18.993  0.00  0.00    +0.000 A 
ATOM      8  N   UNL     1       1.700   8.444  19.032  0.00  0.00    +0.000 N 
ATOM      9  C   UNL     1       2.022   9.486  18.190  0.00  0.00    +0.000 C 
ATOM     10  O   UNL     1       2.752   9.397  17.205  0.00  0.00    +0.000 OA
ATOM     11  N   UNL     1       1.969   6.259  19.861  0.00  0.00    +0.000 NA
ATOM     12  C   UNL     1       2.827   5.161  19.717  0.00  0.00    +0.000 A 
ATOM     13  H   UNL     1       1.070   8.551  19.811  0.00  0.00    +0.000 HD
ENDROOT
BRANCH   9  14
ATOM     14  C   UNL     1       1.484  10.857  18.482  0.00  0.00    +0.000 A 
ATOM     15  C   UNL     1       0.230  11.130  19.043  0.00  0.00    +0.000 A 
ATOM     16  C   UNL     1      -0.167  12.462  19.252  0.00  0.00    +0.000 A 
ATOM     17  C   UNL     1       0.683  13.511  18.908  0.00  0.00    +0.000 A 
ATOM     18  F   UNL     1       0.291  14.776  19.106  0.00  0.00    +0.000 F 
ATOM     19  C   UNL     1       1.929  13.263  18.359  0.00  0.00    +0.000 A 
ATOM     20  C   UNL     1       2.326  11.942  18.151  0.00  0.00    +0.000 A 
ENDBRANCH   9  14
BRANCH   4  21
ATOM     21  N   UNL     1       5.793   4.425  17.478  0.00  0.00    +0.000 N 
ATOM     22  C   UNL     1       7.073   4.920  17.674  0.00  0.00    +0.000 C 
ATOM     23  C   UNL     1       7.465   5.515  19.001  0.00  0.00    +0.000 C 
ATOM     24  O   UNL     1       7.926   4.865  16.776  0.00  0.00    +0.000 OA
BRANCH  21  25
ATOM     25  C   UNL     1       5.435   3.958  16.132  0.00  0.00    +0.000 C 
BRANCH  25  26
ATOM     26  C   UNL     1       5.729   4.950  14.998  0.00  0.00    +0.000 C 
ATOM     27  N   UNL     1       6.552   4.522  13.995  0.00  0.00    +0.000 N 
ATOM     28  O   UNL     1       5.362   6.122  15.028  0.00  0.00    +0.000 OA
ATOM     29  H   UNL     1       7.113   3.681  14.129  0.00  0.00    +0.000 HD
ATOM     30  H   UNL     1       6.908   5.226  13.361  0.00  0.00    +0.000 HD
ENDBRANCH  25  26
ENDBRANCH  21  25
ENDBRANCH   4  21
BRANCH   1  32
ATOM     31  C   UNL     1       1.426   2.530  21.771  0.00  0.00    +0.000 C 
ATOM     32  O   UNL     1       1.838   3.859  21.472  0.00  0.00    +0.000 OA
ENDBRANCH   1  32
TORSDOF 5
ENDMDL
MODEL 3
REMARK VINA RESULT:      -8.0      1.719      1.795
REMARK  Name = 
REMARK  7 active torsions:
REMARK  status: ('A' for Active; 'I' for Inactive)
REMARK    1  A    between atoms: C_1  and  O_2
REMARK    2  A    between atoms: O_2  and  C_3
REMARK    3  A    between atoms: C_6  and  N_7
REMARK    4  A    between atoms: N_7  and  C_8
REMARK    5  A    between atoms: C_8  and  C_9
REMARK    6  A    between atoms: C_12  and  C_13
REMARK    7  A    between atoms: C_19  and  C_21
REMARK                            x       y       z     vdW  Elec       q    Type
REMARK                         _______ _______ _______ _____ _____    ______ ____
ROOT
ATOM      1  C   UNL     1       3.310   4.418  20.103  0.00  0.00    +0.000 A 
ATOM      2  C   UNL     1       4.364   3.621  19.637  0.00  0.00    +0.000 A 
ATOM      3  C   UNL     1       5.186   4.046  18.591  0.00  0.00    +0.000 A 
ATOM      4  C   UNL     1       4.976   5.273  17.952  0.00  0.00    +0.000 A 
ATOM      5  C   UNL     1       3.876   6.050  18.387  0.00  0.00    +0.000 A 
ATOM      6  S   UNL     1       3.277   7.542  17.780  0.00  0.00    +0.000 S 
ATOM      7  C   UNL     1       2.153   7.651  19.059  0.00  0.00    +0.000 A 
ATOM      8  N   UNL     1       1.412   8.791  19.314  0.00  0.00    +0.000 N 
ATOM      9  C   UNL     1       1.488   9.958  18.587  0.00  0.00    +0.000 C 
ATOM     10  O   UNL     1       2.109  10.095  17.533  0.00  0.00    +0.000 OA
ATOM     11  N   UNL     1       2.077   6.593  19.825  0.00  0.00    +0.000 NA
ATOM     12  C   UNL     1       3.059   5.662  19.462  0.00  0.00    +0.000 A 
ATOM     13  H   UNL     1       0.864   8.710  20.155  0.00  0.00    +0.000 HD
ENDROOT
BRANCH   9  14
ATOM     14  C   UNL     1       0.798  11.188  19.102  0.00  0.00    +0.000 A 
ATOM     15  C   UNL     1       1.420  12.418  19.352  0.00  0.00    +0.000 A 
ATOM     16  C   UNL     1       0.666  13.493  19.852  0.00  0.00    +0.000 A 
ATOM     17  C   UNL     1      -0.697  13.342  20.096  0.00  0.00    +0.000 A 
ATOM     18  F   UNL     1      -1.405  14.372  20.578  0.00  0.00    +0.000 F 
ATOM     19  C   UNL     1      -1.333  12.138  19.849  0.00  0.00    +0.000 A 
ATOM     20  C   UNL     1      -0.588  11.069  19.352  0.00  0.00    +0.000 A 
ENDBRANCH   9  14
BRANCH   4  21
ATOM     21  N   UNL     1       5.830   5.649  16.877  0.00  0.00    +0.000 N 
ATOM     22  C   UNL     1       7.092   6.207  17.019  0.00  0.00    +0.000 C 
ATOM     23  C   UNL     1       7.611   6.583  18.382  0.00  0.00    +0.000 C 
ATOM     24  O   UNL     1       7.826   6.389  16.037  0.00  0.00    +0.000 OA
BRANCH  21  25
ATOM     25  C   UNL     1       5.335   5.405  15.517  0.00  0.00    +0.000 C 
BRANCH  25  26
ATOM     26  C   UNL     1       5.993   4.227  14.785  0.00  0.00    +0.000 C 
ATOM     27  N   UNL     1       6.089   3.048  15.467  0.00  0.00    +0.000 N 
ATOM     28  O   UNL     1       6.533   4.343  13.688  0.00  0.00    +0.000 OA
ATOM     29  H   UNL     1       5.943   3.036  16.477  0.00  0.00    +0.000 HD
ATOM     30  H   UNL     1       6.694   2.338  15.074  0.00  0.00    +0.000 HD
ENDBRANCH  25  26
ENDBRANCH  21  25
ENDBRANCH   4  21
BRANCH   1  32
ATOM     31  C   UNL     1       1.600   2.942  20.833  0.00  0.00    +0.000 C 
ATOM     32  O   UNL     1       2.466   4.034  21.119  0.00  0.00    +0.000 OA
ENDBRANCH   1  32
TORSDOF 5
ENDMDL
MODEL 4
REMARK VINA RESULT:      -7.9      1.979      2.236
REMARK  Name = 
REMARK  7 active torsions:
REMARK  status: ('A' for Active; 'I' for Inactive)
REMARK    1  A    between atoms: C_1  and  O_2
REMARK    2  A    between atoms: O_2  and  C_3
REMARK    3  A    between atoms: C_6  and  N_7
REMARK    4  A    between atoms: N_7  and  C_8
REMARK    5  A    between atoms: C_8  and  C_9
REMARK    6  A    between atoms: C_12  and  C_13
REMARK    7  A    between atoms: C_19  and  C_21
REMARK                            x       y       z     vdW  Elec       q    Type
REMARK                         _______ _______ _______ _____ _____    ______ ____
ROOT
ATOM      1  C   UNL     1       3.081   3.858  20.640  0.00  0.00    +0.000 A 
ATOM      2  C   UNL     1       4.041   2.879  20.351  0.00  0.00    +0.000 A 
ATOM      3  C   UNL     1       4.941   3.037  19.295  0.00  0.00    +0.000 A 
ATOM      4  C   UNL     1       4.903   4.166  18.469  0.00  0.00    +0.000 A 
ATOM      5  C   UNL     1       3.896   5.125  18.728  0.00  0.00    +0.000 A 
ATOM      6  S   UNL     1       3.505   6.566  17.875  0.00  0.00    +0.000 S 
ATOM      7  C   UNL     1       2.365   7.003  19.067  0.00  0.00    +0.000 A 
ATOM      8  N   UNL     1       1.764   8.248  19.111  0.00  0.00    +0.000 N 
ATOM      9  C   UNL     1       2.006   9.271  18.221  0.00  0.00    +0.000 C 
ATOM     10  O   UNL     1       2.670   9.168  17.191  0.00  0.00    +0.000 OA
ATOM     11  N   UNL     1       2.137   6.093  19.979  0.00  0.00    +0.000 NA
ATOM     12  C   UNL     1       3.006   5.008  19.808  0.00  0.00    +0.000 A 
ATOM     13  H   UNL     1       1.186   8.365  19.928  0.00  0.00    +0.000 HD
ENDROOT
BRANCH   9  14
ATOM     14  C   UNL     1       1.459  10.639  18.512  0.00  0.00    +0.000 A 
ATOM     15  C   UNL     1       2.137  11.844  18.290  0.00  0.00    +0.000 A 
ATOM     16  C   UNL     1       1.522  13.063  18.621  0.00  0.00    +0.000 A 
ATOM     17  C   UNL     1       0.239  13.079  19.164  0.00  0.00    +0.000 A 
ATOM     18  F   UNL     1      -0.335  14.246  19.481  0.00  0.00    +0.000 F 
ATOM     19  C   UNL     1      -0.451  11.900  19.386  0.00  0.00    +0.000 A 
ATOM     20  C   UNL     1       0.156  10.688  19.058  0.00  0.00    +0.000 A 
ENDBRANCH   9  14
BRANCH   4  21
ATOM     21  N   UNL     1       5.829   4.268  17.392  0.00  0.00    +0.000 N 
ATOM     22  C   UNL     1       7.118   4.770  17.493  0.00  0.00    +0.000 C 
ATOM     23  C   UNL     1       7.598   5.385  18.782  0.00  0.00    +0.000 C 
ATOM     24  O   UNL     1       7.907   4.708  16.539  0.00  0.00    +0.000 OA
BRANCH  21  25
ATOM     25  C   UNL     1       5.381   3.781  16.081  0.00  0.00    +0.000 C 
BRANCH  25  26
ATOM     26  C   UNL     1       5.691   4.712  14.900  0.00  0.00    +0.000 C 
ATOM     27  N   UNL     1       5.437   6.042  15.074  0.00  0.00    +0.000 N 
ATOM     28  O   UNL     1       6.028   4.295  13.795  0.00  0.00    +0.000 OA
ATOM     29  H   UNL     1       4.858   6.347  15.858  0.00  0.00    +0.000 HD
ATOM     30  H   UNL     1       5.445   6.624  14.246  0.00  0.00    +0.000 HD
ENDBRANCH  25  26
ENDBRANCH  21  25
ENDBRANCH   4  21
BRANCH   1  32
ATOM     31  C   UNL     1       1.240   2.665  21.546  0.00  0.00    +0.000 C 
ATOM     32  O   UNL     1       2.166   3.739  21.661  0.00  0.00    +0.000 OA
ENDBRANCH   1  32
TORSDOF 5
ENDMDL
MODEL 5
REMARK VINA RESULT:      -7.8      1.368      2.239
REMARK  Name = 
REMARK  7 active torsions:
REMARK  status: ('A' for Active; 'I' for Inactive)
REMARK    1  A    between atoms: C_1  and  O_2
REMARK    2  A    between atoms: O_2  and  C_3
REMARK    3  A    between atoms: C_6  and  N_7
REMARK    4  A    between atoms: N_7  and  C_8
REMARK    5  A    between atoms: C_8  and  C_9
REMARK    6  A    between atoms: C_12  and  C_13
REMARK    7  A    between atoms: C_19  and  C_21
REMARK                            x       y       z     vdW  Elec       q    Type
REMARK                         _______ _______ _______ _____ _____    ______ ____
ROOT
ATOM      1  C   UNL     1       3.055   3.366  21.018  0.00  0.00    +0.000 A 
ATOM      2  C   UNL     1       4.072   2.669  20.353  0.00  0.00    +0.000 A 
ATOM      3  C   UNL     1       4.784   3.254  19.303  0.00  0.00    +0.000 A 
ATOM      4  C   UNL     1       4.492   4.548  18.858  0.00  0.00    +0.000 A 
ATOM      5  C   UNL     1       3.426   5.227  19.493  0.00  0.00    +0.000 A 
ATOM      6  S   UNL     1       2.747   6.769  19.152  0.00  0.00    +0.000 S 
ATOM      7  C   UNL     1       1.748   6.673  20.532  0.00  0.00    +0.000 A 
ATOM      8  N   UNL     1       1.016   7.746  21.006  0.00  0.00    +0.000 N 
ATOM      9  C   UNL     1       1.002   9.001  20.439  0.00  0.00    +0.000 C 
ATOM     10  O   UNL     1       1.517   9.295  19.361  0.00  0.00    +0.000 OA
ATOM     11  N   UNL     1       1.765   5.521  21.152  0.00  0.00    +0.000 NA
ATOM     12  C   UNL     1       2.723   4.676  20.577  0.00  0.00    +0.000 A 
ATOM     13  H   UNL     1       0.553   7.539  21.876  0.00  0.00    +0.000 HD
ENDROOT
BRANCH   9  14
ATOM     14  C   UNL     1       0.344  10.131  21.177  0.00  0.00    +0.000 A 
ATOM     15  C   UNL     1       0.434  11.485  20.829  0.00  0.00    +0.000 A 
ATOM     16  C   UNL     1      -0.216  12.453  21.613  0.00  0.00    +0.000 A 
ATOM     17  C   UNL     1      -0.952  12.072  22.733  0.00  0.00    +0.000 A 
ATOM     18  F   UNL     1      -1.562  13.004  23.477  0.00  0.00    +0.000 F 
ATOM     19  C   UNL     1      -1.059  10.739  23.091  0.00  0.00    +0.000 A 
ATOM     20  C   UNL     1      -0.416   9.776  22.315  0.00  0.00    +0.000 A 
ENDBRANCH   9  14
BRANCH   4  21
ATOM     21  N   UNL     1       5.233   5.088  17.769  0.00  0.00    +0.000 N 
ATOM     22  C   UNL     1       4.953   4.875  16.428  0.00  0.00    +0.000 C 
ATOM     23  C   UNL     1       3.870   3.910  16.020  0.00  0.00    +0.000 C 
ATOM     24  O   UNL     1       5.567   5.484  15.539  0.00  0.00    +0.000 OA
BRANCH  21  25
ATOM     25  C   UNL     1       6.370   5.955  18.104  0.00  0.00    +0.000 C 
BRANCH  25  26
ATOM     26  C   UNL     1       7.628   5.222  18.591  0.00  0.00    +0.000 C 
ATOM     27  N   UNL     1       8.179   5.646  19.766  0.00  0.00    +0.000 N 
ATOM     28  O   UNL     1       8.209   4.377  17.914  0.00  0.00    +0.000 OA
ATOM     29  H   UNL     1       7.899   6.544  20.159  0.00  0.00    +0.000 HD
ATOM     30  H   UNL     1       9.108   5.309  19.986  0.00  0.00    +0.000 HD
ENDBRANCH  25  26
ENDBRANCH  21  25
ENDBRANCH   4  21
BRANCH   1  32
ATOM     31  C   UNL     1       1.066   2.255  21.687  0.00  0.00    +0.000 C 
ATOM     32  O   UNL     1       2.319   2.825  22.047  0.00  0.00    +0.000 OA
ENDBRANCH   1  32
TORSDOF 5
ENDMDL
MODEL 6
REMARK VINA RESULT:      -7.8      2.075      2.952
REMARK  Name = 
REMARK  7 active torsions:
REMARK  status: ('A' for Active; 'I' for Inactive)
REMARK    1  A    between atoms: C_1  and  O_2
REMARK    2  A    between atoms: O_2  and  C_3
REMARK    3  A    between atoms: C_6  and  N_7
REMARK    4  A    between atoms: N_7  and  C_8
REMARK    5  A    between atoms: C_8  and  C_9
REMARK    6  A    between atoms: C_12  and  C_13
REMARK    7  A    between atoms: C_19  and  C_21
REMARK                            x       y       z     vdW  Elec       q    Type
REMARK                         _______ _______ _______ _____ _____    ______ ____
ROOT
ATOM      1  C   UNL     1       3.098   3.898  19.774  0.00  0.00    +0.000 A 
ATOM      2  C   UNL     1       4.190   3.055  19.528  0.00  0.00    +0.000 A 
ATOM      3  C   UNL     1       5.259   3.469  18.731  0.00  0.00    +0.000 A 
ATOM      4  C   UNL     1       5.270   4.730  18.126  0.00  0.00    +0.000 A 
ATOM      5  C   UNL     1       4.140   5.557  18.329  0.00  0.00    +0.000 A 
ATOM      6  S   UNL     1       3.781   7.106  17.678  0.00  0.00    +0.000 S 
ATOM      7  C   UNL     1       2.391   7.234  18.659  0.00  0.00    +0.000 A 
ATOM      8  N   UNL     1       1.670   8.407  18.792  0.00  0.00    +0.000 N 
ATOM      9  C   UNL     1       1.977   9.595  18.166  0.00  0.00    +0.000 C 
ATOM     10  O   UNL     1       2.838   9.734  17.298  0.00  0.00    +0.000 OA
ATOM     11  N   UNL     1       2.081   6.154  19.328  0.00  0.00    +0.000 NA
ATOM     12  C   UNL     1       3.072   5.179  19.159  0.00  0.00    +0.000 A 
ATOM     13  H   UNL     1       0.934   8.329  19.475  0.00  0.00    +0.000 HD
ENDROOT
BRANCH   9  14
ATOM     14  C   UNL     1       1.248  10.845  18.569  0.00  0.00    +0.000 A 
ATOM     15  C   UNL     1      -0.059  10.892  19.069  0.00  0.00    +0.000 A 
ATOM     16  C   UNL     1      -0.638  12.131  19.394  0.00  0.00    +0.000 A 
ATOM     17  C   UNL     1       0.083  13.310  19.226  0.00  0.00    +0.000 A 
ATOM     18  F   UNL     1      -0.481  14.485  19.533  0.00  0.00    +0.000 F 
ATOM     19  C   UNL     1       1.379  13.286  18.740  0.00  0.00    +0.000 A 
ATOM     20  C   UNL     1       1.957  12.058  18.416  0.00  0.00    +0.000 A 
ENDBRANCH   9  14
BRANCH   4  21
ATOM     21  N   UNL     1       6.375   5.095  17.305  0.00  0.00    +0.000 N 
ATOM     22  C   UNL     1       6.394   5.033  15.920  0.00  0.00    +0.000 C 
ATOM     23  C   UNL     1       5.237   4.430  15.167  0.00  0.00    +0.000 C 
ATOM     24  O   UNL     1       7.348   5.488  15.271  0.00  0.00    +0.000 OA
BRANCH  21  25
ATOM     25  C   UNL     1       7.576   5.592  17.988  0.00  0.00    +0.000 C 
BRANCH  25  26
ATOM     26  C   UNL     1       7.733   7.119  18.001  0.00  0.00    +0.000 C 
ATOM     27  N   UNL     1       7.120   7.816  16.999  0.00  0.00    +0.000 N 
ATOM     28  O   UNL     1       8.475   7.704  18.786  0.00  0.00    +0.000 OA
ATOM     29  H   UNL     1       6.784   7.320  16.173  0.00  0.00    +0.000 HD
ATOM     30  H   UNL     1       7.384   8.787  16.887  0.00  0.00    +0.000 HD
ENDBRANCH  25  26
ENDBRANCH  21  25
ENDBRANCH   4  21
BRANCH   1  32
ATOM     31  C   UNL     1       2.312   2.785  21.719  0.00  0.00    +0.000 C 
ATOM     32  O   UNL     1       2.017   3.527  20.540  0.00  0.00    +0.000 OA
ENDBRANCH   1  32
TORSDOF 5
ENDMDL
MODEL 7
REMARK VINA RESULT:      -7.8      1.352      2.383
REMARK  Name = 
REMARK  7 active torsions:
REMARK  status: ('A' for Active; 'I' for Inactive)
REMARK    1  A    between atoms: C_1  and  O_2
REMARK    2  A    between atoms: O_2  and  C_3
REMARK    3  A    between atoms: C_6  and  N_7
REMARK    4  A    between atoms: N_7  and  C_8
REMARK    5  A    between atoms: C_8  and  C_9
REMARK    6  A    between atoms: C_12  and  C_13
REMARK    7  A    between atoms: C_19  and  C_21
REMARK                            x       y       z     vdW  Elec       q    Type
REMARK                         _______ _______ _______ _____ _____    ______ ____
ROOT
ATOM      1  C   UNL     1       3.231   3.239  20.935  0.00  0.00    +0.000 A 
ATOM      2  C   UNL     1       4.252   2.587  20.229  0.00  0.00    +0.000 A 
ATOM      3  C   UNL     1       4.920   3.217  19.177  0.00  0.00    +0.000 A 
ATOM      4  C   UNL     1       4.581   4.512  18.770  0.00  0.00    +0.000 A 
ATOM      5  C   UNL     1       3.511   5.145  19.447  0.00  0.00    +0.000 A 
ATOM      6  S   UNL     1       2.780   6.673  19.158  0.00  0.00    +0.000 S 
ATOM      7  C   UNL     1       1.819   6.516  20.558  0.00  0.00    +0.000 A 
ATOM      8  N   UNL     1       1.067   7.556  21.075  0.00  0.00    +0.000 N 
ATOM      9  C   UNL     1       1.004   8.823  20.539  0.00  0.00    +0.000 C 
ATOM     10  O   UNL     1       1.484   9.157  19.457  0.00  0.00    +0.000 OA
ATOM     11  N   UNL     1       1.883   5.351  21.150  0.00  0.00    +0.000 NA
ATOM     12  C   UNL     1       2.851   4.548  20.533  0.00  0.00    +0.000 A 
ATOM     13  H   UNL     1       0.631   7.315  21.951  0.00  0.00    +0.000 HD
ENDROOT
BRANCH   9  14
ATOM     14  C   UNL     1       0.332   9.916  21.320  0.00  0.00    +0.000 A 
ATOM     15  C   UNL     1      -0.448   9.727  22.468  0.00  0.00    +0.000 A 
ATOM     16  C   UNL     1      -1.041  10.833  23.100  0.00  0.00    +0.000 A 
ATOM     17  C   UNL     1      -0.852  12.116  22.593  0.00  0.00    +0.000 A 
ATOM     18  F   UNL     1      -1.426  13.163  23.201  0.00  0.00    +0.000 F 
ATOM     19  C   UNL     1      -0.079  12.327  21.464  0.00  0.00    +0.000 A 
ATOM     20  C   UNL     1       0.510  11.231  20.834  0.00  0.00    +0.000 A 
ENDBRANCH   9  14
BRANCH   4  21
ATOM     21  N   UNL     1       5.280   5.100  17.678  0.00  0.00    +0.000 N 
ATOM     22  C   UNL     1       4.962   4.923  16.340  0.00  0.00    +0.000 C 
ATOM     23  C   UNL     1       3.884   3.953  15.933  0.00  0.00    +0.000 C 
ATOM     24  O   UNL     1       5.539   5.570  15.453  0.00  0.00    +0.000 OA
BRANCH  21  25
ATOM     25  C   UNL     1       6.412   5.975  18.006  0.00  0.00    +0.000 C 
BRANCH  25  26
ATOM     26  C   UNL     1       7.671   5.253  18.505  0.00  0.00    +0.000 C 
ATOM     27  N   UNL     1       8.173   4.260  17.712  0.00  0.00    +0.000 N 
ATOM     28  O   UNL     1       8.153   5.446  19.618  0.00  0.00    +0.000 OA
ATOM     29  H   UNL     1       7.600   3.878  16.960  0.00  0.00    +0.000 HD
ATOM     30  H   UNL     1       8.870   3.652  18.124  0.00  0.00    +0.000 HD
ENDBRANCH  25  26
ENDBRANCH  21  25
ENDBRANCH   4  21
BRANCH   1  32
ATOM     31  C   UNL     1       1.171   2.344  21.706  0.00  0.00    +0.000 C 
ATOM     32  O   UNL     1       2.535   2.653  21.967  0.00  0.00    +0.000 OA
ENDBRANCH   1  32
TORSDOF 5
ENDMDL
MODEL 8
REMARK VINA RESULT:      -7.7      1.882      2.765
REMARK  Name = 
REMARK  7 active torsions:
REMARK  status: ('A' for Active; 'I' for Inactive)
REMARK    1  A    between atoms: C_1  and  O_2
REMARK    2  A    between atoms: O_2  and  C_3
REMARK    3  A    between atoms: C_6  and  N_7
REMARK    4  A    between atoms: N_7  and  C_8
REMARK    5  A    between atoms: C_8  and  C_9
REMARK    6  A    between atoms: C_12  and  C_13
REMARK    7  A    between atoms: C_19  and  C_21
REMARK                            x       y       z     vdW  Elec       q    Type
REMARK                         _______ _______ _______ _____ _____    ______ ____
ROOT
ATOM      1  C   UNL     1       2.822   4.069  19.616  0.00  0.00    +0.000 A 
ATOM      2  C   UNL     1       3.909   3.232  19.331  0.00  0.00    +0.000 A 
ATOM      3  C   UNL     1       4.986   3.680  18.563  0.00  0.00    +0.000 A 
ATOM      4  C   UNL     1       5.011   4.973  18.028  0.00  0.00    +0.000 A 
ATOM      5  C   UNL     1       3.886   5.796  18.270  0.00  0.00    +0.000 A 
ATOM      6  S   UNL     1       3.543   7.382  17.703  0.00  0.00    +0.000 S 
ATOM      7  C   UNL     1       2.148   7.468  18.681  0.00  0.00    +0.000 A 
ATOM      8  N   UNL     1       1.436   8.638  18.874  0.00  0.00    +0.000 N 
ATOM      9  C   UNL     1       1.756   9.855  18.316  0.00  0.00    +0.000 C 
ATOM     10  O   UNL     1       2.623  10.034  17.461  0.00  0.00    +0.000 OA
ATOM     11  N   UNL     1       1.825   6.355  19.289  0.00  0.00    +0.000 NA
ATOM     12  C   UNL     1       2.810   5.382  19.072  0.00  0.00    +0.000 A 
ATOM     13  H   UNL     1       0.695   8.528  19.547  0.00  0.00    +0.000 HD
ENDROOT
BRANCH   9  14
ATOM     14  C   UNL     1       1.035  11.087  18.781  0.00  0.00    +0.000 A 
ATOM     15  C   UNL     1       1.522  12.396  18.678  0.00  0.00    +0.000 A 
ATOM     16  C   UNL     1       0.756  13.467  19.169  0.00  0.00    +0.000 A 
ATOM     17  C   UNL     1      -0.486  13.233  19.754  0.00  0.00    +0.000 A 
ATOM     18  F   UNL     1      -1.204  14.262  20.224  0.00  0.00    +0.000 F 
ATOM     19  C   UNL     1      -0.989  11.948  19.861  0.00  0.00    +0.000 A 
ATOM     20  C   UNL     1      -0.232  10.883  19.374  0.00  0.00    +0.000 A 
ENDBRANCH   9  14
BRANCH   4  21
ATOM     21  N   UNL     1       6.123   5.372  17.234  0.00  0.00    +0.000 N 
ATOM     22  C   UNL     1       6.221   5.214  15.860  0.00  0.00    +0.000 C 
ATOM     23  C   UNL     1       5.159   4.461  15.102  0.00  0.00    +0.000 C 
ATOM     24  O   UNL     1       7.166   5.703  15.224  0.00  0.00    +0.000 OA
BRANCH  21  25
ATOM     25  C   UNL     1       7.241   6.019  17.934  0.00  0.00    +0.000 C 
BRANCH  25  26
ATOM     26  C   UNL     1       8.156   5.068  18.718  0.00  0.00    +0.000 C 
ATOM     27  N   UNL     1       8.415   5.389  20.021  0.00  0.00    +0.000 N 
ATOM     28  O   UNL     1       8.747   4.128  18.193  0.00  0.00    +0.000 OA
ATOM     29  H   UNL     1       8.199   6.326  20.362  0.00  0.00    +0.000 HD
ATOM     30  H   UNL     1       9.167   4.887  20.476  0.00  0.00    +0.000 HD
ENDBRANCH  25  26
ENDBRANCH  21  25
ENDBRANCH   4  21
BRANCH   1  32
ATOM     31  C   UNL     1       2.021   2.998  21.578  0.00  0.00    +0.000 C 
ATOM     32  O   UNL     1       1.734   3.667  20.355  0.00  0.00    +0.000 OA
ENDBRANCH   1  32
TORSDOF 5
ENDMDL
MODEL 9
REMARK VINA RESULT:      -7.7      1.949      2.931
REMARK  Name = 
REMARK  7 active torsions:
REMARK  status: ('A' for Active; 'I' for Inactive)
REMARK    1  A    between atoms: C_1  and  O_2
REMARK    2  A    between atoms: O_2  and  C_3
REMARK    3  A    between atoms: C_6  and  N_7
REMARK    4  A    between atoms: N_7  and  C_8
REMARK    5  A    between atoms: C_8  and  C_9
REMARK    6  A    between atoms: C_12  and  C_13
REMARK    7  A    between atoms: C_19  and  C_21
REMARK                            x       y       z     vdW  Elec       q    Type
REMARK                         _______ _______ _______ _____ _____    ______ ____
ROOT
ATOM      1  C   UNL     1       2.933   4.366  20.181  0.00  0.00    +0.000 A 
ATOM      2  C   UNL     1       3.983   3.499  19.846  0.00  0.00    +0.000 A 
ATOM      3  C   UNL     1       4.950   3.862  18.907  0.00  0.00    +0.000 A 
ATOM      4  C   UNL     1       4.896   5.093  18.244  0.00  0.00    +0.000 A 
ATOM      5  C   UNL     1       3.803   5.942  18.542  0.00  0.00    +0.000 A 
ATOM      6  S   UNL     1       3.377   7.463  17.865  0.00  0.00    +0.000 S 
ATOM      7  C   UNL     1       2.117   7.654  18.998  0.00  0.00    +0.000 A 
ATOM      8  N   UNL     1       1.424   8.840  19.160  0.00  0.00    +0.000 N 
ATOM      9  C   UNL     1       1.661   9.993  18.445  0.00  0.00    +0.000 C 
ATOM     10  O   UNL     1       2.411  10.081  17.474  0.00  0.00    +0.000 OA
ATOM     11  N   UNL     1       1.883   6.610  19.752  0.00  0.00    +0.000 NA
ATOM     12  C   UNL     1       2.841   5.616  19.511  0.00  0.00    +0.000 A 
ATOM     13  H   UNL     1       0.775   8.803  19.930  0.00  0.00    +0.000 HD
ENDROOT
BRANCH   9  14
ATOM     14  C   UNL     1       0.993  11.269  18.871  0.00  0.00    +0.000 A 
ATOM     15  C   UNL     1      -0.273  11.361  19.463  0.00  0.00    +0.000 A 
ATOM     16  C   UNL     1      -0.797  12.619  19.801  0.00  0.00    +0.000 A 
ATOM     17  C   UNL     1      -0.061  13.776  19.556  0.00  0.00    +0.000 A 
ATOM     18  F   UNL     1      -0.573  14.971  19.877  0.00  0.00    +0.000 F 
ATOM     19  C   UNL     1       1.195  13.709  18.979  0.00  0.00    +0.000 A 
ATOM     20  C   UNL     1       1.718  12.461  18.641  0.00  0.00    +0.000 A 
ENDBRANCH   9  14
BRANCH   4  21
ATOM     21  N   UNL     1       5.895   5.405  17.279  0.00  0.00    +0.000 N 
ATOM     22  C   UNL     1       5.784   5.185  15.915  0.00  0.00    +0.000 C 
ATOM     23  C   UNL     1       4.592   4.451  15.356  0.00  0.00    +0.000 C 
ATOM     24  O   UNL     1       6.645   5.600  15.126  0.00  0.00    +0.000 OA
BRANCH  21  25
ATOM     25  C   UNL     1       7.129   6.028  17.777  0.00  0.00    +0.000 C 
BRANCH  25  26
ATOM     26  C   UNL     1       8.056   5.095  18.569  0.00  0.00    +0.000 C 
ATOM     27  N   UNL     1       8.357   5.460  19.850  0.00  0.00    +0.000 N 
ATOM     28  O   UNL     1       8.619   4.129  18.061  0.00  0.00    +0.000 OA
ATOM     29  H   UNL     1       8.162   6.411  20.163  0.00  0.00    +0.000 HD
ATOM     30  H   UNL     1       9.117   4.966  20.302  0.00  0.00    +0.000 HD
ENDBRANCH  25  26
ENDBRANCH  21  25
ENDBRANCH   4  21
BRANCH   1  32
ATOM     31  C   UNL     1       1.454   2.713  21.027  0.00  0.00    +0.000 C 
ATOM     32  O   UNL     1       1.951   4.045  21.089  0.00  0.00    +0.000 OA
ENDBRANCH   1  32
TORSDOF 5
ENDMDL
