MODEL 1
REMARK VINA RESULT:      -8.8      0.000      0.000
REMARK  Name = 
REMARK  5 active torsions:
REMARK  status: ('A' for Active; 'I' for Inactive)
REMARK    1  A    between atoms: C_1  and  C_2
REMARK    2  A    between atoms: C_4  and  C_5
REMARK    3  A    between atoms: N_6  and  C_7
REMARK    4  A    between atoms: C_7  and  C_8
REMARK    5  A    between atoms: C_13  and  C_14
REMARK                            x       y       z     vdW  Elec       q    Type
REMARK                         _______ _______ _______ _____ _____    ______ ____
ROOT
ATOM      1  C   UNL     1       3.430   3.364  18.887  0.00  0.00    +0.000 C 
ATOM      2  C   UNL     1       4.068   2.271  19.741  0.00  0.00    +0.000 C 
ATOM      3  N   UNL     1       3.839   2.402  21.178  0.00  0.00    +0.000 NA
ATOM      4  C   UNL     1       2.415   2.489  21.466  0.00  0.00    +0.000 C 
ATOM      5  C   UNL     1       1.889   3.854  21.038  0.00  0.00    +0.000 C 
ATOM      6  C   UNL     1       2.389   4.286  19.645  0.00  0.00    +0.000 C 
ATOM      7  C   UNL     1       1.932   3.356  18.574  0.00  0.00    +0.000 C 
ATOM      8  H   UNL     1       4.300   3.253  21.506  0.00  0.00    +0.000 HD
ENDROOT
BRANCH   6   9
ATOM      9  C   UNL     1       2.226   5.791  19.401  0.00  0.00    +0.000 A 
ATOM     10  C   UNL     1       2.436   6.320  18.107  0.00  0.00    +0.000 A 
ATOM     11  C   UNL     1       2.303   7.683  17.822  0.00  0.00    +0.000 A 
ATOM     12  C   UNL     1       1.958   8.572  18.834  0.00  0.00    +0.000 A 
ATOM     13 CL   UNL     1       1.892  10.251  18.441  0.00  0.00    +0.000 Cl
ATOM     14  C   UNL     1       1.692   8.078  20.115  0.00  0.00    +0.000 A 
ATOM     15 CL   UNL     1       1.225   9.118  21.415  0.00  0.00    +0.000 Cl
ATOM     16  C   UNL     1       1.803   6.702  20.380  0.00  0.00    +0.000 A 
ENDBRANCH   6   9
BRANCH   1  17
ATOM     17  C   UNL     1       4.147   3.485  17.526  0.00  0.00    +0.000 C 
BRANCH  17  23
ATOM     18  C   UNL     1       7.975   5.923  19.170  0.00  0.00    +0.000 C 
ATOM     19  C   UNL     1       7.098   5.159  18.264  0.00  0.00    +0.000 A 
ATOM     20  N   UNL     1       7.356   5.038  16.926  0.00  0.00    +0.000 NA
ATOM     21  C   UNL     1       6.329   4.345  16.471  0.00  0.00    +0.000 A 
ATOM     22  C   UNL     1       6.144   3.971  15.045  0.00  0.00    +0.000 C 
ATOM     23  N   UNL     1       5.492   4.053  17.529  0.00  0.00    +0.000 N 
ATOM     24  N   UNL     1       5.984   4.558  18.670  0.00  0.00    +0.000 NA
ENDBRANCH  17  23
ENDBRANCH   1  17
TORSDOF 3
ENDMDL
MODEL 2
REMARK VINA RESULT:      -8.8      1.303      1.892
REMARK  Name = 
REMARK  5 active torsions:
REMARK  status: ('A' for Active; 'I' for Inactive)
REMARK    1  A    between atoms: C_1  and  C_2
REMARK    2  A    between atoms: C_4  and  C_5
REMARK    3  A    between atoms: N_6  and  C_7
REMARK    4  A    between atoms: C_7  and  C_8
REMARK    5  A    between atoms: C_13  and  C_14
REMARK                            x       y       z     vdW  Elec       q    Type
REMARK                         _______ _______ _______ _____ _____    ______ ____
ROOT
ATOM      1  C   UNL     1       3.683   4.349  18.224  0.00  0.00    +0.000 C 
ATOM      2  C   UNL     1       4.633   3.225  18.628  0.00  0.00    +0.000 C 
ATOM      3  N   UNL     1       4.632   2.900  20.053  0.00  0.00    +0.000 NA
ATOM      4  C   UNL     1       3.283   2.598  20.509  0.00  0.00    +0.000 C 
ATOM      5  C   UNL     1       2.466   3.883  20.579  0.00  0.00    +0.000 C 
ATOM      6  C   UNL     1       2.643   4.781  19.338  0.00  0.00    +0.000 C 
ATOM      7  C   UNL     1       2.177   4.109  18.092  0.00  0.00    +0.000 C 
ATOM      8  H   UNL     1       4.989   3.705  20.572  0.00  0.00    +0.000 HD
ENDROOT
BRANCH   6   9
ATOM      9  C   UNL     1       2.186   6.223  19.585  0.00  0.00    +0.000 A 
ATOM     10  C   UNL     1       1.638   6.583  20.837  0.00  0.00    +0.000 A 
ATOM     11  C   UNL     1       1.203   7.881  21.123  0.00  0.00    +0.000 A 
ATOM     12  C   UNL     1       1.298   8.873  20.153  0.00  0.00    +0.000 A 
ATOM     13 CL   UNL     1       0.668  10.433  20.535  0.00  0.00    +0.000 Cl
ATOM     14  C   UNL     1       1.883   8.568  18.920  0.00  0.00    +0.000 A 
ATOM     15 CL   UNL     1       2.066   9.756  17.677  0.00  0.00    +0.000 Cl
ATOM     16  C   UNL     1       2.341   7.264  18.657  0.00  0.00    +0.000 A 
ENDBRANCH   6   9
BRANCH   1  17
ATOM     17  C   UNL     1       4.128   4.993  16.895  0.00  0.00    +0.000 C 
BRANCH  17  23
ATOM     18  C   UNL     1       7.842   7.963  17.722  0.00  0.00    +0.000 C 
ATOM     19  C   UNL     1       7.051   6.846  17.173  0.00  0.00    +0.000 A 
ATOM     20  N   UNL     1       7.481   6.097  16.113  0.00  0.00    +0.000 NA
ATOM     21  C   UNL     1       6.484   5.260  15.897  0.00  0.00    +0.000 A 
ATOM     22  C   UNL     1       6.471   4.241  14.815  0.00  0.00    +0.000 C 
ATOM     23  N   UNL     1       5.493   5.506  16.827  0.00  0.00    +0.000 N 
ATOM     24  N   UNL     1       5.856   6.505  17.645  0.00  0.00    +0.000 NA
ENDBRANCH  17  23
ENDBRANCH   1  17
TORSDOF 3
ENDMDL
MODEL 3
REMARK VINA RESULT:      -8.8      1.180      1.218
REMARK  Name = 
REMARK  5 active torsions:
REMARK  status: ('A' for Active; 'I' for Inactive)
REMARK    1  A    between atoms: C_1  and  C_2
REMARK    2  A    between atoms: C_4  and  C_5
REMARK    3  A    between atoms: N_6  and  C_7
REMARK    4  A    between atoms: C_7  and  C_8
REMARK    5  A    between atoms: C_13  and  C_14
REMARK                            x       y       z     vdW  Elec       q    Type
REMARK                         _______ _______ _______ _____ _____    ______ ____
ROOT
ATOM      1  C   UNL     1       3.566   4.286  18.106  0.00  0.00    +0.000 C 
ATOM      2  C   UNL     1       4.402   3.132  18.652  0.00  0.00    +0.000 C 
ATOM      3  N   UNL     1       4.317   2.941  20.099  0.00  0.00    +0.000 NA
ATOM      4  C   UNL     1       2.931   2.791  20.515  0.00  0.00    +0.000 C 
ATOM      5  C   UNL     1       2.221   4.137  20.433  0.00  0.00    +0.000 C 
ATOM      6  C   UNL     1       2.521   4.900  19.126  0.00  0.00    +0.000 C 
ATOM      7  C   UNL     1       2.051   4.154  17.924  0.00  0.00    +0.000 C 
ATOM      8  H   UNL     1       4.719   3.760  20.560  0.00  0.00    +0.000 HD
ENDROOT
BRANCH   6   9
ATOM      9  C   UNL     1       2.177   6.390  19.222  0.00  0.00    +0.000 A 
ATOM     10  C   UNL     1       2.194   7.193  18.058  0.00  0.00    +0.000 A 
ATOM     11  C   UNL     1       1.890   8.558  18.081  0.00  0.00    +0.000 A 
ATOM     12  C   UNL     1       1.560   9.174  19.283  0.00  0.00    +0.000 A 
ATOM     13 CL   UNL     1       1.277  10.876  19.262  0.00  0.00    +0.000 Cl
ATOM     14  C   UNL     1       1.481   8.402  20.446  0.00  0.00    +0.000 A 
ATOM     15 CL   UNL     1       1.044   9.091  21.971  0.00  0.00    +0.000 Cl
ATOM     16  C   UNL     1       1.763   7.025  20.403  0.00  0.00    +0.000 A 
ENDBRANCH   6   9
BRANCH   1  17
ATOM     17  C   UNL     1       4.116   4.767  16.747  0.00  0.00    +0.000 C 
BRANCH  17  23
ATOM     18  C   UNL     1       7.760   7.755  17.792  0.00  0.00    +0.000 C 
ATOM     19  C   UNL     1       6.998   6.655  17.173  0.00  0.00    +0.000 A 
ATOM     20  N   UNL     1       7.460   5.969  16.083  0.00  0.00    +0.000 NA
ATOM     21  C   UNL     1       6.482   5.127  15.807  0.00  0.00    +0.000 A 
ATOM     22  C   UNL     1       6.507   4.165  14.674  0.00  0.00    +0.000 C 
ATOM     23  N   UNL     1       5.472   5.307  16.730  0.00  0.00    +0.000 N 
ATOM     24  N   UNL     1       5.802   6.269  17.605  0.00  0.00    +0.000 NA
ENDBRANCH  17  23
ENDBRANCH   1  17
TORSDOF 3
ENDMDL
MODEL 4
REMARK VINA RESULT:      -8.6      1.325      2.543
REMARK  Name = 
REMARK  5 active torsions:
REMARK  status: ('A' for Active; 'I' for Inactive)
REMARK    1  A    between atoms: C_1  and  C_2
REMARK    2  A    between atoms: C_4  and  C_5
REMARK    3  A    between atoms: N_6  and  C_7
REMARK    4  A    between atoms: C_7  and  C_8
REMARK    5  A    between atoms: C_13  and  C_14
REMARK                            x       y       z     vdW  Elec       q    Type
REMARK                         _______ _______ _______ _____ _____    ______ ____
ROOT
ATOM      1  C   UNL     1       4.063   4.220  18.707  0.00  0.00    +0.000 C 
ATOM      2  C   UNL     1       4.212   2.746  19.077  0.00  0.00    +0.000 C 
ATOM      3  N   UNL     1       3.021   2.136  19.664  0.00  0.00    +0.000 NA
ATOM      4  C   UNL     1       1.870   2.315  18.791  0.00  0.00    +0.000 C 
ATOM      5  C   UNL     1       1.413   3.768  18.837  0.00  0.00    +0.000 C 
ATOM      6  C   UNL     1       2.579   4.772  18.737  0.00  0.00    +0.000 C 
ATOM      7  C   UNL     1       3.311   4.650  17.445  0.00  0.00    +0.000 C 
ATOM      8  H   UNL     1       2.834   2.584  20.563  0.00  0.00    +0.000 HD
ENDROOT
BRANCH   6   9
ATOM      9  C   UNL     1       2.187   6.178  19.206  0.00  0.00    +0.000 A 
ATOM     10  C   UNL     1       1.741   6.377  20.533  0.00  0.00    +0.000 A 
ATOM     11  C   UNL     1       1.369   7.635  21.020  0.00  0.00    +0.000 A 
ATOM     12  C   UNL     1       1.426   8.745  20.185  0.00  0.00    +0.000 A 
ATOM     13 CL   UNL     1       0.874  10.254  20.817  0.00  0.00    +0.000 Cl
ATOM     14  C   UNL     1       1.911   8.596  18.882  0.00  0.00    +0.000 A 
ATOM     15 CL   UNL     1       2.043   9.937  17.798  0.00  0.00    +0.000 Cl
ATOM     16  C   UNL     1       2.307   7.330  18.415  0.00  0.00    +0.000 A 
ENDBRANCH   6   9
BRANCH   1  17
ATOM     17  C   UNL     1       5.441   4.910  18.637  0.00  0.00    +0.000 C 
BRANCH  17  23
ATOM     18  C   UNL     1       6.637   4.054  14.039  0.00  0.00    +0.000 C 
ATOM     19  C   UNL     1       6.528   4.732  15.344  0.00  0.00    +0.000 A 
ATOM     20  N   UNL     1       7.278   5.831  15.662  0.00  0.00    +0.000 NA
ATOM     21  C   UNL     1       6.935   6.092  16.909  0.00  0.00    +0.000 A 
ATOM     22  C   UNL     1       7.507   7.204  17.714  0.00  0.00    +0.000 C 
ATOM     23  N   UNL     1       5.989   5.170  17.309  0.00  0.00    +0.000 N 
ATOM     24  N   UNL     1       5.720   4.313  16.313  0.00  0.00    +0.000 NA
ENDBRANCH  17  23
ENDBRANCH   1  17
TORSDOF 3
ENDMDL
MODEL 5
REMARK VINA RESULT:      -8.5      1.230      2.114
REMARK  Name = 
REMARK  5 active torsions:
REMARK  status: ('A' for Active; 'I' for Inactive)
REMARK    1  A    between atoms: C_1  and  C_2
REMARK    2  A    between atoms: C_4  and  C_5
REMARK    3  A    between atoms: N_6  and  C_7
REMARK    4  A    between atoms: C_7  and  C_8
REMARK    5  A    between atoms: C_13  and  C_14
REMARK                            x       y       z     vdW  Elec       q    Type
REMARK                         _______ _______ _______ _____ _____    ______ ____
ROOT
ATOM      1  C   UNL     1       4.227   4.458  18.995  0.00  0.00    +0.000 C 
ATOM      2  C   UNL     1       4.402   3.077  19.620  0.00  0.00    +0.000 C 
ATOM      3  N   UNL     1       3.218   2.554  20.298  0.00  0.00    +0.000 NA
ATOM      4  C   UNL     1       2.072   2.551  19.401  0.00  0.00    +0.000 C 
ATOM      5  C   UNL     1       1.586   3.979  19.185  0.00  0.00    +0.000 C 
ATOM      6  C   UNL     1       2.732   4.975  18.917  0.00  0.00    +0.000 C 
ATOM      7  C   UNL     1       3.480   4.642  17.671  0.00  0.00    +0.000 C 
ATOM      8  H   UNL     1       3.012   3.151  21.103  0.00  0.00    +0.000 HD
ENDROOT
BRANCH   6   9
ATOM      9  C   UNL     1       2.307   6.433  19.127  0.00  0.00    +0.000 A 
ATOM     10  C   UNL     1       2.318   7.333  18.036  0.00  0.00    +0.000 A 
ATOM     11  C   UNL     1       1.942   8.674  18.165  0.00  0.00    +0.000 A 
ATOM     12  C   UNL     1       1.544   9.166  19.403  0.00  0.00    +0.000 A 
ATOM     13 CL   UNL     1       1.173  10.848  19.517  0.00  0.00    +0.000 Cl
ATOM     14  C   UNL     1       1.471   8.294  20.493  0.00  0.00    +0.000 A 
ATOM     15 CL   UNL     1       0.953   8.826  22.055  0.00  0.00    +0.000 Cl
ATOM     16  C   UNL     1       1.826   6.942  20.343  0.00  0.00    +0.000 A 
ENDBRANCH   6   9
BRANCH   1  17
ATOM     17  C   UNL     1       5.592   5.155  18.812  0.00  0.00    +0.000 C 
BRANCH  17  23
ATOM     18  C   UNL     1       6.567   4.019  14.223  0.00  0.00    +0.000 C 
ATOM     19  C   UNL     1       6.516   4.777  15.487  0.00  0.00    +0.000 A 
ATOM     20  N   UNL     1       7.269   5.899  15.697  0.00  0.00    +0.000 NA
ATOM     21  C   UNL     1       6.986   6.237  16.941  0.00  0.00    +0.000 A 
ATOM     22  C   UNL     1       7.585   7.401  17.645  0.00  0.00    +0.000 C 
ATOM     23  N   UNL     1       6.070   5.334  17.445  0.00  0.00    +0.000 N 
ATOM     24  N   UNL     1       5.761   4.414  16.519  0.00  0.00    +0.000 NA
ENDBRANCH  17  23
ENDBRANCH   1  17
TORSDOF 3
ENDMDL
MODEL 6
REMARK VINA RESULT:      -8.3      1.692      2.794
REMARK  Name = 
REMARK  5 active torsions:
REMARK  status: ('A' for Active; 'I' for Inactive)
REMARK    1  A    between atoms: C_1  and  C_2
REMARK    2  A    between atoms: C_4  and  C_5
REMARK    3  A    between atoms: N_6  and  C_7
REMARK    4  A    between atoms: C_7  and  C_8
REMARK    5  A    between atoms: C_13  and  C_14
REMARK                            x       y       z     vdW  Elec       q    Type
REMARK                         _______ _______ _______ _____ _____    ______ ____
ROOT
ATOM      1  C   UNL     1       3.749   6.093  18.409  0.00  0.00    +0.000 C 
ATOM      2  C   UNL     1       4.623   4.899  18.781  0.00  0.00    +0.000 C 
ATOM      3  N   UNL     1       4.279   4.255  20.047  0.00  0.00    +0.000 NA
ATOM      4  C   UNL     1       2.876   3.867  20.060  0.00  0.00    +0.000 C 
ATOM      5  C   UNL     1       2.002   5.108  20.203  0.00  0.00    +0.000 C 
ATOM      6  C   UNL     1       2.440   6.265  19.283  0.00  0.00    +0.000 C 
ATOM      7  C   UNL     1       2.340   5.901  17.842  0.00  0.00    +0.000 C 
ATOM      8  H   UNL     1       4.451   4.917  20.807  0.00  0.00    +0.000 HD
ENDROOT
BRANCH   6   9
ATOM      9  C   UNL     1       1.861   7.616  19.720  0.00  0.00    +0.000 A 
ATOM     10  C   UNL     1       1.690   8.649  18.770  0.00  0.00    +0.000 A 
ATOM     11  C   UNL     1       1.168   9.902  19.107  0.00  0.00    +0.000 A 
ATOM     12  C   UNL     1       0.801  10.168  20.421  0.00  0.00    +0.000 A 
ATOM     13 CL   UNL     1       0.243  11.759  20.793  0.00  0.00    +0.000 Cl
ATOM     14  C   UNL     1       0.907   9.155  21.379  0.00  0.00    +0.000 A 
ATOM     15 CL   UNL     1       0.438   9.402  23.025  0.00  0.00    +0.000 Cl
ATOM     16  C   UNL     1       1.408   7.891  21.019  0.00  0.00    +0.000 A 
ENDBRANCH   6   9
BRANCH   1  17
ATOM     17  C   UNL     1       4.482   7.022  17.418  0.00  0.00    +0.000 C 
BRANCH  17  23
ATOM     18  C   UNL     1       6.446   4.131  14.089  0.00  0.00    +0.000 C 
ATOM     19  C   UNL     1       6.329   5.119  15.178  0.00  0.00    +0.000 A 
ATOM     20  N   UNL     1       7.411   5.546  15.898  0.00  0.00    +0.000 NA
ATOM     21  C   UNL     1       6.888   6.362  16.793  0.00  0.00    +0.000 A 
ATOM     22  C   UNL     1       7.676   7.071  17.835  0.00  0.00    +0.000 C 
ATOM     23  N   UNL     1       5.523   6.423  16.589  0.00  0.00    +0.000 N 
ATOM     24  N   UNL     1       5.168   5.644  15.556  0.00  0.00    +0.000 NA
ENDBRANCH  17  23
ENDBRANCH   1  17
TORSDOF 3
ENDMDL
MODEL 7
REMARK VINA RESULT:      -8.1      1.571      2.974
REMARK  Name = 
REMARK  5 active torsions:
REMARK  status: ('A' for Active; 'I' for Inactive)
REMARK    1  A    between atoms: C_1  and  C_2
REMARK    2  A    between atoms: C_4  and  C_5
REMARK    3  A    between atoms: N_6  and  C_7
REMARK    4  A    between atoms: C_7  and  C_8
REMARK    5  A    between atoms: C_13  and  C_14
REMARK                            x       y       z     vdW  Elec       q    Type
REMARK                         _______ _______ _______ _____ _____    ______ ____
ROOT
ATOM      1  C   UNL     1       3.766   5.906  18.413  0.00  0.00    +0.000 C 
ATOM      2  C   UNL     1       4.628   4.683  18.713  0.00  0.00    +0.000 C 
ATOM      3  N   UNL     1       4.278   3.969  19.940  0.00  0.00    +0.000 NA
ATOM      4  C   UNL     1       2.871   3.595  19.932  0.00  0.00    +0.000 C 
ATOM      5  C   UNL     1       2.010   4.834  20.149  0.00  0.00    +0.000 C 
ATOM      6  C   UNL     1       2.459   6.039  19.298  0.00  0.00    +0.000 C 
ATOM      7  C   UNL     1       2.354   5.761  17.837  0.00  0.00    +0.000 C 
ATOM      8  H   UNL     1       4.457   4.583  20.737  0.00  0.00    +0.000 HD
ENDROOT
BRANCH   6   9
ATOM      9  C   UNL     1       1.894   7.368  19.814  0.00  0.00    +0.000 A 
ATOM     10  C   UNL     1       1.525   7.493  21.173  0.00  0.00    +0.000 A 
ATOM     11  C   UNL     1       1.004   8.678  21.704  0.00  0.00    +0.000 A 
ATOM     12  C   UNL     1       0.828   9.786  20.883  0.00  0.00    +0.000 A 
ATOM     13 CL   UNL     1       0.102  11.192  21.575  0.00  0.00    +0.000 Cl
ATOM     14  C   UNL     1       1.230   9.716  19.546  0.00  0.00    +0.000 A 
ATOM     15 CL   UNL     1       1.074  11.064  18.474  0.00  0.00    +0.000 Cl
ATOM     16  C   UNL     1       1.778   8.527  19.033  0.00  0.00    +0.000 A 
ENDBRANCH   6   9
BRANCH   1  17
ATOM     17  C   UNL     1       4.507   6.884  17.478  0.00  0.00    +0.000 C 
BRANCH  17  23
ATOM     18  C   UNL     1       6.435   4.115  14.026  0.00  0.00    +0.000 C 
ATOM     19  C   UNL     1       6.329   5.071  15.144  0.00  0.00    +0.000 A 
ATOM     20  N   UNL     1       7.421   5.493  15.852  0.00  0.00    +0.000 NA
ATOM     21  C   UNL     1       6.907   6.276  16.781  0.00  0.00    +0.000 A 
ATOM     22  C   UNL     1       7.709   6.967  17.824  0.00  0.00    +0.000 C 
ATOM     23  N   UNL     1       5.538   6.323  16.609  0.00  0.00    +0.000 N 
ATOM     24  N   UNL     1       5.170   5.568  15.563  0.00  0.00    +0.000 NA
ENDBRANCH  17  23
ENDBRANCH   1  17
TORSDOF 3
ENDMDL
MODEL 8
REMARK VINA RESULT:      -8.1      1.109      1.711
REMARK  Name = 
REMARK  5 active torsions:
REMARK  status: ('A' for Active; 'I' for Inactive)
REMARK    1  A    between atoms: C_1  and  C_2
REMARK    2  A    between atoms: C_4  and  C_5
REMARK    3  A    between atoms: N_6  and  C_7
REMARK    4  A    between atoms: C_7  and  C_8
REMARK    5  A    between atoms: C_13  and  C_14
REMARK                            x       y       z     vdW  Elec       q    Type
REMARK                         _______ _______ _______ _____ _____    ______ ____
ROOT
ATOM      1  C   UNL     1       3.294   3.654  19.069  0.00  0.00    +0.000 C 
ATOM      2  C   UNL     1       3.969   2.480  19.773  0.00  0.00    +0.000 C 
ATOM      3  N   UNL     1       3.705   2.388  21.208  0.00  0.00    +0.000 NA
ATOM      4  C   UNL     1       2.273   2.365  21.466  0.00  0.00    +0.000 C 
ATOM      5  C   UNL     1       1.687   3.751  21.226  0.00  0.00    +0.000 C 
ATOM      6  C   UNL     1       2.192   4.405  19.924  0.00  0.00    +0.000 C 
ATOM      7  C   UNL     1       1.804   3.620  18.718  0.00  0.00    +0.000 C 
ATOM      8  H   UNL     1       4.116   3.204  21.668  0.00  0.00    +0.000 HD
ENDROOT
BRANCH   6   9
ATOM      9  C   UNL     1       1.958   5.920  19.896  0.00  0.00    +0.000 A 
ATOM     10  C   UNL     1       1.431   6.571  21.035  0.00  0.00    +0.000 A 
ATOM     11  C   UNL     1       1.194   7.949  21.071  0.00  0.00    +0.000 A 
ATOM     12  C   UNL     1       1.476   8.729  19.955  0.00  0.00    +0.000 A 
ATOM     13 CL   UNL     1       1.084  10.409  20.030  0.00  0.00    +0.000 Cl
ATOM     14  C   UNL     1       2.047   8.129  18.828  0.00  0.00    +0.000 A 
ATOM     15 CL   UNL     1       2.454   9.041  17.417  0.00  0.00    +0.000 Cl
ATOM     16  C   UNL     1       2.304   6.747  18.817  0.00  0.00    +0.000 A 
ENDBRANCH   6   9
BRANCH   1  17
ATOM     17  C   UNL     1       4.031   4.006  17.760  0.00  0.00    +0.000 C 
BRANCH  17  23
ATOM     18  C   UNL     1       8.093   5.707  19.735  0.00  0.00    +0.000 C 
ATOM     19  C   UNL     1       6.972   5.534  18.793  0.00  0.00    +0.000 A 
ATOM     20  N   UNL     1       6.712   6.430  17.793  0.00  0.00    +0.000 NA
ATOM     21  C   UNL     1       5.619   5.957  17.226  0.00  0.00    +0.000 A 
ATOM     22  C   UNL     1       4.926   6.607  16.083  0.00  0.00    +0.000 C 
ATOM     23  N   UNL     1       5.254   4.795  17.875  0.00  0.00    +0.000 N 
ATOM     24  N   UNL     1       6.118   4.518  18.863  0.00  0.00    +0.000 NA
ENDBRANCH  17  23
ENDBRANCH   1  17
TORSDOF 3
ENDMDL
MODEL 9
REMARK VINA RESULT:      -7.7      1.653      4.232
REMARK  Name = 
REMARK  5 active torsions:
REMARK  status: ('A' for Active; 'I' for Inactive)
REMARK    1  A    between atoms: C_1  and  C_2
REMARK    2  A    between atoms: C_4  and  C_5
REMARK    3  A    between atoms: N_6  and  C_7
REMARK    4  A    between atoms: C_7  and  C_8
REMARK    5  A    between atoms: C_13  and  C_14
REMARK                            x       y       z     vdW  Elec       q    Type
REMARK                         _______ _______ _______ _____ _____    ______ ____
ROOT
ATOM      1  C   UNL     1       4.069   4.671  17.643  0.00  0.00    +0.000 C 
ATOM      2  C   UNL     1       4.777   4.042  16.446  0.00  0.00    +0.000 C 
ATOM      3  N   UNL     1       5.325   4.996  15.485  0.00  0.00    +0.000 NA
ATOM      4  C   UNL     1       6.214   5.939  16.148  0.00  0.00    +0.000 C 
ATOM      5  C   UNL     1       5.393   6.918  16.980  0.00  0.00    +0.000 C 
ATOM      6  C   UNL     1       4.292   6.230  17.812  0.00  0.00    +0.000 C 
ATOM      7  C   UNL     1       4.859   5.276  18.807  0.00  0.00    +0.000 C 
ATOM      8  H   UNL     1       4.552   5.508  15.056  0.00  0.00    +0.000 HD
ENDROOT
BRANCH   6   9
ATOM      9  C   UNL     1       3.219   7.212  18.295  0.00  0.00    +0.000 A 
ATOM     10  C   UNL     1       2.751   8.225  17.426  0.00  0.00    +0.000 A 
ATOM     11  C   UNL     1       1.774   9.150  17.809  0.00  0.00    +0.000 A 
ATOM     12  C   UNL     1       1.231   9.096  19.088  0.00  0.00    +0.000 A 
ATOM     13 CL   UNL     1       0.093  10.316  19.530  0.00  0.00    +0.000 Cl
ATOM     14  C   UNL     1       1.632   8.077  19.957  0.00  0.00    +0.000 A 
ATOM     15 CL   UNL     1       0.976   7.925  21.550  0.00  0.00    +0.000 Cl
ATOM     16  C   UNL     1       2.595   7.137  19.549  0.00  0.00    +0.000 A 
ENDBRANCH   6   9
BRANCH   1  17
ATOM     17  C   UNL     1       3.074   3.676  18.277  0.00  0.00    +0.000 C 
BRANCH  17  23
ATOM     18  C   UNL     1       5.453   0.896  21.425  0.00  0.00    +0.000 C 
ATOM     19  C   UNL     1       4.464   1.842  20.876  0.00  0.00    +0.000 A 
ATOM     20  N   UNL     1       3.354   2.227  21.577  0.00  0.00    +0.000 NA
ATOM     21  C   UNL     1       2.710   3.013  20.735  0.00  0.00    +0.000 A 
ATOM     22  C   UNL     1       1.412   3.671  21.037  0.00  0.00    +0.000 C 
ATOM     23  N   UNL     1       3.440   3.098  19.567  0.00  0.00    +0.000 N 
ATOM     24  N   UNL     1       4.560   2.365  19.659  0.00  0.00    +0.000 NA
ENDBRANCH  17  23
ENDBRANCH   1  17
TORSDOF 3
ENDMDL
